MODEL 1
REMARK VINA RESULT:      -7.3      0.000      0.000
REMARK  Name = 
REMARK  6 active torsions:
REMARK  status: ('A' for Active; 'I' for Inactive)
REMARK    1  A    between atoms: C_1  and  C_2
REMARK    2  A    between atoms: C_2  and  C_3
REMARK    3  A    between atoms: C_3  and  N_4
REMARK    4  A    between atoms: N_7  and  S_8
REMARK    5  A    between atoms: S_8  and  C_11
REMARK    6  A    between atoms: N_28  and  C_29
REMARK                            x       y       z     vdW  Elec       q    Type
REMARK                         _______ _______ _______ _____ _____    ______ ____
ROOT
ATOM      1  N   UNL     1       4.107   4.023  18.091  0.00  0.00    +0.000 NA
ATOM      2  C   UNL     1       4.530   4.808  16.905  0.00  0.00    +0.000 C 
ATOM      3  C   UNL     1       4.949   6.270  17.161  0.00  0.00    +0.000 C 
ATOM      4  N   UNL     1       5.925   6.414  18.287  0.00  0.00    +0.000 NA
ATOM      5  C   UNL     1       5.665   5.522  19.462  0.00  0.00    +0.000 C 
ATOM      6  C   UNL     1       5.226   4.107  19.056  0.00  0.00    +0.000 C 
ENDROOT
BRANCH   1   7
ATOM      7  C   UNL     1       2.721   4.275  18.602  0.00  0.00    +0.000 C 
ATOM      8  C   UNL     1       2.567   3.969  20.134  0.00  0.00    +0.000 C 
ATOM      9  C   UNL     1       1.736   5.104  20.723  0.00  0.00    +0.000 C 
ATOM     10  N   UNL     1       1.982   6.218  19.843  0.00  0.00    +0.000 N 
ATOM     11  C   UNL     1       1.916   7.566  20.085  0.00  0.00    +0.000 C 
ATOM     12  O   UNL     1       2.150   8.398  19.213  0.00  0.00    +0.000 OA
ATOM     13  N   UNL     1       1.593   7.923  21.363  0.00  0.00    +0.000 N 
ATOM     14  C   UNL     1       1.438   9.304  21.750  0.00  0.00    +0.000 C 
ATOM     15  C   UNL     1       2.194   5.740  18.496  0.00  0.00    +0.000 C 
ATOM     16  H   UNL     1       1.251   7.217  21.990  0.00  0.00    +0.000 HD
BRANCH   7  18
ATOM     17  C   UNL     1       1.105   2.207  18.670  0.00  0.00    +0.000 C 
ATOM     18  C   UNL     1       1.709   3.344  17.842  0.00  0.00    +0.000 C 
ENDBRANCH   7  18
ENDBRANCH   1   7
BRANCH   4  19
ATOM     19  S   UNL     1       7.556   6.536  17.837  0.00  0.00    +0.000 S 
ATOM     20  O   UNL     1       8.368   5.841  18.815  0.00  0.00    +0.000 OA
ATOM     21  O   UNL     1       7.637   6.207  16.430  0.00  0.00    +0.000 OA
BRANCH  19  22
ATOM     22  C   UNL     1       7.886   8.271  18.035  0.00  0.00    +0.000 A 
ATOM     23  C   UNL     1       7.254   9.191  17.199  0.00  0.00    +0.000 A 
ATOM     24  C   UNL     1       7.597  10.538  17.285  0.00  0.00    +0.000 A 
ATOM     25  C   UNL     1       8.556  10.975  18.214  0.00  0.00    +0.000 A 
ATOM     26  C   UNL     1       9.168  10.047  19.079  0.00  0.00    +0.000 A 
ATOM     27  C   UNL     1       8.829   8.690  18.986  0.00  0.00    +0.000 A 
ATOM     28  C   UNL     1      10.136  10.495  20.149  0.00  0.00    +0.000 C 
ATOM     29  C   UNL     1      10.740  11.874  19.885  0.00  0.00    +0.000 C 
ATOM     30  C   UNL     1       9.660  12.870  19.481  0.00  0.00    +0.000 C 
ATOM     31  C   UNL     1       8.980  12.424  18.191  0.00  0.00    +0.000 C 
ENDBRANCH  19  22
ENDBRANCH   4  19
TORSDOF 4
ENDMDL
MODEL 2
REMARK VINA RESULT:      -7.3      2.483      6.803
REMARK  Name = 
REMARK  6 active torsions:
REMARK  status: ('A' for Active; 'I' for Inactive)
REMARK    1  A    between atoms: C_1  and  C_2
REMARK    2  A    between atoms: C_2  and  C_3
REMARK    3  A    between atoms: C_3  and  N_4
REMARK    4  A    between atoms: N_7  and  S_8
REMARK    5  A    between atoms: S_8  and  C_11
REMARK    6  A    between atoms: N_28  and  C_29
REMARK                            x       y       z     vdW  Elec       q    Type
REMARK                         _______ _______ _______ _____ _____    ______ ____
ROOT
ATOM      1  N   UNL     1       4.600   3.905  17.328  0.00  0.00    +0.000 NA
ATOM      2  C   UNL     1       4.831   3.904  18.794  0.00  0.00    +0.000 C 
ATOM      3  C   UNL     1       4.584   5.235  19.532  0.00  0.00    +0.000 C 
ATOM      4  N   UNL     1       3.269   5.864  19.187  0.00  0.00    +0.000 NA
ATOM      5  C   UNL     1       2.880   5.755  17.745  0.00  0.00    +0.000 C 
ATOM      6  C   UNL     1       3.214   4.386  17.134  0.00  0.00    +0.000 C 
ENDROOT
BRANCH   1   7
ATOM      7  C   UNL     1       5.677   4.512  16.481  0.00  0.00    +0.000 C 
ATOM      8  C   UNL     1       5.194   5.779  15.690  0.00  0.00    +0.000 C 
ATOM      9  C   UNL     1       6.311   6.811  15.798  0.00  0.00    +0.000 C 
ATOM     10  N   UNL     1       6.991   6.473  17.022  0.00  0.00    +0.000 N 
ATOM     11  C   UNL     1       7.729   7.258  17.869  0.00  0.00    +0.000 C 
ATOM     12  O   UNL     1       8.259   6.809  18.881  0.00  0.00    +0.000 OA
ATOM     13  N   UNL     1       7.821   8.577  17.524  0.00  0.00    +0.000 N 
ATOM     14  C   UNL     1       8.607   9.511  18.294  0.00  0.00    +0.000 C 
ATOM     15  C   UNL     1       6.938   5.045  17.232  0.00  0.00    +0.000 C 
ATOM     16  H   UNL     1       7.515   8.860  16.611  0.00  0.00    +0.000 HD
BRANCH   7  18
ATOM     17  C   UNL     1       5.923   3.843  13.955  0.00  0.00    +0.000 C 
ATOM     18  C   UNL     1       6.158   3.461  15.418  0.00  0.00    +0.000 C 
ENDBRANCH   7  18
ENDBRANCH   1   7
BRANCH   4  19
ATOM     19  S   UNL     1       2.008   5.583  20.285  0.00  0.00    +0.000 S 
ATOM     20  O   UNL     1       0.976   4.806  19.628  0.00  0.00    +0.000 OA
ATOM     21  O   UNL     1       2.609   5.131  21.521  0.00  0.00    +0.000 OA
BRANCH  19  22
ATOM     22  C   UNL     1       1.342   7.211  20.539  0.00  0.00    +0.000 A 
ATOM     23  C   UNL     1       0.500   7.447  21.626  0.00  0.00    +0.000 A 
ATOM     24  C   UNL     1      -0.106   8.695  21.759  0.00  0.00    +0.000 A 
ATOM     25  C   UNL     1       0.138   9.713  20.824  0.00  0.00    +0.000 A 
ATOM     26  C   UNL     1       1.014   9.480  19.746  0.00  0.00    +0.000 A 
ATOM     27  C   UNL     1       1.617   8.223  19.607  0.00  0.00    +0.000 A 
ATOM     28  C   UNL     1       1.367  10.581  18.773  0.00  0.00    +0.000 C 
ATOM     29  C   UNL     1       0.361  11.731  18.762  0.00  0.00    +0.000 C 
ATOM     30  C   UNL     1       0.012  12.160  20.181  0.00  0.00    +0.000 C 
ATOM     31  C   UNL     1      -0.631  11.007  20.944  0.00  0.00    +0.000 C 
ENDBRANCH  19  22
ENDBRANCH   4  19
TORSDOF 4
ENDMDL
MODEL 3
REMARK VINA RESULT:      -7.2      2.384      7.012
REMARK  Name = 
REMARK  6 active torsions:
REMARK  status: ('A' for Active; 'I' for Inactive)
REMARK    1  A    between atoms: C_1  and  C_2
REMARK    2  A    between atoms: C_2  and  C_3
REMARK    3  A    between atoms: C_3  and  N_4
REMARK    4  A    between atoms: N_7  and  S_8
REMARK    5  A    between atoms: S_8  and  C_11
REMARK    6  A    between atoms: N_28  and  C_29
REMARK                            x       y       z     vdW  Elec       q    Type
REMARK                         _______ _______ _______ _____ _____    ______ ____
ROOT
ATOM      1  N   UNL     1       4.614   3.886  17.385  0.00  0.00    +0.000 NA
ATOM      2  C   UNL     1       4.830   3.925  18.852  0.00  0.00    +0.000 C 
ATOM      3  C   UNL     1       4.581   5.277  19.550  0.00  0.00    +0.000 C 
ATOM      4  N   UNL     1       3.271   5.900  19.175  0.00  0.00    +0.000 NA
ATOM      5  C   UNL     1       2.896   5.752  17.733  0.00  0.00    +0.000 C 
ATOM      6  C   UNL     1       3.231   4.365  17.163  0.00  0.00    +0.000 C 
ENDROOT
BRANCH   1   7
ATOM      7  C   UNL     1       5.701   4.466  16.532  0.00  0.00    +0.000 C 
ATOM      8  C   UNL     1       5.230   5.712  15.701  0.00  0.00    +0.000 C 
ATOM      9  C   UNL     1       6.349   6.744  15.791  0.00  0.00    +0.000 C 
ATOM     10  N   UNL     1       7.016   6.437  17.031  0.00  0.00    +0.000 N 
ATOM     11  C   UNL     1       7.748   7.244  17.863  0.00  0.00    +0.000 C 
ATOM     12  O   UNL     1       8.267   6.821  18.892  0.00  0.00    +0.000 OA
ATOM     13  N   UNL     1       7.847   8.552  17.483  0.00  0.00    +0.000 N 
ATOM     14  C   UNL     1       8.628   9.506  18.234  0.00  0.00    +0.000 C 
ATOM     15  C   UNL     1       6.957   5.016  17.280  0.00  0.00    +0.000 C 
ATOM     16  H   UNL     1       7.551   8.810  16.559  0.00  0.00    +0.000 HD
BRANCH   7  18
ATOM     17  C   UNL     1       6.100   3.784  14.029  0.00  0.00    +0.000 C 
ATOM     18  C   UNL     1       6.189   3.384  15.504  0.00  0.00    +0.000 C 
ENDBRANCH   7  18
ENDBRANCH   1   7
BRANCH   4  19
ATOM     19  S   UNL     1       1.999   5.653  20.268  0.00  0.00    +0.000 S 
ATOM     20  O   UNL     1       0.989   4.827  19.637  0.00  0.00    +0.000 OA
ATOM     21  O   UNL     1       2.588   5.275  21.534  0.00  0.00    +0.000 OA
BRANCH  19  22
ATOM     22  C   UNL     1       1.302   7.280  20.429  0.00  0.00    +0.000 A 
ATOM     23  C   UNL     1       1.557   8.238  19.447  0.00  0.00    +0.000 A 
ATOM     24  C   UNL     1       1.100   9.541  19.631  0.00  0.00    +0.000 A 
ATOM     25  C   UNL     1       0.374   9.890  20.781  0.00  0.00    +0.000 A 
ATOM     26  C   UNL     1       0.090   8.911  21.754  0.00  0.00    +0.000 A 
ATOM     27  C   UNL     1       0.557   7.603  21.574  0.00  0.00    +0.000 A 
ATOM     28  C   UNL     1      -0.764   9.231  22.959  0.00  0.00    +0.000 C 
ATOM     29  C   UNL     1      -0.848  10.726  23.267  0.00  0.00    +0.000 C 
ATOM     30  C   UNL     1      -1.127  11.526  22.000  0.00  0.00    +0.000 C 
ATOM     31  C   UNL     1       0.001  11.338  20.992  0.00  0.00    +0.000 C 
ENDBRANCH  19  22
ENDBRANCH   4  19
TORSDOF 4
ENDMDL
MODEL 4
REMARK VINA RESULT:      -7.0      5.720      8.838
REMARK  Name = 
REMARK  6 active torsions:
REMARK  status: ('A' for Active; 'I' for Inactive)
REMARK    1  A    between atoms: C_1  and  C_2
REMARK    2  A    between atoms: C_2  and  C_3
REMARK    3  A    between atoms: C_3  and  N_4
REMARK    4  A    between atoms: N_7  and  S_8
REMARK    5  A    between atoms: S_8  and  C_11
REMARK    6  A    between atoms: N_28  and  C_29
REMARK                            x       y       z     vdW  Elec       q    Type
REMARK                         _______ _______ _______ _____ _____    ______ ____
ROOT
ATOM      1  N   UNL     1      -2.047  11.255  17.227  0.00  0.00    +0.000 NA
ATOM      2  C   UNL     1      -1.551  12.361  18.083  0.00  0.00    +0.000 C 
ATOM      3  C   UNL     1      -1.581  12.120  19.606  0.00  0.00    +0.000 C 
ATOM      4  N   UNL     1      -0.979  10.809  20.006  0.00  0.00    +0.000 NA
ATOM      5  C   UNL     1      -1.293   9.667  19.089  0.00  0.00    +0.000 C 
ATOM      6  C   UNL     1      -1.257  10.061  17.605  0.00  0.00    +0.000 C 
ENDROOT
BRANCH   1   7
ATOM      7  C   UNL     1      -3.534  11.105  17.121  0.00  0.00    +0.000 C 
ATOM      8  C   UNL     1      -4.064   9.777  17.769  0.00  0.00    +0.000 C 
ATOM      9  C   UNL     1      -5.326  10.145  18.542  0.00  0.00    +0.000 C 
ATOM     10  N   UNL     1      -5.147  11.535  18.874  0.00  0.00    +0.000 N 
ATOM     11  C   UNL     1      -5.668  12.272  19.907  0.00  0.00    +0.000 C 
ATOM     12  O   UNL     1      -5.422  13.466  20.047  0.00  0.00    +0.000 OA
ATOM     13  N   UNL     1      -6.462  11.586  20.781  0.00  0.00    +0.000 N 
ATOM     14  C   UNL     1      -7.120  12.241  21.886  0.00  0.00    +0.000 C 
ATOM     15  C   UNL     1      -4.398  12.195  17.830  0.00  0.00    +0.000 C 
ATOM     16  H   UNL     1      -6.766  10.661  20.534  0.00  0.00    +0.000 HD
BRANCH   7  18
ATOM     17  C   UNL     1      -3.093  10.180  14.705  0.00  0.00    +0.000 C 
ATOM     18  C   UNL     1      -3.946  11.076  15.605  0.00  0.00    +0.000 C 
ENDBRANCH   7  18
ENDBRANCH   1   7
BRANCH   4  19
ATOM     19  S   UNL     1       0.630  10.869  20.538  0.00  0.00    +0.000 S 
ATOM     20  O   UNL     1       1.376  11.769  19.682  0.00  0.00    +0.000 OA
ATOM     21  O   UNL     1       0.601  11.056  21.973  0.00  0.00    +0.000 OA
BRANCH  19  22
ATOM     22  C   UNL     1       1.218   9.228  20.190  0.00  0.00    +0.000 A 
ATOM     23  C   UNL     1       1.023   8.215  21.130  0.00  0.00    +0.000 A 
ATOM     24  C   UNL     1       1.580   6.958  20.902  0.00  0.00    +0.000 A 
ATOM     25  C   UNL     1       2.314   6.702  19.732  0.00  0.00    +0.000 A 
ATOM     26  C   UNL     1       2.479   7.718  18.771  0.00  0.00    +0.000 A 
ATOM     27  C   UNL     1       1.927   8.985  19.005  0.00  0.00    +0.000 A 
ATOM     28  C   UNL     1       3.186   7.450  17.463  0.00  0.00    +0.000 C 
ATOM     29  C   UNL     1       4.089   6.217  17.500  0.00  0.00    +0.000 C 
ATOM     30  C   UNL     1       3.371   5.037  18.142  0.00  0.00    +0.000 C 
ATOM     31  C   UNL     1       2.995   5.362  19.583  0.00  0.00    +0.000 C 
ENDBRANCH  19  22
ENDBRANCH   4  19
TORSDOF 4
ENDMDL
MODEL 5
REMARK VINA RESULT:      -6.8      7.747     11.841
REMARK  Name = 
REMARK  6 active torsions:
REMARK  status: ('A' for Active; 'I' for Inactive)
REMARK    1  A    between atoms: C_1  and  C_2
REMARK    2  A    between atoms: C_2  and  C_3
REMARK    3  A    between atoms: C_3  and  N_4
REMARK    4  A    between atoms: N_7  and  S_8
REMARK    5  A    between atoms: S_8  and  C_11
REMARK    6  A    between atoms: N_28  and  C_29
REMARK                            x       y       z     vdW  Elec       q    Type
REMARK                         _______ _______ _______ _____ _____    ______ ____
ROOT
ATOM      1  N   UNL     1      -5.534  14.738  20.880  0.00  0.00    +0.000 NA
ATOM      2  C   UNL     1      -5.338  14.425  22.317  0.00  0.00    +0.000 C 
ATOM      3  C   UNL     1      -4.777  13.027  22.647  0.00  0.00    +0.000 C 
ATOM      4  N   UNL     1      -3.566  12.673  21.840  0.00  0.00    +0.000 NA
ATOM      5  C   UNL     1      -3.614  13.112  20.409  0.00  0.00    +0.000 C 
ATOM      6  C   UNL     1      -4.225  14.510  20.229  0.00  0.00    +0.000 C 
ENDROOT
BRANCH   1   7
ATOM      7  C   UNL     1      -6.751  14.155  20.228  0.00  0.00    +0.000 C 
ATOM      8  C   UNL     1      -6.432  13.429  18.873  0.00  0.00    +0.000 C 
ATOM      9  C   UNL     1      -7.241  12.137  18.872  0.00  0.00    +0.000 C 
ATOM     10  N   UNL     1      -7.423  11.830  20.268  0.00  0.00    +0.000 N 
ATOM     11  C   UNL     1      -7.634  10.625  20.887  0.00  0.00    +0.000 C 
ATOM     12  O   UNL     1      -7.781  10.533  22.103  0.00  0.00    +0.000 OA
ATOM     13  N   UNL     1      -7.651   9.533  20.068  0.00  0.00    +0.000 N 
ATOM     14  C   UNL     1      -7.912   8.207  20.573  0.00  0.00    +0.000 C 
ATOM     15  C   UNL     1      -7.513  13.054  21.030  0.00  0.00    +0.000 C 
ATOM     16  H   UNL     1      -7.693   9.674  19.075  0.00  0.00    +0.000 HD
BRANCH   7  18
ATOM     17  C   UNL     1      -7.413  16.190  18.708  0.00  0.00    +0.000 C 
ATOM     18  C   UNL     1      -7.770  15.307  19.905  0.00  0.00    +0.000 C 
ENDBRANCH   7  18
ENDBRANCH   1   7
BRANCH   4  19
ATOM     19  S   UNL     1      -2.073  12.918  22.607  0.00  0.00    +0.000 S 
ATOM     20  O   UNL     1      -1.414  14.057  22.001  0.00  0.00    +0.000 OA
ATOM     21  O   UNL     1      -2.311  12.864  24.033  0.00  0.00    +0.000 OA
BRANCH  19  22
ATOM     22  C   UNL     1      -1.149  11.477  22.130  0.00  0.00    +0.000 A 
ATOM     23  C   UNL     1      -0.845  10.508  23.086  0.00  0.00    +0.000 A 
ATOM     24  C   UNL     1      -0.029   9.435  22.733  0.00  0.00    +0.000 A 
ATOM     25  C   UNL     1       0.472   9.316  21.427  0.00  0.00    +0.000 A 
ATOM     26  C   UNL     1       0.135  10.280  20.456  0.00  0.00    +0.000 A 
ATOM     27  C   UNL     1      -0.678  11.363  20.813  0.00  0.00    +0.000 A 
ATOM     28  C   UNL     1       0.583  10.133  19.021  0.00  0.00    +0.000 C 
ATOM     29  C   UNL     1       1.776   9.193  18.847  0.00  0.00    +0.000 C 
ATOM     30  C   UNL     1       1.569   7.904  19.632  0.00  0.00    +0.000 C 
ATOM     31  C   UNL     1       1.445   8.202  21.122  0.00  0.00    +0.000 C 
ENDBRANCH  19  22
ENDBRANCH   4  19
TORSDOF 4
ENDMDL
MODEL 6
REMARK VINA RESULT:      -6.8      5.258      9.453
REMARK  Name = 
REMARK  6 active torsions:
REMARK  status: ('A' for Active; 'I' for Inactive)
REMARK    1  A    between atoms: C_1  and  C_2
REMARK    2  A    between atoms: C_2  and  C_3
REMARK    3  A    between atoms: C_3  and  N_4
REMARK    4  A    between atoms: N_7  and  S_8
REMARK    5  A    between atoms: S_8  and  C_11
REMARK    6  A    between atoms: N_28  and  C_29
REMARK                            x       y       z     vdW  Elec       q    Type
REMARK                         _______ _______ _______ _____ _____    ______ ____
ROOT
ATOM      1  N   UNL     1      -0.504  14.375  20.585  0.00  0.00    +0.000 NA
ATOM      2  C   UNL     1      -1.193  13.476  19.626  0.00  0.00    +0.000 C 
ATOM      3  C   UNL     1      -0.311  12.450  18.888  0.00  0.00    +0.000 C 
ATOM      4  N   UNL     1       0.590  11.682  19.804  0.00  0.00    +0.000 NA
ATOM      5  C   UNL     1       1.194  12.488  20.912  0.00  0.00    +0.000 C 
ATOM      6  C   UNL     1       0.209  13.490  21.533  0.00  0.00    +0.000 C 
ENDROOT
BRANCH   1   7
ATOM      7  C   UNL     1       0.252  15.528  19.998  0.00  0.00    +0.000 C 
ATOM      8  C   UNL     1       1.078  16.327  21.068  0.00  0.00    +0.000 C 
ATOM      9  C   UNL     1       2.433  16.624  20.437  0.00  0.00    +0.000 C 
ATOM     10  N   UNL     1       2.614  15.572  19.470  0.00  0.00    +0.000 N 
ATOM     11  C   UNL     1       3.765  15.034  18.954  0.00  0.00    +0.000 C 
ATOM     12  O   UNL     1       3.748  14.135  18.118  0.00  0.00    +0.000 OA
ATOM     13  N   UNL     1       4.931  15.552  19.442  0.00  0.00    +0.000 N 
ATOM     14  C   UNL     1       6.218  15.119  18.954  0.00  0.00    +0.000 C 
ATOM     15  C   UNL     1       1.334  15.180  18.928  0.00  0.00    +0.000 C 
ATOM     16  H   UNL     1       4.894  16.390  19.993  0.00  0.00    +0.000 HD
BRANCH   7  18
ATOM     17  C   UNL     1      -0.374  17.065  17.965  0.00  0.00    +0.000 C 
ATOM     18  C   UNL     1      -0.761  16.537  19.348  0.00  0.00    +0.000 C 
ENDBRANCH   7  18
ENDBRANCH   1   7
BRANCH   4  19
ATOM     19  S   UNL     1       0.037  10.146  20.265  0.00  0.00    +0.000 S 
ATOM     20  O   UNL     1       0.184  10.003  21.699  0.00  0.00    +0.000 OA
ATOM     21  O   UNL     1      -1.243   9.942  19.622  0.00  0.00    +0.000 OA
BRANCH  19  22
ATOM     22  C   UNL     1       1.229   9.061  19.516  0.00  0.00    +0.000 A 
ATOM     23  C   UNL     1       1.775   9.391  18.276  0.00  0.00    +0.000 A 
ATOM     24  C   UNL     1       2.625   8.486  17.643  0.00  0.00    +0.000 A 
ATOM     25  C   UNL     1       2.947   7.262  18.250  0.00  0.00    +0.000 A 
ATOM     26  C   UNL     1       2.419   6.947  19.518  0.00  0.00    +0.000 A 
ATOM     27  C   UNL     1       1.557   7.853  20.150  0.00  0.00    +0.000 A 
ATOM     28  C   UNL     1       2.816   5.680  20.238  0.00  0.00    +0.000 C 
ATOM     29  C   UNL     1       3.389   4.607  19.312  0.00  0.00    +0.000 C 
ATOM     30  C   UNL     1       4.420   5.204  18.363  0.00  0.00    +0.000 C 
ATOM     31  C   UNL     1       3.777   6.265  17.477  0.00  0.00    +0.000 C 
ENDBRANCH  19  22
ENDBRANCH   4  19
TORSDOF 4
ENDMDL
MODEL 7
REMARK VINA RESULT:      -6.8      5.674      9.972
REMARK  Name = 
REMARK  6 active torsions:
REMARK  status: ('A' for Active; 'I' for Inactive)
REMARK    1  A    between atoms: C_1  and  C_2
REMARK    2  A    between atoms: C_2  and  C_3
REMARK    3  A    between atoms: C_3  and  N_4
REMARK    4  A    between atoms: N_7  and  S_8
REMARK    5  A    between atoms: S_8  and  C_11
REMARK    6  A    between atoms: N_28  and  C_29
REMARK                            x       y       z     vdW  Elec       q    Type
REMARK                         _______ _______ _______ _____ _____    ______ ____
ROOT
ATOM      1  N   UNL     1       1.106  15.399  20.705  0.00  0.00    +0.000 NA
ATOM      2  C   UNL     1      -0.185  14.962  20.118  0.00  0.00    +0.000 C 
ATOM      3  C   UNL     1      -0.112  13.884  19.017  0.00  0.00    +0.000 C 
ATOM      4  N   UNL     1       0.740  12.712  19.397  0.00  0.00    +0.000 NA
ATOM      5  C   UNL     1       1.986  13.060  20.151  0.00  0.00    +0.000 C 
ATOM      6  C   UNL     1       1.770  14.169  21.191  0.00  0.00    +0.000 C 
ENDROOT
BRANCH   1   7
ATOM      7  C   UNL     1       1.919  16.360  19.893  0.00  0.00    +0.000 C 
ATOM      8  C   UNL     1       2.986  17.134  20.747  0.00  0.00    +0.000 C 
ATOM      9  C   UNL     1       4.267  17.161  19.921  0.00  0.00    +0.000 C 
ATOM     10  N   UNL     1       4.169  15.999  19.075  0.00  0.00    +0.000 N 
ATOM     11  C   UNL     1       5.154  15.247  18.489  0.00  0.00    +0.000 C 
ATOM     12  O   UNL     1       4.901  14.279  17.778  0.00  0.00    +0.000 OA
ATOM     13  N   UNL     1       6.436  15.633  18.763  0.00  0.00    +0.000 N 
ATOM     14  C   UNL     1       7.573  14.967  18.175  0.00  0.00    +0.000 C 
ATOM     15  C   UNL     1       2.785  15.748  18.747  0.00  0.00    +0.000 C 
ATOM     16  H   UNL     1       6.588  16.520  19.208  0.00  0.00    +0.000 HD
BRANCH   7  18
ATOM     17  C   UNL     1       1.165  17.690  17.760  0.00  0.00    +0.000 C 
ATOM     18  C   UNL     1       0.969  17.436  19.256  0.00  0.00    +0.000 C 
ENDBRANCH   7  18
ENDBRANCH   1   7
BRANCH   4  19
ATOM     19  S   UNL     1      -0.092  11.358  19.988  0.00  0.00    +0.000 S 
ATOM     20  O   UNL     1      -0.048  11.373  21.436  0.00  0.00    +0.000 OA
ATOM     21  O   UNL     1      -1.353  11.288  19.280  0.00  0.00    +0.000 OA
BRANCH  19  22
ATOM     22  C   UNL     1       0.934  10.007  19.457  0.00  0.00    +0.000 A 
ATOM     23  C   UNL     1       1.535  10.054  18.199  0.00  0.00    +0.000 A 
ATOM     24  C   UNL     1       2.248   8.947  17.744  0.00  0.00    +0.000 A 
ATOM     25  C   UNL     1       2.381   7.801  18.544  0.00  0.00    +0.000 A 
ATOM     26  C   UNL     1       1.800   7.772  19.827  0.00  0.00    +0.000 A 
ATOM     27  C   UNL     1       1.075   8.881  20.282  0.00  0.00    +0.000 A 
ATOM     28  C   UNL     1       1.998   6.591  20.748  0.00  0.00    +0.000 C 
ATOM     29  C   UNL     1       2.416   5.313  20.021  0.00  0.00    +0.000 C 
ATOM     30  C   UNL     1       3.533   5.597  19.024  0.00  0.00    +0.000 C 
ATOM     31  C   UNL     1       3.062   6.586  17.963  0.00  0.00    +0.000 C 
ENDBRANCH  19  22
ENDBRANCH   4  19
TORSDOF 4
ENDMDL
MODEL 8
REMARK VINA RESULT:      -6.8      5.807      8.847
REMARK  Name = 
REMARK  6 active torsions:
REMARK  status: ('A' for Active; 'I' for Inactive)
REMARK    1  A    between atoms: C_1  and  C_2
REMARK    2  A    between atoms: C_2  and  C_3
REMARK    3  A    between atoms: C_3  and  N_4
REMARK    4  A    between atoms: N_7  and  S_8
REMARK    5  A    between atoms: S_8  and  C_11
REMARK    6  A    between atoms: N_28  and  C_29
REMARK                            x       y       z     vdW  Elec       q    Type
REMARK                         _______ _______ _______ _____ _____    ______ ____
ROOT
ATOM      1  N   UNL     1      -1.943  11.146  17.090  0.00  0.00    +0.000 NA
ATOM      2  C   UNL     1      -1.424  12.304  17.859  0.00  0.00    +0.000 C 
ATOM      3  C   UNL     1      -1.464  12.184  19.396  0.00  0.00    +0.000 C 
ATOM      4  N   UNL     1      -0.894  10.894  19.900  0.00  0.00    +0.000 NA
ATOM      5  C   UNL     1      -1.233   9.692  19.073  0.00  0.00    +0.000 C 
ATOM      6  C   UNL     1      -1.183   9.968  17.563  0.00  0.00    +0.000 C 
ENDROOT
BRANCH   1   7
ATOM      7  C   UNL     1      -3.433  11.023  16.988  0.00  0.00    +0.000 C 
ATOM      8  C   UNL     1      -3.987   9.713  17.653  0.00  0.00    +0.000 C 
ATOM      9  C   UNL     1      -5.239  10.114  18.424  0.00  0.00    +0.000 C 
ATOM     10  N   UNL     1      -5.034  11.504  18.740  0.00  0.00    +0.000 N 
ATOM     11  C   UNL     1      -5.538  12.262  19.765  0.00  0.00    +0.000 C 
ATOM     12  O   UNL     1      -5.269  13.453  19.890  0.00  0.00    +0.000 OA
ATOM     13  N   UNL     1      -6.344  11.601  20.648  0.00  0.00    +0.000 N 
ATOM     14  C   UNL     1      -6.986  12.282  21.747  0.00  0.00    +0.000 C 
ATOM     15  C   UNL     1      -4.275  12.137  17.686  0.00  0.00    +0.000 C 
ATOM     16  H   UNL     1      -6.665  10.680  20.413  0.00  0.00    +0.000 HD
BRANCH   7  18
ATOM     17  C   UNL     1      -3.035  10.039  14.588  0.00  0.00    +0.000 C 
ATOM     18  C   UNL     1      -3.849  10.984  15.474  0.00  0.00    +0.000 C 
ENDBRANCH   7  18
ENDBRANCH   1   7
BRANCH   4  19
ATOM     19  S   UNL     1       0.714  10.958  20.433  0.00  0.00    +0.000 S 
ATOM     20  O   UNL     1       1.381  12.068  19.785  0.00  0.00    +0.000 OA
ATOM     21  O   UNL     1       0.693  10.838  21.875  0.00  0.00    +0.000 OA
BRANCH  19  22
ATOM     22  C   UNL     1       1.411   9.472  19.750  0.00  0.00    +0.000 A 
ATOM     23  C   UNL     1       1.906   9.482  18.445  0.00  0.00    +0.000 A 
ATOM     24  C   UNL     1       2.351   8.291  17.877  0.00  0.00    +0.000 A 
ATOM     25  C   UNL     1       2.321   7.092  18.609  0.00  0.00    +0.000 A 
ATOM     26  C   UNL     1       1.851   7.094  19.937  0.00  0.00    +0.000 A 
ATOM     27  C   UNL     1       1.395   8.290  20.505  0.00  0.00    +0.000 A 
ATOM     28  C   UNL     1       1.889   5.841  20.781  0.00  0.00    +0.000 C 
ATOM     29  C   UNL     1       1.989   4.556  19.960  0.00  0.00    +0.000 C 
ATOM     30  C   UNL     1       3.056   4.684  18.880  0.00  0.00    +0.000 C 
ATOM     31  C   UNL     1       2.703   5.808  17.913  0.00  0.00    +0.000 C 
ENDBRANCH  19  22
ENDBRANCH   4  19
TORSDOF 4
ENDMDL
MODEL 9
REMARK VINA RESULT:      -6.6      5.429      9.491
REMARK  Name = 
REMARK  6 active torsions:
REMARK  status: ('A' for Active; 'I' for Inactive)
REMARK    1  A    between atoms: C_1  and  C_2
REMARK    2  A    between atoms: C_2  and  C_3
REMARK    3  A    between atoms: C_3  and  N_4
REMARK    4  A    between atoms: N_7  and  S_8
REMARK    5  A    between atoms: S_8  and  C_11
REMARK    6  A    between atoms: N_28  and  C_29
REMARK                            x       y       z     vdW  Elec       q    Type
REMARK                         _______ _______ _______ _____ _____    ______ ____
ROOT
ATOM      1  N   UNL     1       1.763  14.773  18.689  0.00  0.00    +0.000 NA
ATOM      2  C   UNL     1       1.846  13.537  17.873  0.00  0.00    +0.000 C 
ATOM      3  C   UNL     1       2.251  12.247  18.614  0.00  0.00    +0.000 C 
ATOM      4  N   UNL     1       1.467  12.019  19.869  0.00  0.00    +0.000 NA
ATOM      5  C   UNL     1       1.189  13.255  20.669  0.00  0.00    +0.000 C 
ATOM      6  C   UNL     1       0.830  14.468  19.797  0.00  0.00    +0.000 C 
ENDROOT
BRANCH   1   7
ATOM      7  C   UNL     1       3.061  15.440  19.030  0.00  0.00    +0.000 C 
ATOM      8  C   UNL     1       2.893  16.959  19.388  0.00  0.00    +0.000 C 
ATOM      9  C   UNL     1       3.780  17.220  20.601  0.00  0.00    +0.000 C 
ATOM     10  N   UNL     1       3.873  15.940  21.255  0.00  0.00    +0.000 N 
ATOM     11  C   UNL     1       4.112  15.636  22.571  0.00  0.00    +0.000 C 
ATOM     12  O   UNL     1       4.170  14.477  22.972  0.00  0.00    +0.000 OA
ATOM     13  N   UNL     1       4.260  16.705  23.408  0.00  0.00    +0.000 N 
ATOM     14  C   UNL     1       4.565  16.537  24.809  0.00  0.00    +0.000 C 
ATOM     15  C   UNL     1       3.826  14.883  20.272  0.00  0.00    +0.000 C 
ATOM     16  H   UNL     1       4.370  17.619  23.009  0.00  0.00    +0.000 HD
BRANCH   7  18
ATOM     17  C   UNL     1       5.471  14.963  18.106  0.00  0.00    +0.000 C 
ATOM     18  C   UNL     1       4.026  15.361  17.794  0.00  0.00    +0.000 C 
ENDBRANCH   7  18
ENDBRANCH   1   7
BRANCH   4  19
ATOM     19  S   UNL     1       0.156  10.952  19.735  0.00  0.00    +0.000 S 
ATOM     20  O   UNL     1      -0.621  11.004  20.957  0.00  0.00    +0.000 OA
ATOM     21  O   UNL     1      -0.460  11.190  18.447  0.00  0.00    +0.000 OA
BRANCH  19  22
ATOM     22  C   UNL     1       0.950   9.362  19.700  0.00  0.00    +0.000 A 
ATOM     23  C   UNL     1       0.865   8.527  20.814  0.00  0.00    +0.000 A 
ATOM     24  C   UNL     1       1.578   7.330  20.824  0.00  0.00    +0.000 A 
ATOM     25  C   UNL     1       2.361   6.953  19.721  0.00  0.00    +0.000 A 
ATOM     26  C   UNL     1       2.417   7.784  18.584  0.00  0.00    +0.000 A 
ATOM     27  C   UNL     1       1.707   8.992  18.578  0.00  0.00    +0.000 A 
ATOM     28  C   UNL     1       3.176   7.367  17.347  0.00  0.00    +0.000 C 
ATOM     29  C   UNL     1       4.225   6.287  17.611  0.00  0.00    +0.000 C 
ATOM     30  C   UNL     1       3.647   5.167  18.467  0.00  0.00    +0.000 C 
ATOM     31  C   UNL     1       3.206   5.707  19.823  0.00  0.00    +0.000 C 
ENDBRANCH  19  22
ENDBRANCH   4  19
TORSDOF 4
ENDMDL
