MODEL 1
REMARK VINA RESULT:      -7.5      0.000      0.000
REMARK  Name = 
REMARK  4 active torsions:
REMARK  status: ('A' for Active; 'I' for Inactive)
REMARK    1  A    between atoms: C_2  and  C_3
REMARK    2  A    between atoms: C_2  and  C_22
REMARK    3  A    between atoms: N_5  and  C_6
REMARK    4  A    between atoms: C_6  and  C_7
REMARK                            x       y       z     vdW  Elec       q    Type
REMARK                         _______ _______ _______ _____ _____    ______ ____
ROOT
ATOM      1  C   UNL     1      -3.358  13.405  21.106  0.00  0.00    +0.000 A 
ATOM      2  C   UNL     1      -4.202  13.056  20.119  0.00  0.00    +0.000 A 
ATOM      3  N   UNL     1      -5.557  12.753  20.240  0.00  0.00    +0.000 N 
ATOM      4  C   UNL     1      -6.120  12.703  21.539  0.00  0.00    +0.000 A 
ATOM      5  C   UNL     1      -7.421  12.253  21.818  0.00  0.00    +0.000 A 
ATOM      6  C   UNL     1      -7.910  12.175  23.130  0.00  0.00    +0.000 A 
ATOM      7  C   UNL     1      -7.117  12.564  24.202  0.00  0.00    +0.000 A 
ATOM      8  C   UNL     1      -5.837  13.046  23.962  0.00  0.00    +0.000 A 
ATOM      9  C   UNL     1      -5.350  13.117  22.647  0.00  0.00    +0.000 A 
ATOM     10  C   UNL     1      -3.978  13.631  22.434  0.00  0.00    +0.000 A 
ATOM     11  O   UNL     1      -3.383  14.212  23.337  0.00  0.00    +0.000 OA
ENDROOT
BRANCH   1  13
ATOM     12  O   UNL     1      -1.300  14.535  20.905  0.00  0.00    +0.000 OA
ATOM     13  C   UNL     1      -1.899  13.469  20.792  0.00  0.00    +0.000 C 
BRANCH  13  14
ATOM     14  C   UNL     1      -1.204  12.261  20.218  0.00  0.00    +0.000 A 
ATOM     15  C   UNL     1      -0.910  12.254  18.840  0.00  0.00    +0.000 A 
ATOM     16  C   UNL     1      -0.330  11.148  18.233  0.00  0.00    +0.000 A 
ATOM     17  C   UNL     1       0.051  10.062  19.007  0.00  0.00    +0.000 A 
ATOM     18  C   UNL     1      -0.120  10.075  20.397  0.00  0.00    +0.000 A 
ATOM     19  C   UNL     1       0.370   8.994  21.145  0.00  0.00    +0.000 A 
ATOM     20  C   UNL     1       0.248   8.965  22.531  0.00  0.00    +0.000 A 
ATOM     21  C   UNL     1      -0.399  10.005  23.182  0.00  0.00    +0.000 A 
ATOM     22  C   UNL     1      -0.910  11.080  22.445  0.00  0.00    +0.000 A 
ATOM     23  C   UNL     1      -0.767  11.171  21.036  0.00  0.00    +0.000 A 
ENDBRANCH  13  14
ENDBRANCH   1  13
BRANCH   3  24
ATOM     24  C   UNL     1      -6.293  12.167  19.092  0.00  0.00    +0.000 C 
BRANCH  24  25
ATOM     25  C   UNL     1      -5.358  11.461  18.123  0.00  0.00    +0.000 A 
ATOM     26  C   UNL     1      -4.638  10.323  18.521  0.00  0.00    +0.000 A 
ATOM     27  C   UNL     1      -3.692   9.744  17.669  0.00  0.00    +0.000 A 
ATOM     28  C   UNL     1      -3.474  10.286  16.405  0.00  0.00    +0.000 A 
ATOM     29 CL   UNL     1      -2.266   9.614  15.382  0.00  0.00    +0.000 Cl
ATOM     30  C   UNL     1      -4.222  11.372  15.968  0.00  0.00    +0.000 A 
ATOM     31  C   UNL     1      -5.167  11.951  16.820  0.00  0.00    +0.000 A 
ENDBRANCH  24  25
ENDBRANCH   3  24
TORSDOF 4
ENDMDL
MODEL 2
REMARK VINA RESULT:      -7.2      3.074      7.090
REMARK  Name = 
REMARK  4 active torsions:
REMARK  status: ('A' for Active; 'I' for Inactive)
REMARK    1  A    between atoms: C_2  and  C_3
REMARK    2  A    between atoms: C_2  and  C_22
REMARK    3  A    between atoms: N_5  and  C_6
REMARK    4  A    between atoms: C_6  and  C_7
REMARK                            x       y       z     vdW  Elec       q    Type
REMARK                         _______ _______ _______ _____ _____    ______ ____
ROOT
ATOM      1  C   UNL     1      -3.569  11.670  17.893  0.00  0.00    +0.000 A 
ATOM      2  C   UNL     1      -3.004  12.552  18.736  0.00  0.00    +0.000 A 
ATOM      3  N   UNL     1      -1.687  12.557  19.189  0.00  0.00    +0.000 N 
ATOM      4  C   UNL     1      -0.846  11.478  18.819  0.00  0.00    +0.000 A 
ATOM      5  C   UNL     1       0.445  11.271  19.333  0.00  0.00    +0.000 A 
ATOM      6  C   UNL     1       1.214  10.156  18.971  0.00  0.00    +0.000 A 
ATOM      7  C   UNL     1       0.722   9.223  18.068  0.00  0.00    +0.000 A 
ATOM      8  C   UNL     1      -0.538   9.413  17.512  0.00  0.00    +0.000 A 
ATOM      9  C   UNL     1      -1.306  10.528  17.881  0.00  0.00    +0.000 A 
ATOM     10  C   UNL     1      -2.644  10.691  17.271  0.00  0.00    +0.000 A 
ATOM     11  O   UNL     1      -2.968  10.024  16.293  0.00  0.00    +0.000 OA
ENDROOT
BRANCH   1  13
ATOM     12  O   UNL     1      -5.526  12.271  16.726  0.00  0.00    +0.000 OA
ATOM     13  C   UNL     1      -5.051  11.719  17.715  0.00  0.00    +0.000 C 
BRANCH  13  14
ATOM     14  C   UNL     1      -5.954  11.206  18.808  0.00  0.00    +0.000 A 
ATOM     15  C   UNL     1      -6.174   9.817  18.892  0.00  0.00    +0.000 A 
ATOM     16  C   UNL     1      -7.046   9.281  19.831  0.00  0.00    +0.000 A 
ATOM     17  C   UNL     1      -7.643  10.114  20.765  0.00  0.00    +0.000 A 
ATOM     18  C   UNL     1      -7.363  11.486  20.788  0.00  0.00    +0.000 A 
ATOM     19  C   UNL     1      -7.916  12.269  21.812  0.00  0.00    +0.000 A 
ATOM     20  C   UNL     1      -7.653  13.633  21.897  0.00  0.00    +0.000 A 
ATOM     21  C   UNL     1      -6.858  14.236  20.934  0.00  0.00    +0.000 A 
ATOM     22  C   UNL     1      -6.315  13.470  19.896  0.00  0.00    +0.000 A 
ATOM     23  C   UNL     1      -6.521  12.069  19.798  0.00  0.00    +0.000 A 
ENDBRANCH  13  14
ENDBRANCH   1  13
BRANCH   3  24
ATOM     24  C   UNL     1      -1.282  13.464  20.292  0.00  0.00    +0.000 C 
BRANCH  24  25
ATOM     25  C   UNL     1      -2.093  13.214  21.554  0.00  0.00    +0.000 A 
ATOM     26  C   UNL     1      -1.825  12.104  22.371  0.00  0.00    +0.000 A 
ATOM     27  C   UNL     1      -2.643  11.810  23.465  0.00  0.00    +0.000 A 
ATOM     28  C   UNL     1      -3.724  12.635  23.764  0.00  0.00    +0.000 A 
ATOM     29 CL   UNL     1      -4.769  12.239  25.071  0.00  0.00    +0.000 Cl
ATOM     30  C   UNL     1      -3.968  13.775  23.007  0.00  0.00    +0.000 A 
ATOM     31  C   UNL     1      -3.150  14.068  21.913  0.00  0.00    +0.000 A 
ENDBRANCH  24  25
ENDBRANCH   3  24
TORSDOF 4
ENDMDL
MODEL 3
REMARK VINA RESULT:      -7.2      6.490     10.241
REMARK  Name = 
REMARK  4 active torsions:
REMARK  status: ('A' for Active; 'I' for Inactive)
REMARK    1  A    between atoms: C_2  and  C_3
REMARK    2  A    between atoms: C_2  and  C_22
REMARK    3  A    between atoms: N_5  and  C_6
REMARK    4  A    between atoms: C_6  and  C_7
REMARK                            x       y       z     vdW  Elec       q    Type
REMARK                         _______ _______ _______ _____ _____    ______ ____
ROOT
ATOM      1  C   UNL     1       2.581   6.661  19.035  0.00  0.00    +0.000 A 
ATOM      2  C   UNL     1       3.774   6.283  18.543  0.00  0.00    +0.000 A 
ATOM      3  N   UNL     1       4.423   5.067  18.752  0.00  0.00    +0.000 N 
ATOM      4  C   UNL     1       3.839   4.142  19.652  0.00  0.00    +0.000 A 
ATOM      5  C   UNL     1       4.461   2.957  20.079  0.00  0.00    +0.000 A 
ATOM      6  C   UNL     1       3.859   2.101  21.013  0.00  0.00    +0.000 A 
ATOM      7  C   UNL     1       2.605   2.396  21.532  0.00  0.00    +0.000 A 
ATOM      8  C   UNL     1       1.944   3.541  21.107  0.00  0.00    +0.000 A 
ATOM      9  C   UNL     1       2.554   4.397  20.176  0.00  0.00    +0.000 A 
ATOM     10  C   UNL     1       1.819   5.611  19.753  0.00  0.00    +0.000 A 
ATOM     11  O   UNL     1       0.624   5.735  20.005  0.00  0.00    +0.000 OA
ENDROOT
BRANCH   1  13
ATOM     12  O   UNL     1       2.563   8.721  17.892  0.00  0.00    +0.000 OA
ATOM     13  C   UNL     1       2.175   8.089  18.871  0.00  0.00    +0.000 C 
BRANCH  13  14
ATOM     14  C   UNL     1       1.402   8.779  19.965  0.00  0.00    +0.000 A 
ATOM     15  C   UNL     1       1.789   8.547  21.301  0.00  0.00    +0.000 A 
ATOM     16  C   UNL     1       1.080   9.096  22.361  0.00  0.00    +0.000 A 
ATOM     17  C   UNL     1       0.027   9.963  22.106  0.00  0.00    +0.000 A 
ATOM     18  C   UNL     1      -0.317  10.309  20.794  0.00  0.00    +0.000 A 
ATOM     19  C   UNL     1      -1.325  11.264  20.592  0.00  0.00    +0.000 A 
ATOM     20  C   UNL     1      -1.693  11.662  19.310  0.00  0.00    +0.000 A 
ATOM     21  C   UNL     1      -1.076  11.081  18.212  0.00  0.00    +0.000 A 
ATOM     22  C   UNL     1      -0.082  10.113  18.399  0.00  0.00    +0.000 A 
ATOM     23  C   UNL     1       0.353   9.712  19.688  0.00  0.00    +0.000 A 
ENDBRANCH  13  14
ENDBRANCH   1  13
BRANCH   3  24
ATOM     24  C   UNL     1       5.833   4.894  18.325  0.00  0.00    +0.000 C 
BRANCH  24  25
ATOM     25  C   UNL     1       5.948   4.700  16.821  0.00  0.00    +0.000 A 
ATOM     26  C   UNL     1       4.935   4.045  16.103  0.00  0.00    +0.000 A 
ATOM     27  C   UNL     1       5.093   3.764  14.743  0.00  0.00    +0.000 A 
ATOM     28  C   UNL     1       6.257   4.154  14.085  0.00  0.00    +0.000 A 
ATOM     29 CL   UNL     1       6.481   3.752  12.428  0.00  0.00    +0.000 Cl
ATOM     30  C   UNL     1       7.244   4.860  14.763  0.00  0.00    +0.000 A 
ATOM     31  C   UNL     1       7.085   5.141  16.123  0.00  0.00    +0.000 A 
ENDBRANCH  24  25
ENDBRANCH   3  24
TORSDOF 4
ENDMDL
MODEL 4
REMARK VINA RESULT:      -7.1      6.178     10.177
REMARK  Name = 
REMARK  4 active torsions:
REMARK  status: ('A' for Active; 'I' for Inactive)
REMARK    1  A    between atoms: C_2  and  C_3
REMARK    2  A    between atoms: C_2  and  C_22
REMARK    3  A    between atoms: N_5  and  C_6
REMARK    4  A    between atoms: C_6  and  C_7
REMARK                            x       y       z     vdW  Elec       q    Type
REMARK                         _______ _______ _______ _____ _____    ______ ____
ROOT
ATOM      1  C   UNL     1       2.411   6.704  19.020  0.00  0.00    +0.000 A 
ATOM      2  C   UNL     1       3.421   6.222  18.274  0.00  0.00    +0.000 A 
ATOM      3  N   UNL     1       4.015   4.965  18.374  0.00  0.00    +0.000 N 
ATOM      4  C   UNL     1       3.602   4.111  19.426  0.00  0.00    +0.000 A 
ATOM      5  C   UNL     1       4.225   2.892  19.743  0.00  0.00    +0.000 A 
ATOM      6  C   UNL     1       3.807   2.109  20.829  0.00  0.00    +0.000 A 
ATOM      7  C   UNL     1       2.739   2.514  21.619  0.00  0.00    +0.000 A 
ATOM      8  C   UNL     1       2.076   3.696  21.315  0.00  0.00    +0.000 A 
ATOM      9  C   UNL     1       2.502   4.479  20.230  0.00  0.00    +0.000 A 
ATOM     10  C   UNL     1       1.773   5.735  19.943  0.00  0.00    +0.000 A 
ATOM     11  O   UNL     1       0.686   5.958  20.467  0.00  0.00    +0.000 OA
ENDROOT
BRANCH   1  13
ATOM     12  O   UNL     1       2.505   8.796  17.939  0.00  0.00    +0.000 OA
ATOM     13  C   UNL     1       2.078   8.155  18.896  0.00  0.00    +0.000 C 
BRANCH  13  14
ATOM     14  C   UNL     1       1.331   8.849  20.005  0.00  0.00    +0.000 A 
ATOM     15  C   UNL     1       1.743   8.616  21.332  0.00  0.00    +0.000 A 
ATOM     16  C   UNL     1       1.058   9.170  22.407  0.00  0.00    +0.000 A 
ATOM     17  C   UNL     1       0.005  10.041  22.172  0.00  0.00    +0.000 A 
ATOM     18  C   UNL     1      -0.364  10.389  20.867  0.00  0.00    +0.000 A 
ATOM     19  C   UNL     1      -1.370  11.349  20.685  0.00  0.00    +0.000 A 
ATOM     20  C   UNL     1      -1.761  11.749  19.411  0.00  0.00    +0.000 A 
ATOM     21  C   UNL     1      -1.170  11.164  18.301  0.00  0.00    +0.000 A 
ATOM     22  C   UNL     1      -0.178  10.191  18.468  0.00  0.00    +0.000 A 
ATOM     23  C   UNL     1       0.281   9.788  19.749  0.00  0.00    +0.000 A 
ENDBRANCH  13  14
ENDBRANCH   1  13
BRANCH   3  24
ATOM     24  C   UNL     1       5.265   4.672  17.631  0.00  0.00    +0.000 C 
BRANCH  24  25
ATOM     25  C   UNL     1       6.307   5.763  17.826  0.00  0.00    +0.000 A 
ATOM     26  C   UNL     1       7.292   5.644  18.821  0.00  0.00    +0.000 A 
ATOM     27  C   UNL     1       8.175   6.696  19.078  0.00  0.00    +0.000 A 
ATOM     28  C   UNL     1       8.096   7.867  18.328  0.00  0.00    +0.000 A 
ATOM     29 CL   UNL     1       9.139   9.186  18.686  0.00  0.00    +0.000 Cl
ATOM     30  C   UNL     1       7.171   7.980  17.297  0.00  0.00    +0.000 A 
ATOM     31  C   UNL     1       6.287   6.928  17.041  0.00  0.00    +0.000 A 
ENDBRANCH  24  25
ENDBRANCH   3  24
TORSDOF 4
ENDMDL
MODEL 5
REMARK VINA RESULT:      -7.0      9.014     11.158
REMARK  Name = 
REMARK  4 active torsions:
REMARK  status: ('A' for Active; 'I' for Inactive)
REMARK    1  A    between atoms: C_2  and  C_3
REMARK    2  A    between atoms: C_2  and  C_22
REMARK    3  A    between atoms: N_5  and  C_6
REMARK    4  A    between atoms: C_6  and  C_7
REMARK                            x       y       z     vdW  Elec       q    Type
REMARK                         _______ _______ _______ _____ _____    ______ ____
ROOT
ATOM      1  C   UNL     1       5.684  14.786  21.551  0.00  0.00    +0.000 A 
ATOM      2  C   UNL     1       6.004  15.007  20.263  0.00  0.00    +0.000 A 
ATOM      3  N   UNL     1       5.156  14.926  19.160  0.00  0.00    +0.000 N 
ATOM      4  C   UNL     1       3.830  14.472  19.366  0.00  0.00    +0.000 A 
ATOM      5  C   UNL     1       2.924  14.188  18.330  0.00  0.00    +0.000 A 
ATOM      6  C   UNL     1       1.639  13.690  18.588  0.00  0.00    +0.000 A 
ATOM      7  C   UNL     1       1.214  13.480  19.894  0.00  0.00    +0.000 A 
ATOM      8  C   UNL     1       2.070  13.782  20.945  0.00  0.00    +0.000 A 
ATOM      9  C   UNL     1       3.358  14.276  20.681  0.00  0.00    +0.000 A 
ATOM     10  C   UNL     1       4.241  14.579  21.829  0.00  0.00    +0.000 A 
ATOM     11  O   UNL     1       3.785  14.644  22.966  0.00  0.00    +0.000 OA
ENDROOT
BRANCH   1  13
ATOM     12  O   UNL     1       6.531  14.593  23.741  0.00  0.00    +0.000 OA
ATOM     13  C   UNL     1       6.794  14.707  22.546  0.00  0.00    +0.000 C 
BRANCH  13  14
ATOM     14  C   UNL     1       8.219  14.894  22.095  0.00  0.00    +0.000 A 
ATOM     15  C   UNL     1       8.820  16.154  22.292  0.00  0.00    +0.000 A 
ATOM     16  C   UNL     1      10.107  16.416  21.841  0.00  0.00    +0.000 A 
ATOM     17  C   UNL     1      10.853  15.398  21.265  0.00  0.00    +0.000 A 
ATOM     18  C   UNL     1      10.334  14.102  21.153  0.00  0.00    +0.000 A 
ATOM     19  C   UNL     1      11.163  13.087  20.653  0.00  0.00    +0.000 A 
ATOM     20  C   UNL     1      10.707  11.777  20.541  0.00  0.00    +0.000 A 
ATOM     21  C   UNL     1       9.401  11.475  20.897  0.00  0.00    +0.000 A 
ATOM     22  C   UNL     1       8.558  12.483  21.379  0.00  0.00    +0.000 A 
ATOM     23  C   UNL     1       8.996  13.822  21.551  0.00  0.00    +0.000 A 
ENDBRANCH  13  14
ENDBRANCH   1  13
BRANCH   3  24
ATOM     24  C   UNL     1       5.716  14.978  17.787  0.00  0.00    +0.000 C 
BRANCH  24  25
ATOM     25  C   UNL     1       7.215  14.719  17.778  0.00  0.00    +0.000 A 
ATOM     26  C   UNL     1       8.126  15.784  17.872  0.00  0.00    +0.000 A 
ATOM     27  C   UNL     1       9.500  15.558  17.746  0.00  0.00    +0.000 A 
ATOM     28  C   UNL     1       9.975  14.264  17.547  0.00  0.00    +0.000 A 
ATOM     29 CL   UNL     1      11.659  13.994  17.328  0.00  0.00    +0.000 Cl
ATOM     30  C   UNL     1       9.094  13.190  17.516  0.00  0.00    +0.000 A 
ATOM     31  C   UNL     1       7.721  13.416  17.641  0.00  0.00    +0.000 A 
ENDBRANCH  24  25
ENDBRANCH   3  24
TORSDOF 4
ENDMDL
MODEL 6
REMARK VINA RESULT:      -6.9      3.624      6.467
REMARK  Name = 
REMARK  4 active torsions:
REMARK  status: ('A' for Active; 'I' for Inactive)
REMARK    1  A    between atoms: C_2  and  C_3
REMARK    2  A    between atoms: C_2  and  C_22
REMARK    3  A    between atoms: N_5  and  C_6
REMARK    4  A    between atoms: C_6  and  C_7
REMARK                            x       y       z     vdW  Elec       q    Type
REMARK                         _______ _______ _______ _____ _____    ______ ____
ROOT
ATOM      1  C   UNL     1       0.039  13.368  18.810  0.00  0.00    +0.000 A 
ATOM      2  C   UNL     1      -0.794  14.255  19.383  0.00  0.00    +0.000 A 
ATOM      3  N   UNL     1      -0.462  15.500  19.912  0.00  0.00    +0.000 N 
ATOM      4  C   UNL     1       0.906  15.866  19.958  0.00  0.00    +0.000 A 
ATOM      5  C   UNL     1       1.396  17.011  20.608  0.00  0.00    +0.000 A 
ATOM      6  C   UNL     1       2.767  17.298  20.667  0.00  0.00    +0.000 A 
ATOM      7  C   UNL     1       3.689  16.457  20.057  0.00  0.00    +0.000 A 
ATOM      8  C   UNL     1       3.240  15.334  19.375  0.00  0.00    +0.000 A 
ATOM      9  C   UNL     1       1.866  15.048  19.324  0.00  0.00    +0.000 A 
ATOM     10  C   UNL     1       1.429  13.838  18.592  0.00  0.00    +0.000 A 
ATOM     11  O   UNL     1       2.202  13.248  17.844  0.00  0.00    +0.000 OA
ENDROOT
BRANCH   1  13
ATOM     12  O   UNL     1      -1.508  11.878  17.841  0.00  0.00    +0.000 OA
ATOM     13  C   UNL     1      -0.487  12.002  18.512  0.00  0.00    +0.000 C 
BRANCH  13  14
ATOM     14  C   UNL     1       0.162  10.796  19.141  0.00  0.00    +0.000 A 
ATOM     15  C   UNL     1       1.047  10.032  18.355  0.00  0.00    +0.000 A 
ATOM     16  C   UNL     1       1.629   8.871  18.848  0.00  0.00    +0.000 A 
ATOM     17  C   UNL     1       1.410   8.501  20.167  0.00  0.00    +0.000 A 
ATOM     18  C   UNL     1       0.628   9.295  21.015  0.00  0.00    +0.000 A 
ATOM     19  C   UNL     1       0.517   8.929  22.365  0.00  0.00    +0.000 A 
ATOM     20  C   UNL     1      -0.228   9.693  23.258  0.00  0.00    +0.000 A 
ATOM     21  C   UNL     1      -0.901  10.816  22.800  0.00  0.00    +0.000 A 
ATOM     22  C   UNL     1      -0.814  11.181  21.451  0.00  0.00    +0.000 A 
ATOM     23  C   UNL     1      -0.029  10.456  20.517  0.00  0.00    +0.000 A 
ENDBRANCH  13  14
ENDBRANCH   1  13
BRANCH   3  24
ATOM     24  C   UNL     1      -1.456  16.258  20.711  0.00  0.00    +0.000 C 
BRANCH  24  25
ATOM     25  C   UNL     1      -2.156  15.372  21.730  0.00  0.00    +0.000 A 
ATOM     26  C   UNL     1      -1.505  14.989  22.914  0.00  0.00    +0.000 A 
ATOM     27  C   UNL     1      -2.103  14.081  23.794  0.00  0.00    +0.000 A 
ATOM     28  C   UNL     1      -3.364  13.566  23.508  0.00  0.00    +0.000 A 
ATOM     29 CL   UNL     1      -4.072  12.402  24.556  0.00  0.00    +0.000 Cl
ATOM     30  C   UNL     1      -4.052  13.982  22.374  0.00  0.00    +0.000 A 
ATOM     31  C   UNL     1      -3.454  14.889  21.495  0.00  0.00    +0.000 A 
ENDBRANCH  24  25
ENDBRANCH   3  24
TORSDOF 4
ENDMDL
MODEL 7
REMARK VINA RESULT:      -6.9      3.731      6.817
REMARK  Name = 
REMARK  4 active torsions:
REMARK  status: ('A' for Active; 'I' for Inactive)
REMARK    1  A    between atoms: C_2  and  C_3
REMARK    2  A    between atoms: C_2  and  C_22
REMARK    3  A    between atoms: N_5  and  C_6
REMARK    4  A    between atoms: C_6  and  C_7
REMARK                            x       y       z     vdW  Elec       q    Type
REMARK                         _______ _______ _______ _____ _____    ______ ____
ROOT
ATOM      1  C   UNL     1       0.298  12.626  18.800  0.00  0.00    +0.000 A 
ATOM      2  C   UNL     1      -0.541  13.582  19.236  0.00  0.00    +0.000 A 
ATOM      3  N   UNL     1      -0.212  14.882  19.613  0.00  0.00    +0.000 N 
ATOM      4  C   UNL     1       1.157  15.244  19.647  0.00  0.00    +0.000 A 
ATOM      5  C   UNL     1       1.639  16.460  20.161  0.00  0.00    +0.000 A 
ATOM      6  C   UNL     1       3.011  16.745  20.218  0.00  0.00    +0.000 A 
ATOM      7  C   UNL     1       3.942  15.830  19.744  0.00  0.00    +0.000 A 
ATOM      8  C   UNL     1       3.500  14.631  19.196  0.00  0.00    +0.000 A 
ATOM      9  C   UNL     1       2.126  14.349  19.146  0.00  0.00    +0.000 A 
ATOM     10  C   UNL     1       1.697  13.058  18.561  0.00  0.00    +0.000 A 
ATOM     11  O   UNL     1       2.484  12.375  17.913  0.00  0.00    +0.000 OA
ENDROOT
BRANCH   1  13
ATOM     12  O   UNL     1      -1.127  11.005  17.855  0.00  0.00    +0.000 OA
ATOM     13  C   UNL     1      -0.231  11.237  18.663  0.00  0.00    +0.000 C 
BRANCH  13  14
ATOM     14  C   UNL     1       0.245  10.158  19.602  0.00  0.00    +0.000 A 
ATOM     15  C   UNL     1      -0.302  10.118  20.901  0.00  0.00    +0.000 A 
ATOM     16  C   UNL     1       0.139   9.193  21.839  0.00  0.00    +0.000 A 
ATOM     17  C   UNL     1       1.067   8.231  21.470  0.00  0.00    +0.000 A 
ATOM     18  C   UNL     1       1.551   8.166  20.157  0.00  0.00    +0.000 A 
ATOM     19  C   UNL     1       2.414   7.115  19.810  0.00  0.00    +0.000 A 
ATOM     20  C   UNL     1       2.907   6.988  18.515  0.00  0.00    +0.000 A 
ATOM     21  C   UNL     1       2.568   7.934  17.559  0.00  0.00    +0.000 A 
ATOM     22  C   UNL     1       1.723   8.998  17.897  0.00  0.00    +0.000 A 
ATOM     23  C   UNL     1       1.163   9.139  19.193  0.00  0.00    +0.000 A 
ENDBRANCH  13  14
ENDBRANCH   1  13
BRANCH   3  24
ATOM     24  C   UNL     1      -1.220  15.740  20.284  0.00  0.00    +0.000 C 
BRANCH  24  25
ATOM     25  C   UNL     1      -1.952  14.993  21.389  0.00  0.00    +0.000 A 
ATOM     26  C   UNL     1      -1.256  14.509  22.509  0.00  0.00    +0.000 A 
ATOM     27  C   UNL     1      -1.906  13.723  23.466  0.00  0.00    +0.000 A 
ATOM     28  C   UNL     1      -3.260  13.432  23.321  0.00  0.00    +0.000 A 
ATOM     29 CL   UNL     1      -4.043  12.412  24.462  0.00  0.00    +0.000 Cl
ATOM     30  C   UNL     1      -3.980  13.955  22.254  0.00  0.00    +0.000 A 
ATOM     31  C   UNL     1      -3.331  14.740  21.297  0.00  0.00    +0.000 A 
ENDBRANCH  24  25
ENDBRANCH   3  24
TORSDOF 4
ENDMDL
MODEL 8
REMARK VINA RESULT:      -6.9      3.309      7.090
REMARK  Name = 
REMARK  4 active torsions:
REMARK  status: ('A' for Active; 'I' for Inactive)
REMARK    1  A    between atoms: C_2  and  C_3
REMARK    2  A    between atoms: C_2  and  C_22
REMARK    3  A    between atoms: N_5  and  C_6
REMARK    4  A    between atoms: C_6  and  C_7
REMARK                            x       y       z     vdW  Elec       q    Type
REMARK                         _______ _______ _______ _____ _____    ______ ____
ROOT
ATOM      1  C   UNL     1      -0.569  12.270  21.568  0.00  0.00    +0.000 A 
ATOM      2  C   UNL     1      -0.387  11.324  20.630  0.00  0.00    +0.000 A 
ATOM      3  N   UNL     1       0.546  11.335  19.595  0.00  0.00    +0.000 N 
ATOM      4  C   UNL     1       1.342  12.494  19.421  0.00  0.00    +0.000 A 
ATOM      5  C   UNL     1       2.200  12.706  18.329  0.00  0.00    +0.000 A 
ATOM      6  C   UNL     1       2.926  13.896  18.180  0.00  0.00    +0.000 A 
ATOM      7  C   UNL     1       2.831  14.903  19.132  0.00  0.00    +0.000 A 
ATOM      8  C   UNL     1       2.019  14.716  20.243  0.00  0.00    +0.000 A 
ATOM      9  C   UNL     1       1.290  13.524  20.385  0.00  0.00    +0.000 A 
ATOM     10  C   UNL     1       0.432  13.365  21.580  0.00  0.00    +0.000 A 
ATOM     11  O   UNL     1       0.547  14.127  22.536  0.00  0.00    +0.000 OA
ENDROOT
BRANCH   1  13
ATOM     12  O   UNL     1      -1.844  11.252  23.268  0.00  0.00    +0.000 OA
ATOM     13  C   UNL     1      -1.771  12.164  22.447  0.00  0.00    +0.000 C 
BRANCH  13  14
ATOM     14  C   UNL     1      -2.937  13.094  22.237  0.00  0.00    +0.000 A 
ATOM     15  C   UNL     1      -3.798  12.847  21.150  0.00  0.00    +0.000 A 
ATOM     16  C   UNL     1      -4.854  13.702  20.857  0.00  0.00    +0.000 A 
ATOM     17  C   UNL     1      -5.125  14.769  21.700  0.00  0.00    +0.000 A 
ATOM     18  C   UNL     1      -4.363  14.984  22.855  0.00  0.00    +0.000 A 
ATOM     19  C   UNL     1      -4.738  16.019  23.726  0.00  0.00    +0.000 A 
ATOM     20  C   UNL     1      -4.030  16.263  24.899  0.00  0.00    +0.000 A 
ATOM     21  C   UNL     1      -2.915  15.494  25.197  0.00  0.00    +0.000 A 
ATOM     22  C   UNL     1      -2.519  14.471  24.327  0.00  0.00    +0.000 A 
ATOM     23  C   UNL     1      -3.238  14.160  23.144  0.00  0.00    +0.000 A 
ENDBRANCH  13  14
ENDBRANCH   1  13
BRANCH   3  24
ATOM     24  C   UNL     1       0.466  10.324  18.511  0.00  0.00    +0.000 C 
BRANCH  24  25
ATOM     25  C   UNL     1       1.348   9.118  18.798  0.00  0.00    +0.000 A 
ATOM     26  C   UNL     1       2.188   8.592  17.804  0.00  0.00    +0.000 A 
ATOM     27  C   UNL     1       2.909   7.415  18.030  0.00  0.00    +0.000 A 
ATOM     28  C   UNL     1       2.813   6.768  19.259  0.00  0.00    +0.000 A 
ATOM     29 CL   UNL     1       3.649   5.288  19.516  0.00  0.00    +0.000 Cl
ATOM     30  C   UNL     1       2.038   7.309  20.278  0.00  0.00    +0.000 A 
ATOM     31  C   UNL     1       1.317   8.484  20.052  0.00  0.00    +0.000 A 
ENDBRANCH  24  25
ENDBRANCH   3  24
TORSDOF 4
ENDMDL
MODEL 9
REMARK VINA RESULT:      -6.8      2.906      5.367
REMARK  Name = 
REMARK  4 active torsions:
REMARK  status: ('A' for Active; 'I' for Inactive)
REMARK    1  A    between atoms: C_2  and  C_3
REMARK    2  A    between atoms: C_2  and  C_22
REMARK    3  A    between atoms: N_5  and  C_6
REMARK    4  A    between atoms: C_6  and  C_7
REMARK                            x       y       z     vdW  Elec       q    Type
REMARK                         _______ _______ _______ _____ _____    ______ ____
ROOT
ATOM      1  C   UNL     1      -2.726  12.183  20.206  0.00  0.00    +0.000 A 
ATOM      2  C   UNL     1      -3.498  12.530  21.251  0.00  0.00    +0.000 A 
ATOM      3  N   UNL     1      -4.879  12.716  21.251  0.00  0.00    +0.000 N 
ATOM      4  C   UNL     1      -5.566  12.635  20.014  0.00  0.00    +0.000 A 
ATOM      5  C   UNL     1      -6.922  12.961  19.842  0.00  0.00    +0.000 A 
ATOM      6  C   UNL     1      -7.539  12.913  18.584  0.00  0.00    +0.000 A 
ATOM      7  C   UNL     1      -6.823  12.517  17.462  0.00  0.00    +0.000 A 
ATOM      8  C   UNL     1      -5.489  12.155  17.599  0.00  0.00    +0.000 A 
ATOM      9  C   UNL     1      -4.874  12.210  18.860  0.00  0.00    +0.000 A 
ATOM     10  C   UNL     1      -3.449  11.821  18.963  0.00  0.00    +0.000 A 
ATOM     11  O   UNL     1      -2.896  11.231  18.040  0.00  0.00    +0.000 OA
ENDROOT
BRANCH   1  13
ATOM     12  O   UNL     1      -0.634  13.242  19.966  0.00  0.00    +0.000 OA
ATOM     13  C   UNL     1      -1.244  12.256  20.374  0.00  0.00    +0.000 C 
BRANCH  13  14
ATOM     14  C   UNL     1      -0.493  11.071  20.926  0.00  0.00    +0.000 A 
ATOM     15  C   UNL     1      -0.664  10.751  22.288  0.00  0.00    +0.000 A 
ATOM     16  C   UNL     1       0.048   9.714  22.878  0.00  0.00    +0.000 A 
ATOM     17  C   UNL     1       0.874   8.918  22.098  0.00  0.00    +0.000 A 
ATOM     18  C   UNL     1       0.984   9.132  20.718  0.00  0.00    +0.000 A 
ATOM     19  C   UNL     1       1.756   8.240  19.958  0.00  0.00    +0.000 A 
ATOM     20  C   UNL     1       1.882   8.391  18.581  0.00  0.00    +0.000 A 
ATOM     21  C   UNL     1       1.262   9.461  17.952  0.00  0.00    +0.000 A 
ATOM     22  C   UNL     1       0.504  10.369  18.701  0.00  0.00    +0.000 A 
ATOM     23  C   UNL     1       0.314  10.226  20.100  0.00  0.00    +0.000 A 
ENDBRANCH  13  14
ENDBRANCH   1  13
BRANCH   3  24
ATOM     24  C   UNL     1      -5.549  13.317  22.430  0.00  0.00    +0.000 C 
BRANCH  24  25
ATOM     25  C   UNL     1      -4.634  14.284  23.167  0.00  0.00    +0.000 A 
ATOM     26  C   UNL     1      -3.918  13.871  24.302  0.00  0.00    +0.000 A 
ATOM     27  C   UNL     1      -3.171  14.788  25.046  0.00  0.00    +0.000 A 
ATOM     28  C   UNL     1      -3.116  16.122  24.649  0.00  0.00    +0.000 A 
ATOM     29 CL   UNL     1      -2.249  17.263  25.600  0.00  0.00    +0.000 Cl
ATOM     30  C   UNL     1      -3.765  16.538  23.493  0.00  0.00    +0.000 A 
ATOM     31  C   UNL     1      -4.512  15.620  22.750  0.00  0.00    +0.000 A 
ENDBRANCH  24  25
ENDBRANCH   3  24
TORSDOF 4
ENDMDL
