MODEL 1
REMARK VINA RESULT:      -9.5      0.000      0.000
REMARK  Name = 
REMARK  6 active torsions:
REMARK  status: ('A' for Active; 'I' for Inactive)
REMARK    1  A    between atoms: C_1  and  C_2
REMARK    2  A    between atoms: C_6  and  C_7
REMARK    3  A    between atoms: C_7  and  C_8
REMARK    4  A    between atoms: C_8  and  C_9
REMARK    5  A    between atoms: C_9  and  C_10
REMARK    6  A    between atoms: C_13  and  C_14
REMARK                            x       y       z     vdW  Elec       q    Type
REMARK                         _______ _______ _______ _____ _____    ______ ____
ROOT
ATOM      1  C   UNL     1       2.171   7.753  19.087  0.00  0.00    +0.000 A 
ATOM      2  C   UNL     1       2.959   8.233  17.982  0.00  0.00    +0.000 A 
ATOM      3  C   UNL     1       3.832   7.430  17.300  0.00  0.00    +0.000 A 
ATOM      4  C   UNL     1       3.989   6.114  17.723  0.00  0.00    +0.000 A 
ATOM      5  C   UNL     1       3.201   5.595  18.808  0.00  0.00    +0.000 A 
ATOM      6  C   UNL     1       3.418   4.258  19.175  0.00  0.00    +0.000 A 
ATOM      7  C   UNL     1       2.981   3.757  20.384  0.00  0.00    +0.000 A 
ATOM      8  C   UNL     1       1.857   4.254  20.981  0.00  0.00    +0.000 A 
ATOM      9  C   UNL     1       1.601   5.615  20.683  0.00  0.00    +0.000 A 
ATOM     10  C   UNL     1       2.256   6.372  19.550  0.00  0.00    +0.000 A 
ENDROOT
BRANCH   4  11
ATOM     11  C   UNL     1       5.003   5.242  16.937  0.00  0.00    +0.000 C 
ATOM     12  C   UNL     1       5.126   5.833  15.520  0.00  0.00    +0.000 C 
ATOM     13  C   UNL     1       6.219   5.094  14.825  0.00  0.00    +0.000 C 
ATOM     14  C   UNL     1       7.151   4.472  15.536  0.00  0.00    +0.000 C 
ATOM     15  C   UNL     1       7.243   4.541  16.999  0.00  0.00    +0.000 C 
ATOM     16  O   UNL     1       8.236   4.159  17.616  0.00  0.00    +0.000 OA
ATOM     17  O   UNL     1       6.203   5.139  17.634  0.00  0.00    +0.000 OA
ENDBRANCH   4  11
BRANCH   1  18
ATOM     18  C   UNL     1       1.220   8.781  19.656  0.00  0.00    +0.000 C 
BRANCH  18  19
ATOM     19  C   UNL     1       0.616   9.640  18.533  0.00  0.00    +0.000 C 
BRANCH  19  20
ATOM     20  C   UNL     1      -0.483  10.569  19.042  0.00  0.00    +0.000 C 
BRANCH  20  26
ATOM     21  C   UNL     1      -5.144  12.130  17.898  0.00  0.00    +0.000 C 
ATOM     22  C   UNL     1      -3.920  11.338  17.540  0.00  0.00    +0.000 A 
ATOM     23  C   UNL     1      -3.849  10.616  16.343  0.00  0.00    +0.000 A 
ATOM     24  C   UNL     1      -2.715   9.888  16.030  0.00  0.00    +0.000 A 
ATOM     25  C   UNL     1      -1.624   9.855  16.910  0.00  0.00    +0.000 A 
ATOM     26  C   UNL     1      -1.673  10.569  18.112  0.00  0.00    +0.000 A 
ATOM     27  C   UNL     1      -2.821  11.319  18.413  0.00  0.00    +0.000 A 
ENDBRANCH  20  26
ENDBRANCH  19  20
ENDBRANCH  18  19
ENDBRANCH   1  18
TORSDOF 5
ENDMDL
MODEL 2
REMARK VINA RESULT:      -9.4      0.353      1.277
REMARK  Name = 
REMARK  6 active torsions:
REMARK  status: ('A' for Active; 'I' for Inactive)
REMARK    1  A    between atoms: C_1  and  C_2
REMARK    2  A    between atoms: C_6  and  C_7
REMARK    3  A    between atoms: C_7  and  C_8
REMARK    4  A    between atoms: C_8  and  C_9
REMARK    5  A    between atoms: C_9  and  C_10
REMARK    6  A    between atoms: C_13  and  C_14
REMARK                            x       y       z     vdW  Elec       q    Type
REMARK                         _______ _______ _______ _____ _____    ______ ____
ROOT
ATOM      1  C   UNL     1       2.181   7.789  19.108  0.00  0.00    +0.000 A 
ATOM      2  C   UNL     1       2.972   8.267  18.005  0.00  0.00    +0.000 A 
ATOM      3  C   UNL     1       3.838   7.462  17.318  0.00  0.00    +0.000 A 
ATOM      4  C   UNL     1       3.984   6.141  17.734  0.00  0.00    +0.000 A 
ATOM      5  C   UNL     1       3.192   5.624  18.816  0.00  0.00    +0.000 A 
ATOM      6  C   UNL     1       3.397   4.282  19.176  0.00  0.00    +0.000 A 
ATOM      7  C   UNL     1       2.957   3.778  20.382  0.00  0.00    +0.000 A 
ATOM      8  C   UNL     1       1.837   4.282  20.982  0.00  0.00    +0.000 A 
ATOM      9  C   UNL     1       1.593   5.647  20.692  0.00  0.00    +0.000 A 
ATOM     10  C   UNL     1       2.254   6.404  19.563  0.00  0.00    +0.000 A 
ENDROOT
BRANCH   4  11
ATOM     11  C   UNL     1       4.990   5.265  16.942  0.00  0.00    +0.000 C 
ATOM     12  C   UNL     1       5.125   5.869  15.532  0.00  0.00    +0.000 C 
ATOM     13  C   UNL     1       6.211   5.123  14.833  0.00  0.00    +0.000 C 
ATOM     14  C   UNL     1       7.133   4.483  15.541  0.00  0.00    +0.000 C 
ATOM     15  C   UNL     1       7.221   4.536  17.004  0.00  0.00    +0.000 C 
ATOM     16  O   UNL     1       8.207   4.136  17.621  0.00  0.00    +0.000 OA
ATOM     17  O   UNL     1       6.186   5.141  17.642  0.00  0.00    +0.000 OA
ENDBRANCH   4  11
BRANCH   1  18
ATOM     18  C   UNL     1       1.239   8.821  19.683  0.00  0.00    +0.000 C 
BRANCH  18  19
ATOM     19  C   UNL     1       0.456   9.524  18.562  0.00  0.00    +0.000 C 
BRANCH  19  20
ATOM     20  C   UNL     1      -0.409  10.667  19.088  0.00  0.00    +0.000 C 
BRANCH  20  26
ATOM     21  C   UNL     1      -2.958   9.860  14.809  0.00  0.00    +0.000 C 
ATOM     22  C   UNL     1      -2.909  10.425  16.199  0.00  0.00    +0.000 A 
ATOM     23  C   UNL     1      -4.013  11.083  16.753  0.00  0.00    +0.000 A 
ATOM     24  C   UNL     1      -3.949  11.601  18.034  0.00  0.00    +0.000 A 
ATOM     25  C   UNL     1      -2.776  11.484  18.793  0.00  0.00    +0.000 A 
ATOM     26  C   UNL     1      -1.660  10.832  18.259  0.00  0.00    +0.000 A 
ATOM     27  C   UNL     1      -1.740  10.293  16.965  0.00  0.00    +0.000 A 
ENDBRANCH  20  26
ENDBRANCH  19  20
ENDBRANCH  18  19
ENDBRANCH   1  18
TORSDOF 5
ENDMDL
MODEL 3
REMARK VINA RESULT:      -9.3      3.385      8.010
REMARK  Name = 
REMARK  6 active torsions:
REMARK  status: ('A' for Active; 'I' for Inactive)
REMARK    1  A    between atoms: C_1  and  C_2
REMARK    2  A    between atoms: C_6  and  C_7
REMARK    3  A    between atoms: C_7  and  C_8
REMARK    4  A    between atoms: C_8  and  C_9
REMARK    5  A    between atoms: C_9  and  C_10
REMARK    6  A    between atoms: C_13  and  C_14
REMARK                            x       y       z     vdW  Elec       q    Type
REMARK                         _______ _______ _______ _____ _____    ______ ____
ROOT
ATOM      1  C   UNL     1       3.754   4.633  17.631  0.00  0.00    +0.000 A 
ATOM      2  C   UNL     1       3.838   6.038  17.328  0.00  0.00    +0.000 A 
ATOM      3  C   UNL     1       3.122   6.980  18.015  0.00  0.00    +0.000 A 
ATOM      4  C   UNL     1       2.253   6.553  19.014  0.00  0.00    +0.000 A 
ATOM      5  C   UNL     1       2.163   5.160  19.358  0.00  0.00    +0.000 A 
ATOM      6  C   UNL     1       1.263   4.809  20.377  0.00  0.00    +0.000 A 
ATOM      7  C   UNL     1       0.848   3.507  20.562  0.00  0.00    +0.000 A 
ATOM      8  C   UNL     1       1.671   2.461  20.252  0.00  0.00    +0.000 A 
ATOM      9  C   UNL     1       2.580   2.736  19.201  0.00  0.00    +0.000 A 
ATOM     10  C   UNL     1       2.896   4.125  18.697  0.00  0.00    +0.000 A 
ENDROOT
BRANCH   4  11
ATOM     11  C   UNL     1       1.444   7.650  19.755  0.00  0.00    +0.000 C 
ATOM     12  C   UNL     1       1.962   7.712  21.204  0.00  0.00    +0.000 C 
ATOM     13  C   UNL     1       1.298   8.873  21.863  0.00  0.00    +0.000 C 
ATOM     14  C   UNL     1       0.816   9.864  21.123  0.00  0.00    +0.000 C 
ATOM     15  C   UNL     1       0.978   9.949  19.667  0.00  0.00    +0.000 C 
ATOM     16  O   UNL     1       0.735  10.976  19.035  0.00  0.00    +0.000 OA
ATOM     17  O   UNL     1       1.504   8.854  19.061  0.00  0.00    +0.000 OA
ENDBRANCH   4  11
BRANCH   1  18
ATOM     18  C   UNL     1       4.677   3.770  16.802  0.00  0.00    +0.000 C 
BRANCH  18  19
ATOM     19  C   UNL     1       5.215   4.556  15.594  0.00  0.00    +0.000 C 
BRANCH  19  20
ATOM     20  C   UNL     1       6.740   4.625  15.582  0.00  0.00    +0.000 C 
BRANCH  20  26
ATOM     21  C   UNL     1       7.926   9.004  17.792  0.00  0.00    +0.000 C 
ATOM     22  C   UNL     1       7.816   7.508  17.859  0.00  0.00    +0.000 A 
ATOM     23  C   UNL     1       8.166   6.807  19.020  0.00  0.00    +0.000 A 
ATOM     24  C   UNL     1       8.063   5.429  19.064  0.00  0.00    +0.000 A 
ATOM     25  C   UNL     1       7.616   4.711  17.945  0.00  0.00    +0.000 A 
ATOM     26  C   UNL     1       7.262   5.391  16.774  0.00  0.00    +0.000 A 
ATOM     27  C   UNL     1       7.352   6.791  16.745  0.00  0.00    +0.000 A 
ENDBRANCH  20  26
ENDBRANCH  19  20
ENDBRANCH  18  19
ENDBRANCH   1  18
TORSDOF 5
ENDMDL
MODEL 4
REMARK VINA RESULT:      -9.3      2.372      2.971
REMARK  Name = 
REMARK  6 active torsions:
REMARK  status: ('A' for Active; 'I' for Inactive)
REMARK    1  A    between atoms: C_1  and  C_2
REMARK    2  A    between atoms: C_6  and  C_7
REMARK    3  A    between atoms: C_7  and  C_8
REMARK    4  A    between atoms: C_8  and  C_9
REMARK    5  A    between atoms: C_9  and  C_10
REMARK    6  A    between atoms: C_13  and  C_14
REMARK                            x       y       z     vdW  Elec       q    Type
REMARK                         _______ _______ _______ _____ _____    ______ ____
ROOT
ATOM      1  C   UNL     1       2.005   6.507  20.097  0.00  0.00    +0.000 A 
ATOM      2  C   UNL     1       2.577   7.283  19.029  0.00  0.00    +0.000 A 
ATOM      3  C   UNL     1       3.478   6.760  18.142  0.00  0.00    +0.000 A 
ATOM      4  C   UNL     1       3.882   5.439  18.312  0.00  0.00    +0.000 A 
ATOM      5  C   UNL     1       3.313   4.628  19.353  0.00  0.00    +0.000 A 
ATOM      6  C   UNL     1       3.772   3.306  19.459  0.00  0.00    +0.000 A 
ATOM      7  C   UNL     1       3.560   2.551  20.593  0.00  0.00    +0.000 A 
ATOM      8  C   UNL     1       2.450   2.748  21.365  0.00  0.00    +0.000 A 
ATOM      9  C   UNL     1       1.956   4.076  21.336  0.00  0.00    +0.000 A 
ATOM     10  C   UNL     1       2.353   5.103  20.301  0.00  0.00    +0.000 A 
ENDROOT
BRANCH   4  11
ATOM     11  C   UNL     1       4.920   4.889  17.298  0.00  0.00    +0.000 C 
ATOM     12  C   UNL     1       4.827   5.749  16.024  0.00  0.00    +0.000 C 
ATOM     13  C   UNL     1       5.934   5.323  15.120  0.00  0.00    +0.000 C 
ATOM     14  C   UNL     1       7.004   4.721  15.626  0.00  0.00    +0.000 C 
ATOM     15  C   UNL     1       7.227   4.524  17.062  0.00  0.00    +0.000 C 
ATOM     16  O   UNL     1       8.316   4.182  17.520  0.00  0.00    +0.000 OA
ATOM     17  O   UNL     1       6.184   4.833  17.875  0.00  0.00    +0.000 OA
ENDBRANCH   4  11
BRANCH   1  18
ATOM     18  C   UNL     1       0.980   7.253  20.920  0.00  0.00    +0.000 C 
BRANCH  18  19
ATOM     19  C   UNL     1       1.486   8.664  21.264  0.00  0.00    +0.000 C 
BRANCH  19  20
ATOM     20  C   UNL     1       0.798   9.241  22.499  0.00  0.00    +0.000 C 
BRANCH  20  26
ATOM     21  C   UNL     1      -3.073  12.247  23.703  0.00  0.00    +0.000 C 
ATOM     22  C   UNL     1      -2.049  11.793  22.703  0.00  0.00    +0.000 A 
ATOM     23  C   UNL     1      -1.974  12.369  21.430  0.00  0.00    +0.000 A 
ATOM     24  C   UNL     1      -1.027  11.937  20.519  0.00  0.00    +0.000 A 
ATOM     25  C   UNL     1      -0.133  10.910  20.854  0.00  0.00    +0.000 A 
ATOM     26  C   UNL     1      -0.190  10.319  22.121  0.00  0.00    +0.000 A 
ATOM     27  C   UNL     1      -1.143  10.777  23.045  0.00  0.00    +0.000 A 
ENDBRANCH  20  26
ENDBRANCH  19  20
ENDBRANCH  18  19
ENDBRANCH   1  18
TORSDOF 5
ENDMDL
MODEL 5
REMARK VINA RESULT:      -9.3      3.424      8.012
REMARK  Name = 
REMARK  6 active torsions:
REMARK  status: ('A' for Active; 'I' for Inactive)
REMARK    1  A    between atoms: C_1  and  C_2
REMARK    2  A    between atoms: C_6  and  C_7
REMARK    3  A    between atoms: C_7  and  C_8
REMARK    4  A    between atoms: C_8  and  C_9
REMARK    5  A    between atoms: C_9  and  C_10
REMARK    6  A    between atoms: C_13  and  C_14
REMARK                            x       y       z     vdW  Elec       q    Type
REMARK                         _______ _______ _______ _____ _____    ______ ____
ROOT
ATOM      1  C   UNL     1       3.631   4.888  17.556  0.00  0.00    +0.000 A 
ATOM      2  C   UNL     1       3.654   6.274  17.172  0.00  0.00    +0.000 A 
ATOM      3  C   UNL     1       3.131   7.263  17.960  0.00  0.00    +0.000 A 
ATOM      4  C   UNL     1       2.519   6.901  19.156  0.00  0.00    +0.000 A 
ATOM      5  C   UNL     1       2.500   5.527  19.582  0.00  0.00    +0.000 A 
ATOM      6  C   UNL     1       1.864   5.243  20.801  0.00  0.00    +0.000 A 
ATOM      7  C   UNL     1       1.492   3.960  21.144  0.00  0.00    +0.000 A 
ATOM      8  C   UNL     1       2.207   2.884  20.700  0.00  0.00    +0.000 A 
ATOM      9  C   UNL     1       2.844   3.090  19.452  0.00  0.00    +0.000 A 
ATOM     10  C   UNL     1       3.045   4.448  18.819  0.00  0.00    +0.000 A 
ENDROOT
BRANCH   4  11
ATOM     11  C   UNL     1       1.920   8.048  20.012  0.00  0.00    +0.000 C 
ATOM     12  C   UNL     1       1.621   9.227  19.067  0.00  0.00    +0.000 C 
ATOM     13  C   UNL     1       0.897  10.260  19.862  0.00  0.00    +0.000 C 
ATOM     14  C   UNL     1       0.246   9.908  20.963  0.00  0.00    +0.000 C 
ATOM     15  C   UNL     1       0.100   8.521  21.417  0.00  0.00    +0.000 C 
ATOM     16  O   UNL     1      -0.695   8.195  22.297  0.00  0.00    +0.000 OA
ATOM     17  O   UNL     1       0.828   7.593  20.744  0.00  0.00    +0.000 OA
ENDBRANCH   4  11
BRANCH   1  18
ATOM     18  C   UNL     1       4.322   3.967  16.577  0.00  0.00    +0.000 C 
BRANCH  18  19
ATOM     19  C   UNL     1       5.173   4.775  15.582  0.00  0.00    +0.000 C 
BRANCH  19  20
ATOM     20  C   UNL     1       6.669   4.530  15.767  0.00  0.00    +0.000 C 
BRANCH  20  26
ATOM     21  C   UNL     1       7.918   9.018  17.707  0.00  0.00    +0.000 C 
ATOM     22  C   UNL     1       7.806   7.529  17.858  0.00  0.00    +0.000 A 
ATOM     23  C   UNL     1       8.182   6.891  19.045  0.00  0.00    +0.000 A 
ATOM     24  C   UNL     1       8.077   5.517  19.167  0.00  0.00    +0.000 A 
ATOM     25  C   UNL     1       7.601   4.742  18.100  0.00  0.00    +0.000 A 
ATOM     26  C   UNL     1       7.221   5.358  16.903  0.00  0.00    +0.000 A 
ATOM     27  C   UNL     1       7.314   6.754  16.796  0.00  0.00    +0.000 A 
ENDBRANCH  20  26
ENDBRANCH  19  20
ENDBRANCH  18  19
ENDBRANCH   1  18
TORSDOF 5
ENDMDL
MODEL 6
REMARK VINA RESULT:      -9.1      1.235      2.057
REMARK  Name = 
REMARK  6 active torsions:
REMARK  status: ('A' for Active; 'I' for Inactive)
REMARK    1  A    between atoms: C_1  and  C_2
REMARK    2  A    between atoms: C_6  and  C_7
REMARK    3  A    between atoms: C_7  and  C_8
REMARK    4  A    between atoms: C_8  and  C_9
REMARK    5  A    between atoms: C_9  and  C_10
REMARK    6  A    between atoms: C_13  and  C_14
REMARK                            x       y       z     vdW  Elec       q    Type
REMARK                         _______ _______ _______ _____ _____    ______ ____
ROOT
ATOM      1  C   UNL     1       1.932   6.545  20.003  0.00  0.00    +0.000 A 
ATOM      2  C   UNL     1       2.736   7.351  19.124  0.00  0.00    +0.000 A 
ATOM      3  C   UNL     1       3.655   6.811  18.267  0.00  0.00    +0.000 A 
ATOM      4  C   UNL     1       3.841   5.432  18.281  0.00  0.00    +0.000 A 
ATOM      5  C   UNL     1       3.038   4.594  19.129  0.00  0.00    +0.000 A 
ATOM      6  C   UNL     1       3.286   3.213  19.086  0.00  0.00    +0.000 A 
ATOM      7  C   UNL     1       2.830   2.362  20.070  0.00  0.00    +0.000 A 
ATOM      8  C   UNL     1       1.673   2.632  20.745  0.00  0.00    +0.000 A 
ATOM      9  C   UNL     1       1.382   4.014  20.860  0.00  0.00    +0.000 A 
ATOM     10  C   UNL     1       2.047   5.090  20.033  0.00  0.00    +0.000 A 
ENDROOT
BRANCH   4  11
ATOM     11  C   UNL     1       4.907   4.859  17.309  0.00  0.00    +0.000 C 
ATOM     12  C   UNL     1       4.840   5.680  16.008  0.00  0.00    +0.000 C 
ATOM     13  C   UNL     1       5.971   5.235  15.144  0.00  0.00    +0.000 C 
ATOM     14  C   UNL     1       7.031   4.655  15.693  0.00  0.00    +0.000 C 
ATOM     15  C   UNL     1       7.220   4.502  17.139  0.00  0.00    +0.000 C 
ATOM     16  O   UNL     1       8.300   4.180  17.633  0.00  0.00    +0.000 OA
ATOM     17  O   UNL     1       6.157   4.828  17.918  0.00  0.00    +0.000 OA
ENDBRANCH   4  11
BRANCH   1  18
ATOM     18  C   UNL     1       0.931   7.332  20.817  0.00  0.00    +0.000 C 
BRANCH  18  19
ATOM     19  C   UNL     1       1.284   8.829  20.808  0.00  0.00    +0.000 C 
BRANCH  19  20
ATOM     20  C   UNL     1       0.113   9.703  21.252  0.00  0.00    +0.000 C 
BRANCH  20  26
ATOM     21  C   UNL     1      -2.216   9.986  16.784  0.00  0.00    +0.000 C 
ATOM     22  C   UNL     1      -1.567  10.672  17.951  0.00  0.00    +0.000 A 
ATOM     23  C   UNL     1      -1.470  12.067  18.008  0.00  0.00    +0.000 A 
ATOM     24  C   UNL     1      -0.865  12.684  19.089  0.00  0.00    +0.000 A 
ATOM     25  C   UNL     1      -0.335  11.921  20.140  0.00  0.00    +0.000 A 
ATOM     26  C   UNL     1      -0.420  10.525  20.103  0.00  0.00    +0.000 A 
ATOM     27  C   UNL     1      -1.051   9.909  19.011  0.00  0.00    +0.000 A 
ENDBRANCH  20  26
ENDBRANCH  19  20
ENDBRANCH  18  19
ENDBRANCH   1  18
TORSDOF 5
ENDMDL
MODEL 7
REMARK VINA RESULT:      -9.0      2.169      2.855
REMARK  Name = 
REMARK  6 active torsions:
REMARK  status: ('A' for Active; 'I' for Inactive)
REMARK    1  A    between atoms: C_1  and  C_2
REMARK    2  A    between atoms: C_6  and  C_7
REMARK    3  A    between atoms: C_7  and  C_8
REMARK    4  A    between atoms: C_8  and  C_9
REMARK    5  A    between atoms: C_9  and  C_10
REMARK    6  A    between atoms: C_13  and  C_14
REMARK                            x       y       z     vdW  Elec       q    Type
REMARK                         _______ _______ _______ _____ _____    ______ ____
ROOT
ATOM      1  C   UNL     1       1.976   6.467  20.055  0.00  0.00    +0.000 A 
ATOM      2  C   UNL     1       2.566   7.237  18.992  0.00  0.00    +0.000 A 
ATOM      3  C   UNL     1       3.498   6.716  18.137  0.00  0.00    +0.000 A 
ATOM      4  C   UNL     1       3.916   5.403  18.335  0.00  0.00    +0.000 A 
ATOM      5  C   UNL     1       3.331   4.598  19.372  0.00  0.00    +0.000 A 
ATOM      6  C   UNL     1       3.807   3.284  19.508  0.00  0.00    +0.000 A 
ATOM      7  C   UNL     1       3.575   2.542  20.647  0.00  0.00    +0.000 A 
ATOM      8  C   UNL     1       2.441   2.733  21.386  0.00  0.00    +0.000 A 
ATOM      9  C   UNL     1       1.929   4.052  21.325  0.00  0.00    +0.000 A 
ATOM     10  C   UNL     1       2.339   5.072  20.287  0.00  0.00    +0.000 A 
ENDROOT
BRANCH   4  11
ATOM     11  C   UNL     1       4.989   4.856  17.357  0.00  0.00    +0.000 C 
ATOM     12  C   UNL     1       4.945   5.721  16.084  0.00  0.00    +0.000 C 
ATOM     13  C   UNL     1       6.083   5.296  15.219  0.00  0.00    +0.000 C 
ATOM     14  C   UNL     1       7.132   4.689  15.761  0.00  0.00    +0.000 C 
ATOM     15  C   UNL     1       7.302   4.486  17.204  0.00  0.00    +0.000 C 
ATOM     16  O   UNL     1       8.373   4.139  17.699  0.00  0.00    +0.000 OA
ATOM     17  O   UNL     1       6.232   4.794  17.980  0.00  0.00    +0.000 OA
ENDBRANCH   4  11
BRANCH   1  18
ATOM     18  C   UNL     1       0.919   7.209  20.840  0.00  0.00    +0.000 C 
BRANCH  18  19
ATOM     19  C   UNL     1       1.412   8.616  21.216  0.00  0.00    +0.000 C 
BRANCH  19  20
ATOM     20  C   UNL     1       0.791   9.701  20.339  0.00  0.00    +0.000 C 
BRANCH  20  26
ATOM     21  C   UNL     1      -2.748  13.296  20.487  0.00  0.00    +0.000 C 
ATOM     22  C   UNL     1      -1.928  12.256  21.195  0.00  0.00    +0.000 A 
ATOM     23  C   UNL     1      -2.082  12.024  22.567  0.00  0.00    +0.000 A 
ATOM     24  C   UNL     1      -1.316  11.065  23.205  0.00  0.00    +0.000 A 
ATOM     25  C   UNL     1      -0.369  10.317  22.491  0.00  0.00    +0.000 A 
ATOM     26  C   UNL     1      -0.198  10.533  21.119  0.00  0.00    +0.000 A 
ATOM     27  C   UNL     1      -0.993  11.496  20.476  0.00  0.00    +0.000 A 
ENDBRANCH  20  26
ENDBRANCH  19  20
ENDBRANCH  18  19
ENDBRANCH   1  18
TORSDOF 5
ENDMDL
MODEL 8
REMARK VINA RESULT:      -9.0      1.542      2.435
REMARK  Name = 
REMARK  6 active torsions:
REMARK  status: ('A' for Active; 'I' for Inactive)
REMARK    1  A    between atoms: C_1  and  C_2
REMARK    2  A    between atoms: C_6  and  C_7
REMARK    3  A    between atoms: C_7  and  C_8
REMARK    4  A    between atoms: C_8  and  C_9
REMARK    5  A    between atoms: C_9  and  C_10
REMARK    6  A    between atoms: C_13  and  C_14
REMARK                            x       y       z     vdW  Elec       q    Type
REMARK                         _______ _______ _______ _____ _____    ______ ____
ROOT
ATOM      1  C   UNL     1       2.073   6.578  20.018  0.00  0.00    +0.000 A 
ATOM      2  C   UNL     1       2.655   7.332  18.940  0.00  0.00    +0.000 A 
ATOM      3  C   UNL     1       3.538   6.783  18.052  0.00  0.00    +0.000 A 
ATOM      4  C   UNL     1       3.914   5.454  18.230  0.00  0.00    +0.000 A 
ATOM      5  C   UNL     1       3.333   4.664  19.281  0.00  0.00    +0.000 A 
ATOM      6  C   UNL     1       3.764   3.333  19.395  0.00  0.00    +0.000 A 
ATOM      7  C   UNL     1       3.543   2.593  20.537  0.00  0.00    +0.000 A 
ATOM      8  C   UNL     1       2.442   2.821  21.314  0.00  0.00    +0.000 A 
ATOM      9  C   UNL     1       1.977   4.159  21.276  0.00  0.00    +0.000 A 
ATOM     10  C   UNL     1       2.391   5.169  20.230  0.00  0.00    +0.000 A 
ENDROOT
BRANCH   4  11
ATOM     11  C   UNL     1       4.933   4.873  17.214  0.00  0.00    +0.000 C 
ATOM     12  C   UNL     1       4.823   5.699  15.919  0.00  0.00    +0.000 C 
ATOM     13  C   UNL     1       5.913   5.244  15.009  0.00  0.00    +0.000 C 
ATOM     14  C   UNL     1       6.988   4.651  15.513  0.00  0.00    +0.000 C 
ATOM     15  C   UNL     1       7.234   4.493  16.950  0.00  0.00    +0.000 C 
ATOM     16  O   UNL     1       8.330   4.158  17.399  0.00  0.00    +0.000 OA
ATOM     17  O   UNL     1       6.207   4.828  17.772  0.00  0.00    +0.000 OA
ENDBRANCH   4  11
BRANCH   1  18
ATOM     18  C   UNL     1       1.070   7.353  20.841  0.00  0.00    +0.000 C 
BRANCH  18  19
ATOM     19  C   UNL     1       1.171   8.858  20.539  0.00  0.00    +0.000 C 
BRANCH  19  20
ATOM     20  C   UNL     1      -0.138   9.594  20.821  0.00  0.00    +0.000 C 
BRANCH  20  26
ATOM     21  C   UNL     1       1.609  13.944  18.951  0.00  0.00    +0.000 C 
ATOM     22  C   UNL     1       0.549  12.881  18.982  0.00  0.00    +0.000 A 
ATOM     23  C   UNL     1      -0.581  12.961  18.160  0.00  0.00    +0.000 A 
ATOM     24  C   UNL     1      -1.550  11.975  18.203  0.00  0.00    +0.000 A 
ATOM     25  C   UNL     1      -1.421  10.886  19.077  0.00  0.00    +0.000 A 
ATOM     26  C   UNL     1      -0.300  10.786  19.908  0.00  0.00    +0.000 A 
ATOM     27  C   UNL     1       0.687  11.782  19.844  0.00  0.00    +0.000 A 
ENDBRANCH  20  26
ENDBRANCH  19  20
ENDBRANCH  18  19
ENDBRANCH   1  18
TORSDOF 5
ENDMDL
MODEL 9
REMARK VINA RESULT:      -8.8      2.509      3.487
REMARK  Name = 
REMARK  6 active torsions:
REMARK  status: ('A' for Active; 'I' for Inactive)
REMARK    1  A    between atoms: C_1  and  C_2
REMARK    2  A    between atoms: C_6  and  C_7
REMARK    3  A    between atoms: C_7  and  C_8
REMARK    4  A    between atoms: C_8  and  C_9
REMARK    5  A    between atoms: C_9  and  C_10
REMARK    6  A    between atoms: C_13  and  C_14
REMARK                            x       y       z     vdW  Elec       q    Type
REMARK                         _______ _______ _______ _____ _____    ______ ____
ROOT
ATOM      1  C   UNL     1       3.285   6.618  17.983  0.00  0.00    +0.000 A 
ATOM      2  C   UNL     1       4.149   7.356  17.099  0.00  0.00    +0.000 A 
ATOM      3  C   UNL     1       4.960   6.742  16.184  0.00  0.00    +0.000 A 
ATOM      4  C   UNL     1       4.974   5.351  16.141  0.00  0.00    +0.000 A 
ATOM      5  C   UNL     1       4.107   4.584  16.993  0.00  0.00    +0.000 A 
ATOM      6  C   UNL     1       4.181   3.186  16.891  0.00  0.00    +0.000 A 
ATOM      7  C   UNL     1       3.662   2.357  17.863  0.00  0.00    +0.000 A 
ATOM      8  C   UNL     1       2.574   2.739  18.597  0.00  0.00    +0.000 A 
ATOM      9  C   UNL     1       2.461   4.141  18.774  0.00  0.00    +0.000 A 
ATOM     10  C   UNL     1       3.221   5.160  17.956  0.00  0.00    +0.000 A 
ENDROOT
BRANCH   4  11
ATOM     11  C   UNL     1       5.922   4.692  15.104  0.00  0.00    +0.000 C 
ATOM     12  C   UNL     1       5.046   4.073  13.999  0.00  0.00    +0.000 C 
ATOM     13  C   UNL     1       5.962   3.587  12.927  0.00  0.00    +0.000 C 
ATOM     14  C   UNL     1       7.178   4.107  12.813  0.00  0.00    +0.000 C 
ATOM     15  C   UNL     1       7.667   5.225  13.627  0.00  0.00    +0.000 C 
ATOM     16  O   UNL     1       8.696   5.841  13.352  0.00  0.00    +0.000 OA
ATOM     17  O   UNL     1       6.869   5.608  14.656  0.00  0.00    +0.000 OA
ENDBRANCH   4  11
BRANCH   1  18
ATOM     18  C   UNL     1       2.422   7.489  18.867  0.00  0.00    +0.000 C 
BRANCH  18  19
ATOM     19  C   UNL     1       2.273   8.895  18.263  0.00  0.00    +0.000 C 
BRANCH  19  20
ATOM     20  C   UNL     1       0.812   9.323  18.147  0.00  0.00    +0.000 C 
BRANCH  20  26
ATOM     21  C   UNL     1      -0.259   9.605  23.071  0.00  0.00    +0.000 C 
ATOM     22  C   UNL     1      -0.115  10.279  21.737  0.00  0.00    +0.000 A 
ATOM     23  C   UNL     1      -0.347  11.651  21.590  0.00  0.00    +0.000 A 
ATOM     24  C   UNL     1      -0.214  12.256  20.353  0.00  0.00    +0.000 A 
ATOM     25  C   UNL     1       0.147  11.503  19.227  0.00  0.00    +0.000 A 
ATOM     26  C   UNL     1       0.383  10.130  19.350  0.00  0.00    +0.000 A 
ATOM     27  C   UNL     1       0.263   9.528  20.612  0.00  0.00    +0.000 A 
ENDBRANCH  20  26
ENDBRANCH  19  20
ENDBRANCH  18  19
ENDBRANCH   1  18
TORSDOF 5
ENDMDL
