MODEL 1
REMARK VINA RESULT:      -7.9      0.000      0.000
REMARK  Name = 
REMARK  9 active torsions:
REMARK  status: ('A' for Active; 'I' for Inactive)
REMARK    1  A    between atoms: C_1  and  C_2
REMARK    2  A    between atoms: C_2  and  C_4
REMARK    3  A    between atoms: C_9  and  C_10
REMARK    4  A    between atoms: C_13  and  S_14
REMARK    5  A    between atoms: S_14  and  C_15
REMARK    6  A    between atoms: C_23  and  N_24
REMARK    7  A    between atoms: N_24  and  C_25
REMARK    8  A    between atoms: C_25  and  C_26
REMARK    9  A    between atoms: C_25  and  C_27
REMARK                            x       y       z     vdW  Elec       q    Type
REMARK                         _______ _______ _______ _____ _____    ______ ____
ROOT
ATOM      1  C   UNL     1       4.774   5.478  17.296  0.00  0.00    +0.000 A 
ATOM      2  C   UNL     1       4.611   6.792  16.883  0.00  0.00    +0.000 A 
ATOM      3  N   UNL     1       3.759   7.665  17.452  0.00  0.00    +0.000 NA
ATOM      4  C   UNL     1       3.064   7.258  18.518  0.00  0.00    +0.000 A 
ATOM      5  C   UNL     1       2.210   8.198  19.094  0.00  0.00    +0.000 A 
ATOM      6  C   UNL     1       1.453   7.944  20.248  0.00  0.00    +0.000 A 
ATOM      7  C   UNL     1       1.614   6.694  20.835  0.00  0.00    +0.000 A 
ATOM      8  C   UNL     1       2.472   5.748  20.276  0.00  0.00    +0.000 A 
ATOM      9  C   UNL     1       3.177   5.959  19.071  0.00  0.00    +0.000 A 
ATOM     10  C   UNL     1       4.006   4.999  18.390  0.00  0.00    +0.000 A 
ENDROOT
BRANCH   6  11
ATOM     11  C   UNL     1       0.579   8.955  20.872  0.00  0.00    +0.000 A 
ATOM     12  C   UNL     1       0.351   8.963  22.264  0.00  0.00    +0.000 A 
ATOM     13  C   UNL     1      -0.411   9.961  22.874  0.00  0.00    +0.000 A 
ATOM     14  C   UNL     1      -0.965  10.970  22.088  0.00  0.00    +0.000 A 
ATOM     15  C   UNL     1      -0.789  10.971  20.706  0.00  0.00    +0.000 A 
ATOM     16  C   UNL     1      -0.016   9.976  20.108  0.00  0.00    +0.000 A 
BRANCH  14  17
ATOM     17  S   UNL     1      -1.926  12.253  22.849  0.00  0.00    +0.000 S 
ATOM     18  C   UNL     1      -2.632  13.098  21.460  0.00  0.00    +0.000 C 
ATOM     19  O   UNL     1      -2.999  11.614  23.586  0.00  0.00    +0.000 OA
ATOM     20  O   UNL     1      -1.004  13.159  23.510  0.00  0.00    +0.000 OA
ENDBRANCH  14  17
ENDBRANCH   6  11
BRANCH   1  22
ATOM     21  C   UNL     1       5.327   4.126  15.157  0.00  0.00    +0.000 C 
ATOM     22  C   UNL     1       5.716   4.606  16.533  0.00  0.00    +0.000 C 
ATOM     23  O   UNL     1       6.803   4.301  17.028  0.00  0.00    +0.000 OA
ENDBRANCH   1  22
BRANCH  10  24
ATOM     24  N   UNL     1       4.190   3.653  18.793  0.00  0.00    +0.000 N 
ATOM     25  H   UNL     1       5.160   3.369  18.584  0.00  0.00    +0.000 HD
BRANCH  24  26
ATOM     26  C   UNL     1       3.281   2.536  18.517  0.00  0.00    +0.000 C 
ATOM     27  C   UNL     1       2.405   2.179  19.715  0.00  0.00    +0.000 C 
ATOM     28  C   UNL     1       2.407   2.884  17.308  0.00  0.00    +0.000 C 
ENDBRANCH  24  26
ENDBRANCH  10  24
TORSDOF 5
ENDMDL
MODEL 2
REMARK VINA RESULT:      -7.9      1.069      1.144
REMARK  Name = 
REMARK  9 active torsions:
REMARK  status: ('A' for Active; 'I' for Inactive)
REMARK    1  A    between atoms: C_1  and  C_2
REMARK    2  A    between atoms: C_2  and  C_4
REMARK    3  A    between atoms: C_9  and  C_10
REMARK    4  A    between atoms: C_13  and  S_14
REMARK    5  A    between atoms: S_14  and  C_15
REMARK    6  A    between atoms: C_23  and  N_24
REMARK    7  A    between atoms: N_24  and  C_25
REMARK    8  A    between atoms: C_25  and  C_26
REMARK    9  A    between atoms: C_25  and  C_27
REMARK                            x       y       z     vdW  Elec       q    Type
REMARK                         _______ _______ _______ _____ _____    ______ ____
ROOT
ATOM      1  C   UNL     1       5.377   5.367  16.689  0.00  0.00    +0.000 A 
ATOM      2  C   UNL     1       5.145   6.649  16.213  0.00  0.00    +0.000 A 
ATOM      3  N   UNL     1       4.254   7.504  16.747  0.00  0.00    +0.000 NA
ATOM      4  C   UNL     1       3.589   7.116  17.839  0.00  0.00    +0.000 A 
ATOM      5  C   UNL     1       2.693   8.040  18.377  0.00  0.00    +0.000 A 
ATOM      6  C   UNL     1       1.959   7.805  19.550  0.00  0.00    +0.000 A 
ATOM      7  C   UNL     1       2.187   6.596  20.196  0.00  0.00    +0.000 A 
ATOM      8  C   UNL     1       3.088   5.667  19.675  0.00  0.00    +0.000 A 
ATOM      9  C   UNL     1       3.772   5.853  18.454  0.00  0.00    +0.000 A 
ATOM     10  C   UNL     1       4.644   4.904  17.812  0.00  0.00    +0.000 A 
ENDROOT
BRANCH   6  11
ATOM     11  C   UNL     1       1.039   8.800  20.132  0.00  0.00    +0.000 A 
ATOM     12  C   UNL     1       0.722   8.784  21.507  0.00  0.00    +0.000 A 
ATOM     13  C   UNL     1      -0.085   9.767  22.083  0.00  0.00    +0.000 A 
ATOM     14  C   UNL     1      -0.594  10.786  21.279  0.00  0.00    +0.000 A 
ATOM     15  C   UNL     1      -0.330  10.810  19.911  0.00  0.00    +0.000 A 
ATOM     16  C   UNL     1       0.487   9.830  19.348  0.00  0.00    +0.000 A 
BRANCH  14  17
ATOM     17  S   UNL     1      -1.611  12.050  21.997  0.00  0.00    +0.000 S 
ATOM     18  C   UNL     1      -0.456  13.356  22.318  0.00  0.00    +0.000 C 
ATOM     19  O   UNL     1      -2.533  12.501  20.972  0.00  0.00    +0.000 OA
ATOM     20  O   UNL     1      -2.098  11.552  23.270  0.00  0.00    +0.000 OA
ENDBRANCH  14  17
ENDBRANCH   6  11
BRANCH   1  22
ATOM     21  C   UNL     1       5.951   3.868  14.654  0.00  0.00    +0.000 C 
ATOM     22  C   UNL     1       6.357   4.507  15.959  0.00  0.00    +0.000 C 
ATOM     23  O   UNL     1       7.487   4.340  16.422  0.00  0.00    +0.000 OA
ENDBRANCH   1  22
BRANCH  10  24
ATOM     24  N   UNL     1       4.899   3.591  18.279  0.00  0.00    +0.000 N 
ATOM     25  H   UNL     1       5.831   3.293  17.949  0.00  0.00    +0.000 HD
BRANCH  24  26
ATOM     26  C   UNL     1       3.971   2.457  18.221  0.00  0.00    +0.000 C 
ATOM     27  C   UNL     1       3.411   2.083  19.591  0.00  0.00    +0.000 C 
ATOM     28  C   UNL     1       2.829   2.789  17.257  0.00  0.00    +0.000 C 
ENDBRANCH  24  26
ENDBRANCH  10  24
TORSDOF 5
ENDMDL
MODEL 3
REMARK VINA RESULT:      -7.9      1.321      2.807
REMARK  Name = 
REMARK  9 active torsions:
REMARK  status: ('A' for Active; 'I' for Inactive)
REMARK    1  A    between atoms: C_1  and  C_2
REMARK    2  A    between atoms: C_2  and  C_4
REMARK    3  A    between atoms: C_9  and  C_10
REMARK    4  A    between atoms: C_13  and  S_14
REMARK    5  A    between atoms: S_14  and  C_15
REMARK    6  A    between atoms: C_23  and  N_24
REMARK    7  A    between atoms: N_24  and  C_25
REMARK    8  A    between atoms: C_25  and  C_26
REMARK    9  A    between atoms: C_25  and  C_27
REMARK                            x       y       z     vdW  Elec       q    Type
REMARK                         _______ _______ _______ _____ _____    ______ ____
ROOT
ATOM      1  C   UNL     1       3.365   3.492  19.790  0.00  0.00    +0.000 A 
ATOM      2  C   UNL     1       2.359   3.386  20.739  0.00  0.00    +0.000 A 
ATOM      3  N   UNL     1       1.639   4.427  21.197  0.00  0.00    +0.000 NA
ATOM      4  C   UNL     1       1.870   5.631  20.666  0.00  0.00    +0.000 A 
ATOM      5  C   UNL     1       1.087   6.680  21.150  0.00  0.00    +0.000 A 
ATOM      6  C   UNL     1       1.171   7.991  20.659  0.00  0.00    +0.000 A 
ATOM      7  C   UNL     1       2.065   8.210  19.617  0.00  0.00    +0.000 A 
ATOM      8  C   UNL     1       2.847   7.170  19.116  0.00  0.00    +0.000 A 
ATOM      9  C   UNL     1       2.834   5.864  19.655  0.00  0.00    +0.000 A 
ATOM     10  C   UNL     1       3.675   4.767  19.251  0.00  0.00    +0.000 A 
ENDROOT
BRANCH   6  11
ATOM     11  C   UNL     1       0.315   9.087  21.151  0.00  0.00    +0.000 A 
ATOM     12  C   UNL     1      -0.088   9.148  22.501  0.00  0.00    +0.000 A 
ATOM     13  C   UNL     1      -0.832  10.221  22.995  0.00  0.00    +0.000 A 
ATOM     14  C   UNL     1      -1.191  11.254  22.131  0.00  0.00    +0.000 A 
ATOM     15  C   UNL     1      -0.840  11.207  20.783  0.00  0.00    +0.000 A 
ATOM     16  C   UNL     1      -0.086  10.136  20.303  0.00  0.00    +0.000 A 
BRANCH  14  17
ATOM     17  S   UNL     1      -2.126  12.631  22.744  0.00  0.00    +0.000 S 
ATOM     18  C   UNL     1      -2.638  13.457  21.261  0.00  0.00    +0.000 C 
ATOM     19  O   UNL     1      -3.307  12.099  23.398  0.00  0.00    +0.000 OA
ATOM     20  O   UNL     1      -1.209  13.504  23.455  0.00  0.00    +0.000 OA
ENDBRANCH  14  17
ENDBRANCH   6  11
BRANCH   1  22
ATOM     21  C   UNL     1       3.608   1.389  18.296  0.00  0.00    +0.000 C 
ATOM     22  C   UNL     1       4.120   2.257  19.418  0.00  0.00    +0.000 C 
ATOM     23  O   UNL     1       5.156   1.969  20.020  0.00  0.00    +0.000 OA
ENDBRANCH   1  22
BRANCH  10  24
ATOM     24  N   UNL     1       4.706   4.849  18.284  0.00  0.00    +0.000 N 
ATOM     25  H   UNL     1       5.422   5.517  18.612  0.00  0.00    +0.000 HD
BRANCH  24  26
ATOM     26  C   UNL     1       4.524   4.998  16.836  0.00  0.00    +0.000 C 
ATOM     27  C   UNL     1       4.964   6.368  16.325  0.00  0.00    +0.000 C 
ATOM     28  C   UNL     1       5.298   3.892  16.114  0.00  0.00    +0.000 C 
ENDBRANCH  24  26
ENDBRANCH  10  24
TORSDOF 5
ENDMDL
MODEL 4
REMARK VINA RESULT:      -7.8      1.536      2.923
REMARK  Name = 
REMARK  9 active torsions:
REMARK  status: ('A' for Active; 'I' for Inactive)
REMARK    1  A    between atoms: C_1  and  C_2
REMARK    2  A    between atoms: C_2  and  C_4
REMARK    3  A    between atoms: C_9  and  C_10
REMARK    4  A    between atoms: C_13  and  S_14
REMARK    5  A    between atoms: S_14  and  C_15
REMARK    6  A    between atoms: C_23  and  N_24
REMARK    7  A    between atoms: N_24  and  C_25
REMARK    8  A    between atoms: C_25  and  C_26
REMARK    9  A    between atoms: C_25  and  C_27
REMARK                            x       y       z     vdW  Elec       q    Type
REMARK                         _______ _______ _______ _____ _____    ______ ____
ROOT
ATOM      1  C   UNL     1       3.273   3.859  19.572  0.00  0.00    +0.000 A 
ATOM      2  C   UNL     1       2.538   3.873  20.749  0.00  0.00    +0.000 A 
ATOM      3  N   UNL     1       1.913   4.960  21.238  0.00  0.00    +0.000 NA
ATOM      4  C   UNL     1       1.956   6.085  20.518  0.00  0.00    +0.000 A 
ATOM      5  C   UNL     1       1.276   7.182  21.047  0.00  0.00    +0.000 A 
ATOM      6  C   UNL     1       1.181   8.417  20.388  0.00  0.00    +0.000 A 
ATOM      7  C   UNL     1       1.779   8.503  19.137  0.00  0.00    +0.000 A 
ATOM      8  C   UNL     1       2.454   7.412  18.591  0.00  0.00    +0.000 A 
ATOM      9  C   UNL     1       2.628   6.188  19.276  0.00  0.00    +0.000 A 
ATOM     10  C   UNL     1       3.386   5.055  18.815  0.00  0.00    +0.000 A 
ENDROOT
BRANCH   6  11
ATOM     11  C   UNL     1       0.430   9.562  20.937  0.00  0.00    +0.000 A 
ATOM     12  C   UNL     1      -0.111   9.523  22.239  0.00  0.00    +0.000 A 
ATOM     13  C   UNL     1      -0.755  10.629  22.797  0.00  0.00    +0.000 A 
ATOM     14  C   UNL     1      -0.872  11.797  22.047  0.00  0.00    +0.000 A 
ATOM     15  C   UNL     1      -0.381  11.858  20.745  0.00  0.00    +0.000 A 
ATOM     16  C   UNL     1       0.272  10.751  20.202  0.00  0.00    +0.000 A 
BRANCH  14  17
ATOM     17  S   UNL     1      -1.677  13.216  22.745  0.00  0.00    +0.000 S 
ATOM     18  C   UNL     1      -3.096  12.515  23.544  0.00  0.00    +0.000 C 
ATOM     19  O   UNL     1      -0.801  13.755  23.767  0.00  0.00    +0.000 OA
ATOM     20  O   UNL     1      -2.139  14.044  21.646  0.00  0.00    +0.000 OA
ENDBRANCH  14  17
ENDBRANCH   6  11
BRANCH   1  22
ATOM     21  C   UNL     1       3.374   1.742  18.082  0.00  0.00    +0.000 C 
ATOM     22  C   UNL     1       3.961   2.592  19.181  0.00  0.00    +0.000 C 
ATOM     23  O   UNL     1       5.004   2.263  19.749  0.00  0.00    +0.000 OA
ENDBRANCH   1  22
BRANCH  10  24
ATOM     24  N   UNL     1       4.141   5.016  17.617  0.00  0.00    +0.000 N 
ATOM     25  H   UNL     1       4.192   4.040  17.284  0.00  0.00    +0.000 HD
BRANCH  24  26
ATOM     26  C   UNL     1       5.428   5.681  17.385  0.00  0.00    +0.000 C 
ATOM     27  C   UNL     1       6.614   4.729  17.515  0.00  0.00    +0.000 C 
ATOM     28  C   UNL     1       5.418   6.327  15.997  0.00  0.00    +0.000 C 
ENDBRANCH  24  26
ENDBRANCH  10  24
TORSDOF 5
ENDMDL
MODEL 5
REMARK VINA RESULT:      -7.8      0.997      1.404
REMARK  Name = 
REMARK  9 active torsions:
REMARK  status: ('A' for Active; 'I' for Inactive)
REMARK    1  A    between atoms: C_1  and  C_2
REMARK    2  A    between atoms: C_2  and  C_4
REMARK    3  A    between atoms: C_9  and  C_10
REMARK    4  A    between atoms: C_13  and  S_14
REMARK    5  A    between atoms: S_14  and  C_15
REMARK    6  A    between atoms: C_23  and  N_24
REMARK    7  A    between atoms: N_24  and  C_25
REMARK    8  A    between atoms: C_25  and  C_26
REMARK    9  A    between atoms: C_25  and  C_27
REMARK                            x       y       z     vdW  Elec       q    Type
REMARK                         _______ _______ _______ _____ _____    ______ ____
ROOT
ATOM      1  C   UNL     1       4.151   5.418  17.829  0.00  0.00    +0.000 A 
ATOM      2  C   UNL     1       4.092   6.706  17.317  0.00  0.00    +0.000 A 
ATOM      3  N   UNL     1       3.313   7.684  17.816  0.00  0.00    +0.000 NA
ATOM      4  C   UNL     1       2.590   7.414  18.907  0.00  0.00    +0.000 A 
ATOM      5  C   UNL     1       1.815   8.460  19.408  0.00  0.00    +0.000 A 
ATOM      6  C   UNL     1       1.043   8.354  20.574  0.00  0.00    +0.000 A 
ATOM      7  C   UNL     1       1.105   7.143  21.254  0.00  0.00    +0.000 A 
ATOM      8  C   UNL     1       1.883   6.092  20.771  0.00  0.00    +0.000 A 
ATOM      9  C   UNL     1       2.601   6.156  19.555  0.00  0.00    +0.000 A 
ATOM     10  C   UNL     1       3.350   5.085  18.951  0.00  0.00    +0.000 A 
ENDROOT
BRANCH   6  11
ATOM     11  C   UNL     1       0.253   9.475  21.117  0.00  0.00    +0.000 A 
ATOM     12  C   UNL     1      -0.250  10.488  20.274  0.00  0.00    +0.000 A 
ATOM     13  C   UNL     1      -1.064  11.511  20.766  0.00  0.00    +0.000 A 
ATOM     14  C   UNL     1      -1.382  11.535  22.123  0.00  0.00    +0.000 A 
ATOM     15  C   UNL     1      -0.871  10.570  22.989  0.00  0.00    +0.000 A 
ATOM     16  C   UNL     1      -0.068   9.546  22.485  0.00  0.00    +0.000 A 
BRANCH  14  17
ATOM     17  S   UNL     1      -2.424  12.820  22.762  0.00  0.00    +0.000 S 
ATOM     18  C   UNL     1      -2.754  13.814  21.330  0.00  0.00    +0.000 C 
ATOM     19  O   UNL     1      -3.667  12.204  23.183  0.00  0.00    +0.000 OA
ATOM     20  O   UNL     1      -1.631  13.609  23.687  0.00  0.00    +0.000 OA
ENDBRANCH  14  17
ENDBRANCH   6  11
BRANCH   1  22
ATOM     21  C   UNL     1       6.505   4.668  17.048  0.00  0.00    +0.000 C 
ATOM     22  C   UNL     1       5.020   4.420  17.136  0.00  0.00    +0.000 C 
ATOM     23  O   UNL     1       4.517   3.401  16.657  0.00  0.00    +0.000 OA
ENDBRANCH   1  22
BRANCH  10  24
ATOM     24  N   UNL     1       3.427   3.763  19.456  0.00  0.00    +0.000 N 
ATOM     25  H   UNL     1       4.317   3.338  19.150  0.00  0.00    +0.000 HD
BRANCH  24  26
ATOM     26  C   UNL     1       2.361   2.756  19.409  0.00  0.00    +0.000 C 
ATOM     27  C   UNL     1       1.675   2.563  20.758  0.00  0.00    +0.000 C 
ATOM     28  C   UNL     1       1.335   3.158  18.346  0.00  0.00    +0.000 C 
ENDBRANCH  24  26
ENDBRANCH  10  24
TORSDOF 5
ENDMDL
MODEL 6
REMARK VINA RESULT:      -7.8      1.387      3.015
REMARK  Name = 
REMARK  9 active torsions:
REMARK  status: ('A' for Active; 'I' for Inactive)
REMARK    1  A    between atoms: C_1  and  C_2
REMARK    2  A    between atoms: C_2  and  C_4
REMARK    3  A    between atoms: C_9  and  C_10
REMARK    4  A    between atoms: C_13  and  S_14
REMARK    5  A    between atoms: S_14  and  C_15
REMARK    6  A    between atoms: C_23  and  N_24
REMARK    7  A    between atoms: N_24  and  C_25
REMARK    8  A    between atoms: C_25  and  C_26
REMARK    9  A    between atoms: C_25  and  C_27
REMARK                            x       y       z     vdW  Elec       q    Type
REMARK                         _______ _______ _______ _____ _____    ______ ____
ROOT
ATOM      1  C   UNL     1       3.067   3.592  19.358  0.00  0.00    +0.000 A 
ATOM      2  C   UNL     1       2.322   3.565  20.528  0.00  0.00    +0.000 A 
ATOM      3  N   UNL     1       1.756   4.650  21.090  0.00  0.00    +0.000 NA
ATOM      4  C   UNL     1       1.871   5.818  20.453  0.00  0.00    +0.000 A 
ATOM      5  C   UNL     1       1.250   6.913  21.054  0.00  0.00    +0.000 A 
ATOM      6  C   UNL     1       1.234   8.195  20.485  0.00  0.00    +0.000 A 
ATOM      7  C   UNL     1       1.848   8.335  19.246  0.00  0.00    +0.000 A 
ATOM      8  C   UNL     1       2.464   7.247  18.628  0.00  0.00    +0.000 A 
ATOM      9  C   UNL     1       2.561   5.970  19.225  0.00  0.00    +0.000 A 
ATOM     10  C   UNL     1       3.256   4.829  18.689  0.00  0.00    +0.000 A 
ENDROOT
BRANCH   6  11
ATOM     11  C   UNL     1       0.545   9.341  21.109  0.00  0.00    +0.000 A 
ATOM     12  C   UNL     1       0.298  10.526  20.386  0.00  0.00    +0.000 A 
ATOM     13  C   UNL     1      -0.421  11.586  20.942  0.00  0.00    +0.000 A 
ATOM     14  C   UNL     1      -0.901  11.472  22.246  0.00  0.00    +0.000 A 
ATOM     15  C   UNL     1      -0.643  10.329  23.000  0.00  0.00    +0.000 A 
ATOM     16  C   UNL     1       0.067   9.272  22.430  0.00  0.00    +0.000 A 
BRANCH  14  17
ATOM     17  S   UNL     1      -1.827  12.804  22.964  0.00  0.00    +0.000 S 
ATOM     18  C   UNL     1      -2.308  13.761  21.552  0.00  0.00    +0.000 C 
ATOM     19  O   UNL     1      -3.023  12.234  23.555  0.00  0.00    +0.000 OA
ATOM     20  O   UNL     1      -0.909  13.599  23.759  0.00  0.00    +0.000 OA
ENDBRANCH  14  17
ENDBRANCH   6  11
BRANCH   1  22
ATOM     21  C   UNL     1       4.720   1.633  19.739  0.00  0.00    +0.000 C 
ATOM     22  C   UNL     1       3.684   2.318  18.882  0.00  0.00    +0.000 C 
ATOM     23  O   UNL     1       3.332   1.834  17.804  0.00  0.00    +0.000 OA
ENDBRANCH   1  22
BRANCH  10  24
ATOM     24  N   UNL     1       4.020   4.831  17.496  0.00  0.00    +0.000 N 
ATOM     25  H   UNL     1       4.056   3.871  17.118  0.00  0.00    +0.000 HD
BRANCH  24  26
ATOM     26  C   UNL     1       5.320   5.483  17.303  0.00  0.00    +0.000 C 
ATOM     27  C   UNL     1       6.475   4.486  17.246  0.00  0.00    +0.000 C 
ATOM     28  C   UNL     1       5.280   6.319  16.021  0.00  0.00    +0.000 C 
ENDBRANCH  24  26
ENDBRANCH  10  24
TORSDOF 5
ENDMDL
MODEL 7
REMARK VINA RESULT:      -7.8      1.407      1.688
REMARK  Name = 
REMARK  9 active torsions:
REMARK  status: ('A' for Active; 'I' for Inactive)
REMARK    1  A    between atoms: C_1  and  C_2
REMARK    2  A    between atoms: C_2  and  C_4
REMARK    3  A    between atoms: C_9  and  C_10
REMARK    4  A    between atoms: C_13  and  S_14
REMARK    5  A    between atoms: S_14  and  C_15
REMARK    6  A    between atoms: C_23  and  N_24
REMARK    7  A    between atoms: N_24  and  C_25
REMARK    8  A    between atoms: C_25  and  C_26
REMARK    9  A    between atoms: C_25  and  C_27
REMARK                            x       y       z     vdW  Elec       q    Type
REMARK                         _______ _______ _______ _____ _____    ______ ____
ROOT
ATOM      1  C   UNL     1       5.591   5.361  16.736  0.00  0.00    +0.000 A 
ATOM      2  C   UNL     1       5.344   6.553  16.072  0.00  0.00    +0.000 A 
ATOM      3  N   UNL     1       4.410   7.447  16.446  0.00  0.00    +0.000 NA
ATOM      4  C   UNL     1       3.713   7.198  17.558  0.00  0.00    +0.000 A 
ATOM      5  C   UNL     1       2.772   8.160  17.925  0.00  0.00    +0.000 A 
ATOM      6  C   UNL     1       1.998   8.072  19.092  0.00  0.00    +0.000 A 
ATOM      7  C   UNL     1       2.233   6.976  19.914  0.00  0.00    +0.000 A 
ATOM      8  C   UNL     1       3.177   6.011  19.565  0.00  0.00    +0.000 A 
ATOM      9  C   UNL     1       3.905   6.043  18.354  0.00  0.00    +0.000 A 
ATOM     10  C   UNL     1       4.826   5.040  17.887  0.00  0.00    +0.000 A 
ENDROOT
BRANCH   6  11
ATOM     11  C   UNL     1       1.030   9.111  19.492  0.00  0.00    +0.000 A 
ATOM     12  C   UNL     1       0.716   9.332  20.850  0.00  0.00    +0.000 A 
ATOM     13  C   UNL     1      -0.138  10.363  21.244  0.00  0.00    +0.000 A 
ATOM     14  C   UNL     1      -0.701  11.189  20.273  0.00  0.00    +0.000 A 
ATOM     15  C   UNL     1      -0.441  10.975  18.920  0.00  0.00    +0.000 A 
ATOM     16  C   UNL     1       0.424   9.949  18.539  0.00  0.00    +0.000 A 
BRANCH  14  17
ATOM     17  S   UNL     1      -1.780  12.512  20.757  0.00  0.00    +0.000 S 
ATOM     18  C   UNL     1      -2.089  12.167  22.468  0.00  0.00    +0.000 C 
ATOM     19  O   UNL     1      -1.022  13.745  20.672  0.00  0.00    +0.000 OA
ATOM     20  O   UNL     1      -3.026  12.350  20.030  0.00  0.00    +0.000 OA
ENDBRANCH  14  17
ENDBRANCH   6  11
BRANCH   1  22
ATOM     21  C   UNL     1       6.329   3.696  14.892  0.00  0.00    +0.000 C 
ATOM     22  C   UNL     1       6.622   4.437  16.173  0.00  0.00    +0.000 C 
ATOM     23  O   UNL     1       7.702   4.300  16.752  0.00  0.00    +0.000 OA
ENDBRANCH   1  22
BRANCH  10  24
ATOM     24  N   UNL     1       5.097   3.816  18.548  0.00  0.00    +0.000 N 
ATOM     25  H   UNL     1       6.058   3.516  18.318  0.00  0.00    +0.000 HD
BRANCH  24  26
ATOM     26  C   UNL     1       4.215   2.645  18.594  0.00  0.00    +0.000 C 
ATOM     27  C   UNL     1       3.584   2.438  19.969  0.00  0.00    +0.000 C 
ATOM     28  C   UNL     1       3.125   2.792  17.529  0.00  0.00    +0.000 C 
ENDBRANCH  24  26
ENDBRANCH  10  24
TORSDOF 5
ENDMDL
MODEL 8
REMARK VINA RESULT:      -7.7      0.836      1.067
REMARK  Name = 
REMARK  9 active torsions:
REMARK  status: ('A' for Active; 'I' for Inactive)
REMARK    1  A    between atoms: C_1  and  C_2
REMARK    2  A    between atoms: C_2  and  C_4
REMARK    3  A    between atoms: C_9  and  C_10
REMARK    4  A    between atoms: C_13  and  S_14
REMARK    5  A    between atoms: S_14  and  C_15
REMARK    6  A    between atoms: C_23  and  N_24
REMARK    7  A    between atoms: N_24  and  C_25
REMARK    8  A    between atoms: C_25  and  C_26
REMARK    9  A    between atoms: C_25  and  C_27
REMARK                            x       y       z     vdW  Elec       q    Type
REMARK                         _______ _______ _______ _____ _____    ______ ____
ROOT
ATOM      1  C   UNL     1       5.193   5.333  16.753  0.00  0.00    +0.000 A 
ATOM      2  C   UNL     1       4.921   6.604  16.268  0.00  0.00    +0.000 A 
ATOM      3  N   UNL     1       4.055   7.462  16.839  0.00  0.00    +0.000 NA
ATOM      4  C   UNL     1       3.459   7.088  17.975  0.00  0.00    +0.000 A 
ATOM      5  C   UNL     1       2.588   8.014  18.549  0.00  0.00    +0.000 A 
ATOM      6  C   UNL     1       1.927   7.796  19.767  0.00  0.00    +0.000 A 
ATOM      7  C   UNL     1       2.204   6.601  20.420  0.00  0.00    +0.000 A 
ATOM      8  C   UNL     1       3.081   5.669  19.864  0.00  0.00    +0.000 A 
ATOM      9  C   UNL     1       3.690   5.839  18.600  0.00  0.00    +0.000 A 
ATOM     10  C   UNL     1       4.531   4.885  17.925  0.00  0.00    +0.000 A 
ENDROOT
BRANCH   6  11
ATOM     11  C   UNL     1       1.034   8.794  20.384  0.00  0.00    +0.000 A 
ATOM     12  C   UNL     1       0.836   8.831  21.781  0.00  0.00    +0.000 A 
ATOM     13  C   UNL     1       0.056   9.820  22.383  0.00  0.00    +0.000 A 
ATOM     14  C   UNL     1      -0.547  10.790  21.585  0.00  0.00    +0.000 A 
ATOM     15  C   UNL     1      -0.402  10.761  20.199  0.00  0.00    +0.000 A 
ATOM     16  C   UNL     1       0.390   9.775  19.609  0.00  0.00    +0.000 A 
BRANCH  14  17
ATOM     17  S   UNL     1      -1.532  12.061  22.334  0.00  0.00    +0.000 S 
ATOM     18  C   UNL     1      -2.589  12.579  21.008  0.00  0.00    +0.000 C 
ATOM     19  O   UNL     1      -2.354  11.432  23.351  0.00  0.00    +0.000 OA
ATOM     20  O   UNL     1      -0.649  13.163  22.667  0.00  0.00    +0.000 OA
ENDBRANCH  14  17
ENDBRANCH   6  11
BRANCH   1  22
ATOM     21  C   UNL     1       5.755   4.013  14.594  0.00  0.00    +0.000 C 
ATOM     22  C   UNL     1       6.135   4.467  15.982  0.00  0.00    +0.000 C 
ATOM     23  O   UNL     1       7.216   4.145  16.480  0.00  0.00    +0.000 OA
ENDBRANCH   1  22
BRANCH  10  24
ATOM     24  N   UNL     1       4.825   3.583  18.400  0.00  0.00    +0.000 N 
ATOM     25  H   UNL     1       5.394   3.088  17.695  0.00  0.00    +0.000 HD
BRANCH  24  26
ATOM     26  C   UNL     1       3.871   2.647  19.004  0.00  0.00    +0.000 C 
ATOM     27  C   UNL     1       3.404   1.570  18.028  0.00  0.00    +0.000 C 
ATOM     28  C   UNL     1       4.509   2.002  20.238  0.00  0.00    +0.000 C 
ENDBRANCH  24  26
ENDBRANCH  10  24
TORSDOF 5
ENDMDL
MODEL 9
REMARK VINA RESULT:      -7.7      1.130      1.376
REMARK  Name = 
REMARK  9 active torsions:
REMARK  status: ('A' for Active; 'I' for Inactive)
REMARK    1  A    between atoms: C_1  and  C_2
REMARK    2  A    between atoms: C_2  and  C_4
REMARK    3  A    between atoms: C_9  and  C_10
REMARK    4  A    between atoms: C_13  and  S_14
REMARK    5  A    between atoms: S_14  and  C_15
REMARK    6  A    between atoms: C_23  and  N_24
REMARK    7  A    between atoms: N_24  and  C_25
REMARK    8  A    between atoms: C_25  and  C_26
REMARK    9  A    between atoms: C_25  and  C_27
REMARK                            x       y       z     vdW  Elec       q    Type
REMARK                         _______ _______ _______ _____ _____    ______ ____
ROOT
ATOM      1  C   UNL     1       4.233   5.592  17.598  0.00  0.00    +0.000 A 
ATOM      2  C   UNL     1       4.174   6.895  17.128  0.00  0.00    +0.000 A 
ATOM      3  N   UNL     1       3.390   7.854  17.654  0.00  0.00    +0.000 NA
ATOM      4  C   UNL     1       2.663   7.548  18.733  0.00  0.00    +0.000 A 
ATOM      5  C   UNL     1       1.883   8.576  19.264  0.00  0.00    +0.000 A 
ATOM      6  C   UNL     1       1.106   8.430  20.423  0.00  0.00    +0.000 A 
ATOM      7  C   UNL     1       1.168   7.198  21.063  0.00  0.00    +0.000 A 
ATOM      8  C   UNL     1       1.951   6.165  20.550  0.00  0.00    +0.000 A 
ATOM      9  C   UNL     1       2.674   6.269  19.341  0.00  0.00    +0.000 A 
ATOM     10  C   UNL     1       3.428   5.220  18.706  0.00  0.00    +0.000 A 
ENDROOT
BRANCH   6  11
ATOM     11  C   UNL     1       0.311   9.531  20.998  0.00  0.00    +0.000 A 
ATOM     12  C   UNL     1      -0.071   9.524  22.356  0.00  0.00    +0.000 A 
ATOM     13  C   UNL     1      -0.755  10.597  22.929  0.00  0.00    +0.000 A 
ATOM     14  C   UNL     1      -1.075  11.700  22.139  0.00  0.00    +0.000 A 
ATOM     15  C   UNL     1      -0.745  11.723  20.785  0.00  0.00    +0.000 A 
ATOM     16  C   UNL     1      -0.050  10.650  20.226  0.00  0.00    +0.000 A 
BRANCH  14  17
ATOM     17  S   UNL     1      -1.934  13.077  22.854  0.00  0.00    +0.000 S 
ATOM     18  C   UNL     1      -3.314  12.311  23.661  0.00  0.00    +0.000 C 
ATOM     19  O   UNL     1      -1.073  13.647  23.872  0.00  0.00    +0.000 OA
ATOM     20  O   UNL     1      -2.442  13.892  21.765  0.00  0.00    +0.000 OA
ENDBRANCH  14  17
ENDBRANCH   6  11
BRANCH   1  22
ATOM     21  C   UNL     1       6.596   4.638  17.124  0.00  0.00    +0.000 C 
ATOM     22  C   UNL     1       5.108   4.618  16.877  0.00  0.00    +0.000 C 
ATOM     23  O   UNL     1       4.604   3.802  16.102  0.00  0.00    +0.000 OA
ENDBRANCH   1  22
BRANCH  10  24
ATOM     24  N   UNL     1       3.506   3.883  19.168  0.00  0.00    +0.000 N 
ATOM     25  H   UNL     1       4.487   3.565  19.112  0.00  0.00    +0.000 HD
BRANCH  24  26
ATOM     26  C   UNL     1       2.612   2.784  18.788  0.00  0.00    +0.000 C 
ATOM     27  C   UNL     1       3.369   1.513  18.412  0.00  0.00    +0.000 C 
ATOM     28  C   UNL     1       1.644   2.501  19.941  0.00  0.00    +0.000 C 
ENDBRANCH  24  26
ENDBRANCH  10  24
TORSDOF 5
ENDMDL
