MODEL 1
REMARK VINA RESULT:      -7.8      0.000      0.000
REMARK  Name = 
REMARK  5 active torsions:
REMARK  status: ('A' for Active; 'I' for Inactive)
REMARK    1  A    between atoms: C_1  and  C_2
REMARK    2  A    between atoms: C_3  and  C_4
REMARK    3  A    between atoms: N_6  and  N_7
REMARK    4  A    between atoms: N_14  and  C_15
REMARK    5  A    between atoms: C_21  and  C_22
REMARK                            x       y       z     vdW  Elec       q    Type
REMARK                         _______ _______ _______ _____ _____    ______ ____
ROOT
ATOM      1  C   UNL     1       4.611   7.747  16.735  0.00  0.00    +0.000 C 
ATOM      2  C   UNL     1       4.049   6.603  17.510  0.00  0.00    +0.000 A 
ATOM      3  C   UNL     1       4.455   5.223  17.427  0.00  0.00    +0.000 A 
ATOM      4  N   UNL     1       3.736   4.473  18.286  0.00  0.00    +0.000 NA
ATOM      5  N   UNL     1       2.827   5.316  18.836  0.00  0.00    +0.000 N 
ATOM      6  C   UNL     1       3.001   6.653  18.448  0.00  0.00    +0.000 A 
ENDROOT
BRANCH   5   7
ATOM      7  C   UNL     1       1.680   4.741  19.564  0.00  0.00    +0.000 C 
ATOM      8  C   UNL     1       1.139   3.396  19.026  0.00  0.00    +0.000 C 
ATOM      9  C   UNL     1       1.627   2.139  19.747  0.00  0.00    +0.000 C 
ATOM     10  C   UNL     1       1.538   2.237  21.262  0.00  0.00    +0.000 C 
ATOM     11  C   UNL     1       2.270   3.456  21.776  0.00  0.00    +0.000 C 
ATOM     12  C   UNL     1       1.824   4.738  21.102  0.00  0.00    +0.000 C 
ENDBRANCH   5   7
BRANCH   6  13
ATOM     13  C   UNL     1       2.159   7.823  18.873  0.00  0.00    +0.000 A 
ATOM     14  C   UNL     1       1.822   8.071  20.210  0.00  0.00    +0.000 A 
ATOM     15  C   UNL     1       0.939   9.081  20.606  0.00  0.00    +0.000 A 
ATOM     16  C   UNL     1       0.432   9.959  19.665  0.00  0.00    +0.000 A 
ATOM     17  C   UNL     1       0.821   9.816  18.340  0.00  0.00    +0.000 A 
ATOM     18  C   UNL     1       1.651   8.751  17.949  0.00  0.00    +0.000 A 
ENDBRANCH   6  13
BRANCH   3  19
ATOM     19  C   UNL     1       5.493   4.608  16.531  0.00  0.00    +0.000 C 
ATOM     20  O   UNL     1       6.547   4.143  16.942  0.00  0.00    +0.000 OA
ATOM     21  N   UNL     1       5.128   4.643  15.180  0.00  0.00    +0.000 N 
ATOM     22  H   UNL     1       4.218   5.070  14.986  0.00  0.00    +0.000 HD
BRANCH  21  23
ATOM     23  N   UNL     1       5.889   4.140  14.082  0.00  0.00    +0.000 NA
ATOM     24  C   UNL     1       5.084   3.566  12.997  0.00  0.00    +0.000 C 
ATOM     25  C   UNL     1       5.982   2.817  11.998  0.00  0.00    +0.000 C 
ATOM     26  C   UNL     1       7.087   3.712  11.448  0.00  0.00    +0.000 C 
ATOM     27  C   UNL     1       7.845   4.383  12.590  0.00  0.00    +0.000 C 
ATOM     28  C   UNL     1       6.894   5.083  13.574  0.00  0.00    +0.000 C 
ENDBRANCH  21  23
ENDBRANCH   3  19
TORSDOF 4
ENDMDL
MODEL 2
REMARK VINA RESULT:      -7.5      2.797      7.762
REMARK  Name = 
REMARK  5 active torsions:
REMARK  status: ('A' for Active; 'I' for Inactive)
REMARK    1  A    between atoms: C_1  and  C_2
REMARK    2  A    between atoms: C_3  and  C_4
REMARK    3  A    between atoms: N_6  and  N_7
REMARK    4  A    between atoms: N_14  and  C_15
REMARK    5  A    between atoms: C_21  and  C_22
REMARK                            x       y       z     vdW  Elec       q    Type
REMARK                         _______ _______ _______ _____ _____    ______ ____
ROOT
ATOM      1  C   UNL     1       3.909   8.500  17.181  0.00  0.00    +0.000 C 
ATOM      2  C   UNL     1       3.349   7.447  18.078  0.00  0.00    +0.000 A 
ATOM      3  C   UNL     1       2.213   7.578  18.955  0.00  0.00    +0.000 A 
ATOM      4  N   UNL     1       1.987   6.416  19.602  0.00  0.00    +0.000 NA
ATOM      5  N   UNL     1       2.999   5.591  19.235  0.00  0.00    +0.000 N 
ATOM      6  C   UNL     1       3.839   6.141  18.255  0.00  0.00    +0.000 A 
ENDROOT
BRANCH   5   7
ATOM      7  C   UNL     1       3.229   4.363  20.020  0.00  0.00    +0.000 C 
ATOM      8  C   UNL     1       2.259   4.120  21.200  0.00  0.00    +0.000 C 
ATOM      9  C   UNL     1       1.095   3.168  20.927  0.00  0.00    +0.000 C 
ATOM     10  C   UNL     1       1.516   1.875  20.245  0.00  0.00    +0.000 C 
ATOM     11  C   UNL     1       2.279   2.152  18.970  0.00  0.00    +0.000 C 
ATOM     12  C   UNL     1       3.454   3.088  19.178  0.00  0.00    +0.000 C 
ENDBRANCH   5   7
BRANCH   6  13
ATOM     13  C   UNL     1       5.048   5.487  17.647  0.00  0.00    +0.000 A 
ATOM     14  C   UNL     1       6.280   5.404  18.306  0.00  0.00    +0.000 A 
ATOM     15  C   UNL     1       7.444   4.911  17.705  0.00  0.00    +0.000 A 
ATOM     16  C   UNL     1       7.386   4.380  16.430  0.00  0.00    +0.000 A 
ATOM     17  C   UNL     1       6.162   4.345  15.775  0.00  0.00    +0.000 A 
ATOM     18  C   UNL     1       5.019   4.911  16.366  0.00  0.00    +0.000 A 
ENDBRANCH   6  13
BRANCH   3  19
ATOM     19  C   UNL     1       1.359   8.790  19.203  0.00  0.00    +0.000 C 
ATOM     20  O   UNL     1       1.009   9.558  18.319  0.00  0.00    +0.000 OA
ATOM     21  N   UNL     1       1.028   8.949  20.554  0.00  0.00    +0.000 N 
ATOM     22  H   UNL     1       1.400   8.230  21.181  0.00  0.00    +0.000 HD
BRANCH  21  23
ATOM     23  N   UNL     1       0.232   9.991  21.116  0.00  0.00    +0.000 NA
ATOM     24  C   UNL     1      -0.075   9.821  22.541  0.00  0.00    +0.000 C 
ATOM     25  C   UNL     1      -1.145  10.832  22.986  0.00  0.00    +0.000 C 
ATOM     26  C   UNL     1      -0.730  12.267  22.681  0.00  0.00    +0.000 C 
ATOM     27  C   UNL     1      -0.313  12.400  21.219  0.00  0.00    +0.000 C 
ATOM     28  C   UNL     1       0.729  11.342  20.823  0.00  0.00    +0.000 C 
ENDBRANCH  21  23
ENDBRANCH   3  19
TORSDOF 4
ENDMDL
MODEL 3
REMARK VINA RESULT:      -7.4      2.517      7.647
REMARK  Name = 
REMARK  5 active torsions:
REMARK  status: ('A' for Active; 'I' for Inactive)
REMARK    1  A    between atoms: C_1  and  C_2
REMARK    2  A    between atoms: C_3  and  C_4
REMARK    3  A    between atoms: N_6  and  N_7
REMARK    4  A    between atoms: N_14  and  C_15
REMARK    5  A    between atoms: C_21  and  C_22
REMARK                            x       y       z     vdW  Elec       q    Type
REMARK                         _______ _______ _______ _____ _____    ______ ____
ROOT
ATOM      1  C   UNL     1       4.189   8.399  17.264  0.00  0.00    +0.000 C 
ATOM      2  C   UNL     1       3.435   7.231  17.806  0.00  0.00    +0.000 A 
ATOM      3  C   UNL     1       2.243   7.275  18.615  0.00  0.00    +0.000 A 
ATOM      4  N   UNL     1       1.831   6.024  18.906  0.00  0.00    +0.000 NA
ATOM      5  N   UNL     1       2.775   5.198  18.390  0.00  0.00    +0.000 N 
ATOM      6  C   UNL     1       3.758   5.871  17.649  0.00  0.00    +0.000 A 
ENDROOT
BRANCH   5   7
ATOM      7  C   UNL     1       2.793   3.788  18.823  0.00  0.00    +0.000 C 
ATOM      8  C   UNL     1       3.528   3.495  20.152  0.00  0.00    +0.000 C 
ATOM      9  C   UNL     1       2.646   3.378  21.396  0.00  0.00    +0.000 C 
ATOM     10  C   UNL     1       1.431   2.486  21.194  0.00  0.00    +0.000 C 
ATOM     11  C   UNL     1       0.610   2.938  20.008  0.00  0.00    +0.000 C 
ATOM     12  C   UNL     1       1.430   3.067  18.739  0.00  0.00    +0.000 C 
ENDBRANCH   5   7
BRANCH   6  13
ATOM     13  C   UNL     1       4.939   5.247  16.960  0.00  0.00    +0.000 A 
ATOM     14  C   UNL     1       6.147   4.977  17.615  0.00  0.00    +0.000 A 
ATOM     15  C   UNL     1       7.293   4.514  16.959  0.00  0.00    +0.000 A 
ATOM     16  C   UNL     1       7.234   4.201  15.613  0.00  0.00    +0.000 A 
ATOM     17  C   UNL     1       6.027   4.353  14.943  0.00  0.00    +0.000 A 
ATOM     18  C   UNL     1       4.907   4.889  15.602  0.00  0.00    +0.000 A 
ENDBRANCH   6  13
BRANCH   3  19
ATOM     19  C   UNL     1       1.509   8.480  19.131  0.00  0.00    +0.000 C 
ATOM     20  O   UNL     1       1.008   9.325  18.403  0.00  0.00    +0.000 OA
ATOM     21  N   UNL     1       1.478   8.535  20.529  0.00  0.00    +0.000 N 
ATOM     22  H   UNL     1       1.947   7.759  21.005  0.00  0.00    +0.000 HD
BRANCH  21  23
ATOM     23  N   UNL     1       0.860   9.545  21.326  0.00  0.00    +0.000 NA
ATOM     24  C   UNL     1       0.524  10.773  20.596  0.00  0.00    +0.000 C 
ATOM     25  C   UNL     1       0.118  11.887  21.576  0.00  0.00    +0.000 C 
ATOM     26  C   UNL     1      -1.029  11.455  22.482  0.00  0.00    +0.000 C 
ATOM     27  C   UNL     1      -0.705  10.121  23.150  0.00  0.00    +0.000 C 
ATOM     28  C   UNL     1      -0.272   9.060  22.127  0.00  0.00    +0.000 C 
ENDBRANCH  21  23
ENDBRANCH   3  19
TORSDOF 4
ENDMDL
MODEL 4
REMARK VINA RESULT:      -7.4      2.525      7.186
REMARK  Name = 
REMARK  5 active torsions:
REMARK  status: ('A' for Active; 'I' for Inactive)
REMARK    1  A    between atoms: C_1  and  C_2
REMARK    2  A    between atoms: C_3  and  C_4
REMARK    3  A    between atoms: N_6  and  N_7
REMARK    4  A    between atoms: N_14  and  C_15
REMARK    5  A    between atoms: C_21  and  C_22
REMARK                            x       y       z     vdW  Elec       q    Type
REMARK                         _______ _______ _______ _____ _____    ______ ____
ROOT
ATOM      1  C   UNL     1       4.266   8.301  17.428  0.00  0.00    +0.000 C 
ATOM      2  C   UNL     1       3.518   7.123  17.957  0.00  0.00    +0.000 A 
ATOM      3  C   UNL     1       2.388   7.151  18.850  0.00  0.00    +0.000 A 
ATOM      4  N   UNL     1       1.961   5.896  19.101  0.00  0.00    +0.000 NA
ATOM      5  N   UNL     1       2.843   5.078  18.474  0.00  0.00    +0.000 N 
ATOM      6  C   UNL     1       3.791   5.767  17.703  0.00  0.00    +0.000 A 
ENDROOT
BRANCH   5   7
ATOM      7  C   UNL     1       2.850   3.645  18.826  0.00  0.00    +0.000 C 
ATOM      8  C   UNL     1       3.592   3.271  20.131  0.00  0.00    +0.000 C 
ATOM      9  C   UNL     1       2.718   3.092  21.372  0.00  0.00    +0.000 C 
ATOM     10  C   UNL     1       1.493   2.224  21.130  0.00  0.00    +0.000 C 
ATOM     11  C   UNL     1       0.668   2.750  19.978  0.00  0.00    +0.000 C 
ATOM     12  C   UNL     1       1.480   2.943  18.712  0.00  0.00    +0.000 C 
ENDBRANCH   5   7
BRANCH   6  13
ATOM     13  C   UNL     1       4.902   5.154  16.897  0.00  0.00    +0.000 A 
ATOM     14  C   UNL     1       6.196   4.974  17.401  0.00  0.00    +0.000 A 
ATOM     15  C   UNL     1       7.268   4.521  16.624  0.00  0.00    +0.000 A 
ATOM     16  C   UNL     1       7.051   4.129  15.316  0.00  0.00    +0.000 A 
ATOM     17  C   UNL     1       5.762   4.191  14.804  0.00  0.00    +0.000 A 
ATOM     18  C   UNL     1       4.712   4.717  15.576  0.00  0.00    +0.000 A 
ENDBRANCH   6  13
BRANCH   3  19
ATOM     19  C   UNL     1       1.727   8.343  19.484  0.00  0.00    +0.000 C 
ATOM     20  O   UNL     1       1.615   8.486  20.693  0.00  0.00    +0.000 OA
ATOM     21  N   UNL     1       1.243   9.256  18.539  0.00  0.00    +0.000 N 
ATOM     22  H   UNL     1       1.404   8.998  17.562  0.00  0.00    +0.000 HD
BRANCH  21  23
ATOM     23  N   UNL     1       0.572  10.485  18.814  0.00  0.00    +0.000 NA
ATOM     24  C   UNL     1       1.395  11.684  18.614  0.00  0.00    +0.000 C 
ATOM     25  C   UNL     1       0.687  12.924  19.185  0.00  0.00    +0.000 C 
ATOM     26  C   UNL     1      -0.705  13.107  18.589  0.00  0.00    +0.000 C 
ATOM     27  C   UNL     1      -1.509  11.816  18.711  0.00  0.00    +0.000 C 
ATOM     28  C   UNL     1      -0.736  10.607  18.158  0.00  0.00    +0.000 C 
ENDBRANCH  21  23
ENDBRANCH   3  19
TORSDOF 4
ENDMDL
MODEL 5
REMARK VINA RESULT:      -7.3      2.540      7.206
REMARK  Name = 
REMARK  5 active torsions:
REMARK  status: ('A' for Active; 'I' for Inactive)
REMARK    1  A    between atoms: C_1  and  C_2
REMARK    2  A    between atoms: C_3  and  C_4
REMARK    3  A    between atoms: N_6  and  N_7
REMARK    4  A    between atoms: N_14  and  C_15
REMARK    5  A    between atoms: C_21  and  C_22
REMARK                            x       y       z     vdW  Elec       q    Type
REMARK                         _______ _______ _______ _____ _____    ______ ____
ROOT
ATOM      1  C   UNL     1       4.194   8.373  17.288  0.00  0.00    +0.000 C 
ATOM      2  C   UNL     1       3.458   7.218  17.878  0.00  0.00    +0.000 A 
ATOM      3  C   UNL     1       2.295   7.280  18.727  0.00  0.00    +0.000 A 
ATOM      4  N   UNL     1       1.892   6.036  19.057  0.00  0.00    +0.000 NA
ATOM      5  N   UNL     1       2.817   5.198  18.524  0.00  0.00    +0.000 N 
ATOM      6  C   UNL     1       3.774   5.855  17.737  0.00  0.00    +0.000 A 
ENDROOT
BRANCH   5   7
ATOM      7  C   UNL     1       2.849   3.797  18.984  0.00  0.00    +0.000 C 
ATOM      8  C   UNL     1       3.475   3.553  20.377  0.00  0.00    +0.000 C 
ATOM      9  C   UNL     1       2.493   3.422  21.542  0.00  0.00    +0.000 C 
ATOM     10  C   UNL     1       1.333   2.481  21.253  0.00  0.00    +0.000 C 
ATOM     11  C   UNL     1       0.603   2.883  19.992  0.00  0.00    +0.000 C 
ATOM     12  C   UNL     1       1.525   3.023  18.796  0.00  0.00    +0.000 C 
ENDBRANCH   5   7
BRANCH   6  13
ATOM     13  C   UNL     1       4.930   5.215  17.019  0.00  0.00    +0.000 A 
ATOM     14  C   UNL     1       6.184   5.027  17.613  0.00  0.00    +0.000 A 
ATOM     15  C   UNL     1       7.301   4.549  16.918  0.00  0.00    +0.000 A 
ATOM     16  C   UNL     1       7.168   4.138  15.605  0.00  0.00    +0.000 A 
ATOM     17  C   UNL     1       5.918   4.208  15.005  0.00  0.00    +0.000 A 
ATOM     18  C   UNL     1       4.824   4.759  15.694  0.00  0.00    +0.000 A 
ENDBRANCH   6  13
BRANCH   3  19
ATOM     19  C   UNL     1       1.581   8.496  19.246  0.00  0.00    +0.000 C 
ATOM     20  O   UNL     1       1.477   8.759  20.435  0.00  0.00    +0.000 OA
ATOM     21  N   UNL     1       1.039   9.281  18.221  0.00  0.00    +0.000 N 
ATOM     22  H   UNL     1       1.201   8.930  17.273  0.00  0.00    +0.000 HD
BRANCH  21  23
ATOM     23  N   UNL     1       0.308  10.496  18.379  0.00  0.00    +0.000 NA
ATOM     24  C   UNL     1      -1.006  10.337  19.012  0.00  0.00    +0.000 C 
ATOM     25  C   UNL     1      -1.821  11.636  18.895  0.00  0.00    +0.000 C 
ATOM     26  C   UNL     1      -1.071  12.829  19.477  0.00  0.00    +0.000 C 
ATOM     27  C   UNL     1       0.332  12.915  18.884  0.00  0.00    +0.000 C 
ATOM     28  C   UNL     1       1.083  11.579  18.998  0.00  0.00    +0.000 C 
ENDBRANCH  21  23
ENDBRANCH   3  19
TORSDOF 4
ENDMDL
MODEL 6
REMARK VINA RESULT:      -7.2      2.782      7.859
REMARK  Name = 
REMARK  5 active torsions:
REMARK  status: ('A' for Active; 'I' for Inactive)
REMARK    1  A    between atoms: C_1  and  C_2
REMARK    2  A    between atoms: C_3  and  C_4
REMARK    3  A    between atoms: N_6  and  N_7
REMARK    4  A    between atoms: N_14  and  C_15
REMARK    5  A    between atoms: C_21  and  C_22
REMARK                            x       y       z     vdW  Elec       q    Type
REMARK                         _______ _______ _______ _____ _____    ______ ____
ROOT
ATOM      1  C   UNL     1       3.807   8.655  17.368  0.00  0.00    +0.000 C 
ATOM      2  C   UNL     1       3.288   7.524  18.191  0.00  0.00    +0.000 A 
ATOM      3  C   UNL     1       2.198   7.574  19.133  0.00  0.00    +0.000 A 
ATOM      4  N   UNL     1       2.000   6.358  19.681  0.00  0.00    +0.000 NA
ATOM      5  N   UNL     1       2.988   5.569  19.189  0.00  0.00    +0.000 N 
ATOM      6  C   UNL     1       3.780   6.207  18.222  0.00  0.00    +0.000 A 
ENDROOT
BRANCH   5   7
ATOM      7  C   UNL     1       3.251   4.274  19.845  0.00  0.00    +0.000 C 
ATOM      8  C   UNL     1       2.347   3.928  21.051  0.00  0.00    +0.000 C 
ATOM      9  C   UNL     1       1.161   3.007  20.758  0.00  0.00    +0.000 C 
ATOM     10  C   UNL     1       1.535   1.781  19.940  0.00  0.00    +0.000 C 
ATOM     11  C   UNL     1       2.228   2.171  18.654  0.00  0.00    +0.000 C 
ATOM     12  C   UNL     1       3.419   3.081  18.880  0.00  0.00    +0.000 C 
ENDBRANCH   5   7
BRANCH   6  13
ATOM     13  C   UNL     1       4.954   5.612  17.496  0.00  0.00    +0.000 A 
ATOM     14  C   UNL     1       4.871   5.128  16.185  0.00  0.00    +0.000 A 
ATOM     15  C   UNL     1       5.920   4.459  15.543  0.00  0.00    +0.000 A 
ATOM     16  C   UNL     1       7.146   4.342  16.172  0.00  0.00    +0.000 A 
ATOM     17  C   UNL     1       7.307   4.900  17.433  0.00  0.00    +0.000 A 
ATOM     18  C   UNL     1       6.221   5.502  18.092  0.00  0.00    +0.000 A 
ENDBRANCH   6  13
BRANCH   3  19
ATOM     19  C   UNL     1       1.364   8.758  19.534  0.00  0.00    +0.000 C 
ATOM     20  O   UNL     1       0.737   9.440  18.736  0.00  0.00    +0.000 OA
ATOM     21  N   UNL     1       1.399   9.000  20.912  0.00  0.00    +0.000 N 
ATOM     22  H   UNL     1       1.973   8.349  21.454  0.00  0.00    +0.000 HD
BRANCH  21  23
ATOM     23  N   UNL     1       0.715  10.041  21.608  0.00  0.00    +0.000 NA
ATOM     24  C   UNL     1       0.575  11.290  20.849  0.00  0.00    +0.000 C 
ATOM     25  C   UNL     1       0.076  12.422  21.762  0.00  0.00    +0.000 C 
ATOM     26  C   UNL     1      -1.229  12.054  22.460  0.00  0.00    +0.000 C 
ATOM     27  C   UNL     1      -1.096  10.702  23.155  0.00  0.00    +0.000 C 
ATOM     28  C   UNL     1      -0.560   9.621  22.204  0.00  0.00    +0.000 C 
ENDBRANCH  21  23
ENDBRANCH   3  19
TORSDOF 4
ENDMDL
MODEL 7
REMARK VINA RESULT:      -7.2      2.752      7.317
REMARK  Name = 
REMARK  5 active torsions:
REMARK  status: ('A' for Active; 'I' for Inactive)
REMARK    1  A    between atoms: C_1  and  C_2
REMARK    2  A    between atoms: C_3  and  C_4
REMARK    3  A    between atoms: N_6  and  N_7
REMARK    4  A    between atoms: N_14  and  C_15
REMARK    5  A    between atoms: C_21  and  C_22
REMARK                            x       y       z     vdW  Elec       q    Type
REMARK                         _______ _______ _______ _____ _____    ______ ____
ROOT
ATOM      1  C   UNL     1       3.810   8.502  17.496  0.00  0.00    +0.000 C 
ATOM      2  C   UNL     1       3.324   7.339  18.296  0.00  0.00    +0.000 A 
ATOM      3  C   UNL     1       2.312   7.362  19.321  0.00  0.00    +0.000 A 
ATOM      4  N   UNL     1       2.123   6.122  19.817  0.00  0.00    +0.000 NA
ATOM      5  N   UNL     1       3.048   5.339  19.207  0.00  0.00    +0.000 N 
ATOM      6  C   UNL     1       3.780   6.011  18.217  0.00  0.00    +0.000 A 
ENDROOT
BRANCH   5   7
ATOM      7  C   UNL     1       3.325   4.004  19.770  0.00  0.00    +0.000 C 
ATOM      8  C   UNL     1       2.494   3.605  21.012  0.00  0.00    +0.000 C 
ATOM      9  C   UNL     1       1.272   2.724  20.747  0.00  0.00    +0.000 C 
ATOM     10  C   UNL     1       1.564   1.541  19.837  0.00  0.00    +0.000 C 
ATOM     11  C   UNL     1       2.179   1.992  18.532  0.00  0.00    +0.000 C 
ATOM     12  C   UNL     1       3.403   2.865  18.729  0.00  0.00    +0.000 C 
ENDBRANCH   5   7
BRANCH   6  13
ATOM     13  C   UNL     1       4.878   5.430  17.370  0.00  0.00    +0.000 A 
ATOM     14  C   UNL     1       4.670   4.978  16.061  0.00  0.00    +0.000 A 
ATOM     15  C   UNL     1       5.650   4.322  15.308  0.00  0.00    +0.000 A 
ATOM     16  C   UNL     1       6.929   4.186  15.816  0.00  0.00    +0.000 A 
ATOM     17  C   UNL     1       7.211   4.713  17.069  0.00  0.00    +0.000 A 
ATOM     18  C   UNL     1       6.195   5.303  17.841  0.00  0.00    +0.000 A 
ENDBRANCH   6  13
BRANCH   3  19
ATOM     19  C   UNL     1       1.544   8.541  19.850  0.00  0.00    +0.000 C 
ATOM     20  O   UNL     1       1.359   8.743  21.042  0.00  0.00    +0.000 OA
ATOM     21  N   UNL     1       1.054   9.366  18.831  0.00  0.00    +0.000 N 
ATOM     22  H   UNL     1       1.283   9.065  17.880  0.00  0.00    +0.000 HD
BRANCH  21  23
ATOM     23  N   UNL     1       0.293  10.561  18.999  0.00  0.00    +0.000 NA
ATOM     24  C   UNL     1       1.071  11.799  18.873  0.00  0.00    +0.000 C 
ATOM     25  C   UNL     1       0.237  13.008  19.331  0.00  0.00    +0.000 C 
ATOM     26  C   UNL     1      -1.081  13.107  18.570  0.00  0.00    +0.000 C 
ATOM     27  C   UNL     1      -1.826  11.776  18.623  0.00  0.00    +0.000 C 
ATOM     28  C   UNL     1      -0.933  10.603  18.190  0.00  0.00    +0.000 C 
ENDBRANCH  21  23
ENDBRANCH   3  19
TORSDOF 4
ENDMDL
MODEL 8
REMARK VINA RESULT:      -7.2      2.779      7.345
REMARK  Name = 
REMARK  5 active torsions:
REMARK  status: ('A' for Active; 'I' for Inactive)
REMARK    1  A    between atoms: C_1  and  C_2
REMARK    2  A    between atoms: C_3  and  C_4
REMARK    3  A    between atoms: N_6  and  N_7
REMARK    4  A    between atoms: N_14  and  C_15
REMARK    5  A    between atoms: C_21  and  C_22
REMARK                            x       y       z     vdW  Elec       q    Type
REMARK                         _______ _______ _______ _____ _____    ______ ____
ROOT
ATOM      1  C   UNL     1       3.802   8.624  17.331  0.00  0.00    +0.000 C 
ATOM      2  C   UNL     1       3.289   7.502  18.170  0.00  0.00    +0.000 A 
ATOM      3  C   UNL     1       2.223   7.567  19.138  0.00  0.00    +0.000 A 
ATOM      4  N   UNL     1       2.023   6.355  19.693  0.00  0.00    +0.000 NA
ATOM      5  N   UNL     1       2.989   5.553  19.179  0.00  0.00    +0.000 N 
ATOM      6  C   UNL     1       3.765   6.179  18.192  0.00  0.00    +0.000 A 
ENDROOT
BRANCH   5   7
ATOM      7  C   UNL     1       3.252   4.256  19.832  0.00  0.00    +0.000 C 
ATOM      8  C   UNL     1       2.389   3.934  21.074  0.00  0.00    +0.000 C 
ATOM      9  C   UNL     1       1.175   3.036  20.833  0.00  0.00    +0.000 C 
ATOM     10  C   UNL     1       1.491   1.798  20.007  0.00  0.00    +0.000 C 
ATOM     11  C   UNL     1       2.141   2.168  18.693  0.00  0.00    +0.000 C 
ATOM     12  C   UNL     1       3.358   3.055  18.867  0.00  0.00    +0.000 C 
ENDBRANCH   5   7
BRANCH   6  13
ATOM     13  C   UNL     1       4.913   5.568  17.439  0.00  0.00    +0.000 A 
ATOM     14  C   UNL     1       4.798   5.101  16.123  0.00  0.00    +0.000 A 
ATOM     15  C   UNL     1       5.821   4.418  15.456  0.00  0.00    +0.000 A 
ATOM     16  C   UNL     1       7.055   4.267  16.062  0.00  0.00    +0.000 A 
ATOM     17  C   UNL     1       7.249   4.806  17.327  0.00  0.00    +0.000 A 
ATOM     18  C   UNL     1       6.188   5.424  18.011  0.00  0.00    +0.000 A 
ENDBRANCH   6  13
BRANCH   3  19
ATOM     19  C   UNL     1       1.414   8.762  19.556  0.00  0.00    +0.000 C 
ATOM     20  O   UNL     1       1.205   9.058  20.724  0.00  0.00    +0.000 OA
ATOM     21  N   UNL     1       0.915   9.485  18.465  0.00  0.00    +0.000 N 
ATOM     22  H   UNL     1       1.167   9.112  17.546  0.00  0.00    +0.000 HD
BRANCH  21  23
ATOM     23  N   UNL     1       0.117  10.666  18.523  0.00  0.00    +0.000 NA
ATOM     24  C   UNL     1      -1.200  10.480  19.145  0.00  0.00    +0.000 C 
ATOM     25  C   UNL     1      -2.081  11.721  18.921  0.00  0.00    +0.000 C 
ATOM     26  C   UNL     1      -1.408  12.992  19.428  0.00  0.00    +0.000 C 
ATOM     27  C   UNL     1       0.001  13.113  18.854  0.00  0.00    +0.000 C 
ATOM     28  C   UNL     1       0.820  11.831  19.075  0.00  0.00    +0.000 C 
ENDBRANCH  21  23
ENDBRANCH   3  19
TORSDOF 4
ENDMDL
MODEL 9
REMARK VINA RESULT:      -7.2      2.627      7.728
REMARK  Name = 
REMARK  5 active torsions:
REMARK  status: ('A' for Active; 'I' for Inactive)
REMARK    1  A    between atoms: C_1  and  C_2
REMARK    2  A    between atoms: C_3  and  C_4
REMARK    3  A    between atoms: N_6  and  N_7
REMARK    4  A    between atoms: N_14  and  C_15
REMARK    5  A    between atoms: C_21  and  C_22
REMARK                            x       y       z     vdW  Elec       q    Type
REMARK                         _______ _______ _______ _____ _____    ______ ____
ROOT
ATOM      1  C   UNL     1       4.059   8.638  17.251  0.00  0.00    +0.000 C 
ATOM      2  C   UNL     1       3.373   7.454  17.846  0.00  0.00    +0.000 A 
ATOM      3  C   UNL     1       2.137   7.456  18.587  0.00  0.00    +0.000 A 
ATOM      4  N   UNL     1       1.813   6.200  18.956  0.00  0.00    +0.000 NA
ATOM      5  N   UNL     1       2.851   5.422  18.557  0.00  0.00    +0.000 N 
ATOM      6  C   UNL     1       3.816   6.119  17.816  0.00  0.00    +0.000 A 
ENDROOT
BRANCH   5   7
ATOM      7  C   UNL     1       2.960   4.056  19.103  0.00  0.00    +0.000 C 
ATOM      8  C   UNL     1       3.371   3.949  20.591  0.00  0.00    +0.000 C 
ATOM      9  C   UNL     1       2.231   3.754  21.590  0.00  0.00    +0.000 C 
ATOM     10  C   UNL     1       1.245   2.670  21.180  0.00  0.00    +0.000 C 
ATOM     11  C   UNL     1       0.693   2.927  19.796  0.00  0.00    +0.000 C 
ATOM     12  C   UNL     1       1.779   3.123  18.756  0.00  0.00    +0.000 C 
ENDBRANCH   5   7
BRANCH   6  13
ATOM     13  C   UNL     1       5.082   5.549  17.240  0.00  0.00    +0.000 A 
ATOM     14  C   UNL     1       5.226   5.233  15.884  0.00  0.00    +0.000 A 
ATOM     15  C   UNL     1       6.351   4.587  15.359  0.00  0.00    +0.000 A 
ATOM     16  C   UNL     1       7.435   4.324  16.176  0.00  0.00    +0.000 A 
ATOM     17  C   UNL     1       7.380   4.715  17.507  0.00  0.00    +0.000 A 
ATOM     18  C   UNL     1       6.213   5.296  18.033  0.00  0.00    +0.000 A 
ENDBRANCH   6  13
BRANCH   3  19
ATOM     19  C   UNL     1       1.278   8.629  18.967  0.00  0.00    +0.000 C 
ATOM     20  O   UNL     1       0.865   9.449  18.159  0.00  0.00    +0.000 OA
ATOM     21  N   UNL     1       1.020   8.686  20.341  0.00  0.00    +0.000 N 
ATOM     22  H   UNL     1       1.439   7.933  20.894  0.00  0.00    +0.000 HD
BRANCH  21  23
ATOM     23  N   UNL     1       0.238   9.670  21.018  0.00  0.00    +0.000 NA
ATOM     24  C   UNL     1       0.063   9.423  22.454  0.00  0.00    +0.000 C 
ATOM     25  C   UNL     1      -1.000  10.369  23.037  0.00  0.00    +0.000 C 
ATOM     26  C   UNL     1      -0.666  11.832  22.767  0.00  0.00    +0.000 C 
ATOM     27  C   UNL     1      -0.382  12.047  21.283  0.00  0.00    +0.000 C 
ATOM     28  C   UNL     1       0.659  11.051  20.750  0.00  0.00    +0.000 C 
ENDBRANCH  21  23
ENDBRANCH   3  19
TORSDOF 4
ENDMDL
