MODEL 1
REMARK VINA RESULT:      -8.7      0.000      0.000
REMARK  Name = 
REMARK  6 active torsions:
REMARK  status: ('A' for Active; 'I' for Inactive)
REMARK    1  A    between atoms: C_2  and  C_3
REMARK    2  A    between atoms: C_3  and  C_4
REMARK    3  A    between atoms: C_4  and  N_5
REMARK    4  A    between atoms: N_8  and  C_9
REMARK    5  A    between atoms: C_9  and  C_10
REMARK    6  A    between atoms: N_20  and  C_21
REMARK                            x       y       z     vdW  Elec       q    Type
REMARK                         _______ _______ _______ _____ _____    ______ ____
ROOT
ATOM      1  N   UNL     1       7.250   5.351  18.165  0.00  0.00    +0.000 NA
ATOM      2  C   UNL     1       6.158   5.345  19.161  0.00  0.00    +0.000 C 
ATOM      3  C   UNL     1       4.766   5.676  18.578  0.00  0.00    +0.000 C 
ATOM      4  N   UNL     1       4.355   4.781  17.483  0.00  0.00    +0.000 NA
ATOM      5  C   UNL     1       5.426   4.775  16.457  0.00  0.00    +0.000 C 
ATOM      6  C   UNL     1       6.851   4.503  17.013  0.00  0.00    +0.000 C 
ENDROOT
BRANCH   1   7
ATOM      7  C   UNL     1       7.592   6.706  17.693  0.00  0.00    +0.000 C 
BRANCH   7   8
ATOM      8  C   UNL     1       8.382   7.520  18.723  0.00  0.00    +0.000 C 
BRANCH   8  10
ATOM      9  O   UNL     1       7.646   9.457  17.507  0.00  0.00    +0.000 OA
ATOM     10  C   UNL     1       8.411   8.979  18.339  0.00  0.00    +0.000 C 
ATOM     11  N   UNL     1       9.381   9.672  19.038  0.00  0.00    +0.000 N 
ATOM     12  H   UNL     1      10.067   9.130  19.556  0.00  0.00    +0.000 HD
BRANCH  11  13
ATOM     13  C   UNL     1       9.618  11.058  18.984  0.00  0.00    +0.000 A 
ATOM     14  C   UNL     1      10.166  11.706  17.872  0.00  0.00    +0.000 A 
ATOM     15  C   UNL     1      10.411  13.081  17.916  0.00  0.00    +0.000 A 
ATOM     16  C   UNL     1      10.101  13.801  19.064  0.00  0.00    +0.000 A 
ATOM     17  F   UNL     1      10.364  15.114  19.105  0.00  0.00    +0.000 F 
ATOM     18  C   UNL     1       9.524  13.186  20.165  0.00  0.00    +0.000 A 
ATOM     19  C   UNL     1       9.279  11.820  20.111  0.00  0.00    +0.000 A 
ATOM     20  F   UNL     1       8.726  11.214  21.173  0.00  0.00    +0.000 F 
ENDBRANCH  11  13
ENDBRANCH   8  10
ENDBRANCH   7   8
ENDBRANCH   1   7
BRANCH   4  21
ATOM     21  C   UNL     1       4.076   3.404  17.934  0.00  0.00    +0.000 C 
BRANCH  21  22
ATOM     22  C   UNL     1       3.078   3.294  19.066  0.00  0.00    +0.000 A 
ATOM     23  C   UNL     1       3.481   2.700  20.270  0.00  0.00    +0.000 A 
ATOM     24  F   UNL     1       4.747   2.282  20.422  0.00  0.00    +0.000 F 
ATOM     25  C   UNL     1       2.603   2.520  21.335  0.00  0.00    +0.000 A 
ATOM     26  C   UNL     1       1.285   2.945  21.218  0.00  0.00    +0.000 A 
ATOM     27  C   UNL     1       0.863   3.556  20.039  0.00  0.00    +0.000 A 
ATOM     28  C   UNL     1       1.748   3.726  18.966  0.00  0.00    +0.000 A 
ATOM     29 CL   UNL     1       1.123   4.467  17.536  0.00  0.00    +0.000 Cl
ENDBRANCH  21  22
ENDBRANCH   4  21
TORSDOF 6
ENDMDL
MODEL 2
REMARK VINA RESULT:      -8.5      1.655      2.096
REMARK  Name = 
REMARK  6 active torsions:
REMARK  status: ('A' for Active; 'I' for Inactive)
REMARK    1  A    between atoms: C_2  and  C_3
REMARK    2  A    between atoms: C_3  and  C_4
REMARK    3  A    between atoms: C_4  and  N_5
REMARK    4  A    between atoms: N_8  and  C_9
REMARK    5  A    between atoms: C_9  and  C_10
REMARK    6  A    between atoms: N_20  and  C_21
REMARK                            x       y       z     vdW  Elec       q    Type
REMARK                         _______ _______ _______ _____ _____    ______ ____
ROOT
ATOM      1  N   UNL     1       6.831   5.559  18.062  0.00  0.00    +0.000 NA
ATOM      2  C   UNL     1       5.733   5.424  19.043  0.00  0.00    +0.000 C 
ATOM      3  C   UNL     1       4.335   5.766  18.481  0.00  0.00    +0.000 C 
ATOM      4  N   UNL     1       3.960   4.968  17.302  0.00  0.00    +0.000 NA
ATOM      5  C   UNL     1       5.037   5.092  16.290  0.00  0.00    +0.000 C 
ATOM      6  C   UNL     1       6.467   4.813  16.831  0.00  0.00    +0.000 C 
ENDROOT
BRANCH   1   7
ATOM      7  C   UNL     1       7.133   6.963  17.724  0.00  0.00    +0.000 C 
BRANCH   7   8
ATOM      8  C   UNL     1       8.362   7.508  18.459  0.00  0.00    +0.000 C 
BRANCH   8  10
ATOM      9  O   UNL     1       7.654   9.660  17.659  0.00  0.00    +0.000 OA
ATOM     10  C   UNL     1       8.395   9.015  18.396  0.00  0.00    +0.000 C 
ATOM     11  N   UNL     1       9.337   9.542  19.259  0.00  0.00    +0.000 N 
ATOM     12  H   UNL     1      10.009   8.902  19.672  0.00  0.00    +0.000 HD
BRANCH  11  13
ATOM     13  C   UNL     1       9.566  10.908  19.510  0.00  0.00    +0.000 A 
ATOM     14  C   UNL     1       9.204  11.546  20.701  0.00  0.00    +0.000 A 
ATOM     15  C   UNL     1       9.427  12.916  20.854  0.00  0.00    +0.000 A 
ATOM     16  C   UNL     1      10.014  13.640  19.823  0.00  0.00    +0.000 A 
ATOM     17  F   UNL     1      10.200  14.958  19.971  0.00  0.00    +0.000 F 
ATOM     18  C   UNL     1      10.413  13.022  18.648  0.00  0.00    +0.000 A 
ATOM     19  C   UNL     1      10.194  11.657  18.505  0.00  0.00    +0.000 A 
ATOM     20  F   UNL     1      10.572  11.051  17.370  0.00  0.00    +0.000 F 
ENDBRANCH  11  13
ENDBRANCH   8  10
ENDBRANCH   7   8
ENDBRANCH   1   7
BRANCH   4  21
ATOM     21  C   UNL     1       3.722   3.546  17.618  0.00  0.00    +0.000 C 
BRANCH  21  22
ATOM     22  C   UNL     1       2.830   3.299  18.815  0.00  0.00    +0.000 A 
ATOM     23  C   UNL     1       1.494   3.721  18.764  0.00  0.00    +0.000 A 
ATOM     24  F   UNL     1       1.011   4.290  17.648  0.00  0.00    +0.000 F 
ATOM     25  C   UNL     1       0.630   3.571  19.844  0.00  0.00    +0.000 A 
ATOM     26  C   UNL     1       1.091   2.981  21.015  0.00  0.00    +0.000 A 
ATOM     27  C   UNL     1       2.410   2.536  21.087  0.00  0.00    +0.000 A 
ATOM     28  C   UNL     1       3.278   2.697  19.998  0.00  0.00    +0.000 A 
ATOM     29 CL   UNL     1       4.902   2.140  20.195  0.00  0.00    +0.000 Cl
ENDBRANCH  21  22
ENDBRANCH   4  21
TORSDOF 6
ENDMDL
MODEL 3
REMARK VINA RESULT:      -8.5      0.895      1.278
REMARK  Name = 
REMARK  6 active torsions:
REMARK  status: ('A' for Active; 'I' for Inactive)
REMARK    1  A    between atoms: C_2  and  C_3
REMARK    2  A    between atoms: C_3  and  C_4
REMARK    3  A    between atoms: C_4  and  N_5
REMARK    4  A    between atoms: N_8  and  C_9
REMARK    5  A    between atoms: C_9  and  C_10
REMARK    6  A    between atoms: N_20  and  C_21
REMARK                            x       y       z     vdW  Elec       q    Type
REMARK                         _______ _______ _______ _____ _____    ______ ____
ROOT
ATOM      1  N   UNL     1       7.273   5.590  17.789  0.00  0.00    +0.000 NA
ATOM      2  C   UNL     1       6.396   5.407  18.966  0.00  0.00    +0.000 C 
ATOM      3  C   UNL     1       4.931   5.842  18.738  0.00  0.00    +0.000 C 
ATOM      4  N   UNL     1       4.280   5.161  17.606  0.00  0.00    +0.000 NA
ATOM      5  C   UNL     1       5.130   5.337  16.404  0.00  0.00    +0.000 C 
ATOM      6  C   UNL     1       6.625   4.965  16.608  0.00  0.00    +0.000 C 
ENDROOT
BRANCH   1   7
ATOM      7  C   UNL     1       7.569   7.007  17.506  0.00  0.00    +0.000 C 
BRANCH   7   8
ATOM      8  C   UNL     1       8.382   7.685  18.612  0.00  0.00    +0.000 C 
BRANCH   8  10
ATOM      9  O   UNL     1       7.725   9.748  17.572  0.00  0.00    +0.000 OA
ATOM     10  C   UNL     1       8.431   9.178  18.400  0.00  0.00    +0.000 C 
ATOM     11  N   UNL     1       9.341   9.785  19.243  0.00  0.00    +0.000 N 
ATOM     12  H   UNL     1       9.990   9.187  19.746  0.00  0.00    +0.000 HD
BRANCH  11  13
ATOM     13  C   UNL     1       9.571  11.169  19.365  0.00  0.00    +0.000 A 
ATOM     14  C   UNL     1       9.174  11.923  20.474  0.00  0.00    +0.000 A 
ATOM     15  C   UNL     1       9.401  13.301  20.497  0.00  0.00    +0.000 A 
ATOM     16  C   UNL     1      10.027  13.917  19.419  0.00  0.00    +0.000 A 
ATOM     17  F   UNL     1      10.216  15.243  19.441  0.00  0.00    +0.000 F 
ATOM     18  C   UNL     1      10.460  13.183  18.326  0.00  0.00    +0.000 A 
ATOM     19  C   UNL     1      10.237  11.812  18.312  0.00  0.00    +0.000 A 
ATOM     20  F   UNL     1      10.648  11.094  17.256  0.00  0.00    +0.000 F 
ENDBRANCH  11  13
ENDBRANCH   8  10
ENDBRANCH   7   8
ENDBRANCH   1   7
BRANCH   4  21
ATOM     21  C   UNL     1       4.041   3.726  17.854  0.00  0.00    +0.000 C 
BRANCH  21  22
ATOM     22  C   UNL     1       3.070   3.426  18.974  0.00  0.00    +0.000 A 
ATOM     23  C   UNL     1       3.554   2.843  20.154  0.00  0.00    +0.000 A 
ATOM     24  F   UNL     1       4.867   2.604  20.295  0.00  0.00    +0.000 F 
ATOM     25  C   UNL     1       2.712   2.494  21.205  0.00  0.00    +0.000 A 
ATOM     26  C   UNL     1       1.347   2.732  21.100  0.00  0.00    +0.000 A 
ATOM     27  C   UNL     1       0.841   3.327  19.945  0.00  0.00    +0.000 A 
ATOM     28  C   UNL     1       1.692   3.668  18.885  0.00  0.00    +0.000 A 
ATOM     29 CL   UNL     1       0.967   4.374  17.485  0.00  0.00    +0.000 Cl
ENDBRANCH  21  22
ENDBRANCH   4  21
TORSDOF 6
ENDMDL
MODEL 4
REMARK VINA RESULT:      -8.4      1.227      1.568
REMARK  Name = 
REMARK  6 active torsions:
REMARK  status: ('A' for Active; 'I' for Inactive)
REMARK    1  A    between atoms: C_2  and  C_3
REMARK    2  A    between atoms: C_3  and  C_4
REMARK    3  A    between atoms: C_4  and  N_5
REMARK    4  A    between atoms: N_8  and  C_9
REMARK    5  A    between atoms: C_9  and  C_10
REMARK    6  A    between atoms: N_20  and  C_21
REMARK                            x       y       z     vdW  Elec       q    Type
REMARK                         _______ _______ _______ _____ _____    ______ ____
ROOT
ATOM      1  N   UNL     1       6.103   6.599  16.766  0.00  0.00    +0.000 NA
ATOM      2  C   UNL     1       5.727   5.677  15.673  0.00  0.00    +0.000 C 
ATOM      3  C   UNL     1       5.832   4.180  16.041  0.00  0.00    +0.000 C 
ATOM      4  N   UNL     1       5.030   3.803  17.218  0.00  0.00    +0.000 NA
ATOM      5  C   UNL     1       5.394   4.702  18.339  0.00  0.00    +0.000 C 
ATOM      6  C   UNL     1       5.357   6.216  17.992  0.00  0.00    +0.000 C 
ENDROOT
BRANCH   1   7
ATOM      7  C   UNL     1       7.552   6.603  17.044  0.00  0.00    +0.000 C 
BRANCH   7   8
ATOM      8  C   UNL     1       7.911   7.291  18.364  0.00  0.00    +0.000 C 
BRANCH   8  10
ATOM      9  O   UNL     1       7.692   9.401  17.237  0.00  0.00    +0.000 OA
ATOM     10  C   UNL     1       8.215   8.752  18.138  0.00  0.00    +0.000 C 
ATOM     11  N   UNL     1       9.123   9.233  19.061  0.00  0.00    +0.000 N 
ATOM     12  H   UNL     1       9.618   8.556  19.634  0.00  0.00    +0.000 HD
BRANCH  11  13
ATOM     13  C   UNL     1       9.556  10.567  19.188  0.00  0.00    +0.000 A 
ATOM     14  C   UNL     1      10.042  11.326  18.118  0.00  0.00    +0.000 A 
ATOM     15  C   UNL     1      10.494  12.629  18.336  0.00  0.00    +0.000 A 
ATOM     16  C   UNL     1      10.452  13.170  19.617  0.00  0.00    +0.000 A 
ATOM     17  F   UNL     1      10.912  14.411  19.819  0.00  0.00    +0.000 F 
ATOM     18  C   UNL     1       9.942  12.448  20.684  0.00  0.00    +0.000 A 
ATOM     19  C   UNL     1       9.489  11.154  20.459  0.00  0.00    +0.000 A 
ATOM     20  F   UNL     1       8.998  10.446  21.487  0.00  0.00    +0.000 F 
ENDBRANCH  11  13
ENDBRANCH   8  10
ENDBRANCH   7   8
ENDBRANCH   1   7
BRANCH   4  21
ATOM     21  C   UNL     1       3.577   3.861  16.970  0.00  0.00    +0.000 C 
BRANCH  21  22
ATOM     22  C   UNL     1       2.712   3.614  18.187  0.00  0.00    +0.000 A 
ATOM     23  C   UNL     1       2.621   2.313  18.701  0.00  0.00    +0.000 A 
ATOM     24  F   UNL     1       3.331   1.319  18.144  0.00  0.00    +0.000 F 
ATOM     25  C   UNL     1       1.808   2.003  19.787  0.00  0.00    +0.000 A 
ATOM     26  C   UNL     1       1.062   3.005  20.395  0.00  0.00    +0.000 A 
ATOM     27  C   UNL     1       1.148   4.311  19.916  0.00  0.00    +0.000 A 
ATOM     28  C   UNL     1       1.962   4.616  18.816  0.00  0.00    +0.000 A 
ATOM     29 CL   UNL     1       1.979   6.258  18.278  0.00  0.00    +0.000 Cl
ENDBRANCH  21  22
ENDBRANCH   4  21
TORSDOF 6
ENDMDL
MODEL 5
REMARK VINA RESULT:      -8.3      1.552      1.953
REMARK  Name = 
REMARK  6 active torsions:
REMARK  status: ('A' for Active; 'I' for Inactive)
REMARK    1  A    between atoms: C_2  and  C_3
REMARK    2  A    between atoms: C_3  and  C_4
REMARK    3  A    between atoms: C_4  and  N_5
REMARK    4  A    between atoms: N_8  and  C_9
REMARK    5  A    between atoms: C_9  and  C_10
REMARK    6  A    between atoms: N_20  and  C_21
REMARK                            x       y       z     vdW  Elec       q    Type
REMARK                         _______ _______ _______ _____ _____    ______ ____
ROOT
ATOM      1  N   UNL     1       5.959   6.687  17.182  0.00  0.00    +0.000 NA
ATOM      2  C   UNL     1       5.379   6.049  15.981  0.00  0.00    +0.000 C 
ATOM      3  C   UNL     1       5.448   4.505  15.988  0.00  0.00    +0.000 C 
ATOM      4  N   UNL     1       4.800   3.889  17.158  0.00  0.00    +0.000 NA
ATOM      5  C   UNL     1       5.370   4.500  18.383  0.00  0.00    +0.000 C 
ATOM      6  C   UNL     1       5.373   6.054  18.390  0.00  0.00    +0.000 C 
ENDROOT
BRANCH   1   7
ATOM      7  C   UNL     1       7.430   6.592  17.231  0.00  0.00    +0.000 C 
BRANCH   7   8
ATOM      8  C   UNL     1       8.035   7.255  18.473  0.00  0.00    +0.000 C 
BRANCH   8  10
ATOM      9  O   UNL     1       7.610   9.361  17.399  0.00  0.00    +0.000 OA
ATOM     10  C   UNL     1       8.243   8.731  18.242  0.00  0.00    +0.000 C 
ATOM     11  N   UNL     1       9.205   9.250  19.086  0.00  0.00    +0.000 N 
ATOM     12  H   UNL     1       9.783   8.594  19.604  0.00  0.00    +0.000 HD
BRANCH  11  13
ATOM     13  C   UNL     1       9.580  10.603  19.193  0.00  0.00    +0.000 A 
ATOM     14  C   UNL     1      10.026  11.368  18.110  0.00  0.00    +0.000 A 
ATOM     15  C   UNL     1      10.421  12.693  18.308  0.00  0.00    +0.000 A 
ATOM     16  C   UNL     1      10.363  13.248  19.582  0.00  0.00    +0.000 A 
ATOM     17  F   UNL     1      10.768  14.512  19.765  0.00  0.00    +0.000 F 
ATOM     18  C   UNL     1       9.890  12.519  20.662  0.00  0.00    +0.000 A 
ATOM     19  C   UNL     1       9.493  11.204  20.456  0.00  0.00    +0.000 A 
ATOM     20  F   UNL     1       9.039  10.489  21.496  0.00  0.00    +0.000 F 
ENDBRANCH  11  13
ENDBRANCH   8  10
ENDBRANCH   7   8
ENDBRANCH   1   7
BRANCH   4  21
ATOM     21  C   UNL     1       3.332   4.038  17.152  0.00  0.00    +0.000 C 
BRANCH  21  22
ATOM     22  C   UNL     1       2.659   3.773  18.481  0.00  0.00    +0.000 A 
ATOM     23  C   UNL     1       1.995   4.826  19.127  0.00  0.00    +0.000 A 
ATOM     24  F   UNL     1       1.925   6.033  18.545  0.00  0.00    +0.000 F 
ATOM     25  C   UNL     1       1.397   4.668  20.373  0.00  0.00    +0.000 A 
ATOM     26  C   UNL     1       1.443   3.431  21.005  0.00  0.00    +0.000 A 
ATOM     27  C   UNL     1       2.080   2.362  20.377  0.00  0.00    +0.000 A 
ATOM     28  C   UNL     1       2.690   2.530  19.126  0.00  0.00    +0.000 A 
ATOM     29 CL   UNL     1       3.479   1.153  18.442  0.00  0.00    +0.000 Cl
ENDBRANCH  21  22
ENDBRANCH   4  21
TORSDOF 6
ENDMDL
MODEL 6
REMARK VINA RESULT:      -8.3      0.948      1.037
REMARK  Name = 
REMARK  6 active torsions:
REMARK  status: ('A' for Active; 'I' for Inactive)
REMARK    1  A    between atoms: C_2  and  C_3
REMARK    2  A    between atoms: C_3  and  C_4
REMARK    3  A    between atoms: C_4  and  N_5
REMARK    4  A    between atoms: N_8  and  C_9
REMARK    5  A    between atoms: C_9  and  C_10
REMARK    6  A    between atoms: N_20  and  C_21
REMARK                            x       y       z     vdW  Elec       q    Type
REMARK                         _______ _______ _______ _____ _____    ______ ____
ROOT
ATOM      1  N   UNL     1       7.363   5.317  18.072  0.00  0.00    +0.000 NA
ATOM      2  C   UNL     1       6.343   5.343  19.143  0.00  0.00    +0.000 C 
ATOM      3  C   UNL     1       4.910   5.634  18.646  0.00  0.00    +0.000 C 
ATOM      4  N   UNL     1       4.434   4.690  17.621  0.00  0.00    +0.000 NA
ATOM      5  C   UNL     1       5.431   4.650  16.524  0.00  0.00    +0.000 C 
ATOM      6  C   UNL     1       6.895   4.416  16.988  0.00  0.00    +0.000 C 
ENDROOT
BRANCH   1   7
ATOM      7  C   UNL     1       7.653   6.654  17.521  0.00  0.00    +0.000 C 
BRANCH   7   8
ATOM      8  C   UNL     1       8.229   7.622  18.559  0.00  0.00    +0.000 C 
BRANCH   8  10
ATOM      9  O   UNL     1       7.519   9.397  17.105  0.00  0.00    +0.000 OA
ATOM     10  C   UNL     1       8.251   9.031  18.021  0.00  0.00    +0.000 C 
ATOM     11  N   UNL     1       9.170   9.818  18.686  0.00  0.00    +0.000 N 
ATOM     12  H   UNL     1       9.839   9.353  19.293  0.00  0.00    +0.000 HD
BRANCH  11  13
ATOM     13  C   UNL     1       9.382  11.197  18.493  0.00  0.00    +0.000 A 
ATOM     14  C   UNL     1       8.401  12.069  18.011  0.00  0.00    +0.000 A 
ATOM     15  C   UNL     1       8.706  13.416  17.805  0.00  0.00    +0.000 A 
ATOM     16  C   UNL     1       9.984  13.887  18.088  0.00  0.00    +0.000 A 
ATOM     17  F   UNL     1      10.272  15.175  17.863  0.00  0.00    +0.000 F 
ATOM     18  C   UNL     1      10.961  13.047  18.601  0.00  0.00    +0.000 A 
ATOM     19  C   UNL     1      10.648  11.710  18.808  0.00  0.00    +0.000 A 
ATOM     20  F   UNL     1      11.589  10.888  19.299  0.00  0.00    +0.000 F 
ENDBRANCH  11  13
ENDBRANCH   8  10
ENDBRANCH   7   8
ENDBRANCH   1   7
BRANCH   4  21
ATOM     21  C   UNL     1       4.206   3.331  18.149  0.00  0.00    +0.000 C 
BRANCH  21  22
ATOM     22  C   UNL     1       3.159   3.237  19.237  0.00  0.00    +0.000 A 
ATOM     23  C   UNL     1       3.509   2.663  20.468  0.00  0.00    +0.000 A 
ATOM     24  F   UNL     1       4.767   2.249  20.682  0.00  0.00    +0.000 F 
ATOM     25  C   UNL     1       2.585   2.499  21.496  0.00  0.00    +0.000 A 
ATOM     26  C   UNL     1       1.273   2.920  21.314  0.00  0.00    +0.000 A 
ATOM     27  C   UNL     1       0.903   3.511  20.107  0.00  0.00    +0.000 A 
ATOM     28  C   UNL     1       1.835   3.665  19.072  0.00  0.00    +0.000 A 
ATOM     29 CL   UNL     1       1.272   4.382  17.604  0.00  0.00    +0.000 Cl
ENDBRANCH  21  22
ENDBRANCH   4  21
TORSDOF 6
ENDMDL
MODEL 7
REMARK VINA RESULT:      -8.2      1.561      2.089
REMARK  Name = 
REMARK  6 active torsions:
REMARK  status: ('A' for Active; 'I' for Inactive)
REMARK    1  A    between atoms: C_2  and  C_3
REMARK    2  A    between atoms: C_3  and  C_4
REMARK    3  A    between atoms: C_4  and  N_5
REMARK    4  A    between atoms: N_8  and  C_9
REMARK    5  A    between atoms: C_9  and  C_10
REMARK    6  A    between atoms: N_20  and  C_21
REMARK                            x       y       z     vdW  Elec       q    Type
REMARK                         _______ _______ _______ _____ _____    ______ ____
ROOT
ATOM      1  N   UNL     1       5.965   7.064  17.019  0.00  0.00    +0.000 NA
ATOM      2  C   UNL     1       5.302   6.377  15.890  0.00  0.00    +0.000 C 
ATOM      3  C   UNL     1       5.304   4.835  15.996  0.00  0.00    +0.000 C 
ATOM      4  N   UNL     1       4.687   4.326  17.232  0.00  0.00    +0.000 NA
ATOM      5  C   UNL     1       5.341   4.987  18.387  0.00  0.00    +0.000 C 
ATOM      6  C   UNL     1       5.411   6.537  18.291  0.00  0.00    +0.000 C 
ENDROOT
BRANCH   1   7
ATOM      7  C   UNL     1       7.432   6.904  17.008  0.00  0.00    +0.000 C 
BRANCH   7   8
ATOM      8  C   UNL     1       8.097   7.366  18.308  0.00  0.00    +0.000 C 
BRANCH   8  10
ATOM      9  O   UNL     1       7.644   9.606  17.569  0.00  0.00    +0.000 OA
ATOM     10  C   UNL     1       8.281   8.863  18.311  0.00  0.00    +0.000 C 
ATOM     11  N   UNL     1       9.227   9.261  19.236  0.00  0.00    +0.000 N 
ATOM     12  H   UNL     1       9.812   8.542  19.652  0.00  0.00    +0.000 HD
BRANCH  11  13
ATOM     13  C   UNL     1       9.576  10.587  19.555  0.00  0.00    +0.000 A 
ATOM     14  C   UNL     1       9.316  11.177  20.796  0.00  0.00    +0.000 A 
ATOM     15  C   UNL     1       9.655  12.514  21.017  0.00  0.00    +0.000 A 
ATOM     16  C   UNL     1      10.256  13.251  20.003  0.00  0.00    +0.000 A 
ATOM     17  F   UNL     1      10.554  14.539  20.217  0.00  0.00    +0.000 F 
ATOM     18  C   UNL     1      10.555  12.676  18.778  0.00  0.00    +0.000 A 
ATOM     19  C   UNL     1      10.220  11.344  18.567  0.00  0.00    +0.000 A 
ATOM     20  F   UNL     1      10.501  10.780  17.382  0.00  0.00    +0.000 F 
ENDBRANCH  11  13
ENDBRANCH   8  10
ENDBRANCH   7   8
ENDBRANCH   1   7
BRANCH   4  21
ATOM     21  C   UNL     1       3.228   4.543  17.282  0.00  0.00    +0.000 C 
BRANCH  21  22
ATOM     22  C   UNL     1       2.544   3.992  18.514  0.00  0.00    +0.000 A 
ATOM     23  C   UNL     1       2.355   2.607  18.623  0.00  0.00    +0.000 A 
ATOM     24  F   UNL     1       2.819   1.788  17.666  0.00  0.00    +0.000 F 
ATOM     25  C   UNL     1       1.690   2.034  19.703  0.00  0.00    +0.000 A 
ATOM     26  C   UNL     1       1.199   2.848  20.717  0.00  0.00    +0.000 A 
ATOM     27  C   UNL     1       1.390   4.227  20.643  0.00  0.00    +0.000 A 
ATOM     28  C   UNL     1       2.052   4.799  19.548  0.00  0.00    +0.000 A 
ATOM     29 CL   UNL     1       2.212   6.520  19.534  0.00  0.00    +0.000 Cl
ENDBRANCH  21  22
ENDBRANCH   4  21
TORSDOF 6
ENDMDL
MODEL 8
REMARK VINA RESULT:      -8.1      1.458      1.866
REMARK  Name = 
REMARK  6 active torsions:
REMARK  status: ('A' for Active; 'I' for Inactive)
REMARK    1  A    between atoms: C_2  and  C_3
REMARK    2  A    between atoms: C_3  and  C_4
REMARK    3  A    between atoms: C_4  and  N_5
REMARK    4  A    between atoms: N_8  and  C_9
REMARK    5  A    between atoms: C_9  and  C_10
REMARK    6  A    between atoms: N_20  and  C_21
REMARK                            x       y       z     vdW  Elec       q    Type
REMARK                         _______ _______ _______ _____ _____    ______ ____
ROOT
ATOM      1  N   UNL     1       6.433   6.487  16.776  0.00  0.00    +0.000 NA
ATOM      2  C   UNL     1       6.717   5.051  16.568  0.00  0.00    +0.000 C 
ATOM      3  C   UNL     1       6.904   4.245  17.873  0.00  0.00    +0.000 C 
ATOM      4  N   UNL     1       5.755   4.329  18.790  0.00  0.00    +0.000 NA
ATOM      5  C   UNL     1       5.452   5.760  19.031  0.00  0.00    +0.000 C 
ATOM      6  C   UNL     1       5.313   6.617  17.743  0.00  0.00    +0.000 C 
ENDROOT
BRANCH   1   7
ATOM      7  C   UNL     1       7.604   7.241  17.263  0.00  0.00    +0.000 C 
BRANCH   7   8
ATOM      8  C   UNL     1       7.319   8.732  17.465  0.00  0.00    +0.000 C 
BRANCH   8  10
ATOM      9  O   UNL     1       9.054   8.765  19.126  0.00  0.00    +0.000 OA
ATOM     10  C   UNL     1       8.414   9.379  18.278  0.00  0.00    +0.000 C 
ATOM     11  N   UNL     1       8.587  10.706  17.936  0.00  0.00    +0.000 N 
ATOM     12  H   UNL     1       7.876  11.141  17.356  0.00  0.00    +0.000 HD
BRANCH  11  13
ATOM     13  C   UNL     1       9.576  11.574  18.437  0.00  0.00    +0.000 A 
ATOM     14  C   UNL     1      10.609  11.160  19.284  0.00  0.00    +0.000 A 
ATOM     15  C   UNL     1      11.526  12.093  19.774  0.00  0.00    +0.000 A 
ATOM     16  C   UNL     1      11.411  13.430  19.411  0.00  0.00    +0.000 A 
ATOM     17  F   UNL     1      12.281  14.321  19.906  0.00  0.00    +0.000 F 
ATOM     18  C   UNL     1      10.417  13.856  18.544  0.00  0.00    +0.000 A 
ATOM     19  C   UNL     1       9.512  12.921  18.057  0.00  0.00    +0.000 A 
ATOM     20  F   UNL     1       8.543  13.324  17.222  0.00  0.00    +0.000 F 
ENDBRANCH  11  13
ENDBRANCH   8  10
ENDBRANCH   7   8
ENDBRANCH   1   7
BRANCH   4  21
ATOM     21  C   UNL     1       4.557   3.634  18.280  0.00  0.00    +0.000 C 
BRANCH  21  22
ATOM     22  C   UNL     1       3.419   3.515  19.271  0.00  0.00    +0.000 A 
ATOM     23  C   UNL     1       3.580   2.688  20.392  0.00  0.00    +0.000 A 
ATOM     24  F   UNL     1       4.746   2.055  20.598  0.00  0.00    +0.000 F 
ATOM     25  C   UNL     1       2.560   2.492  21.317  0.00  0.00    +0.000 A 
ATOM     26  C   UNL     1       1.341   3.134  21.142  0.00  0.00    +0.000 A 
ATOM     27  C   UNL     1       1.160   3.976  20.046  0.00  0.00    +0.000 A 
ATOM     28  C   UNL     1       2.187   4.163  19.112  0.00  0.00    +0.000 A 
ATOM     29 CL   UNL     1       1.857   5.203  17.772  0.00  0.00    +0.000 Cl
ENDBRANCH  21  22
ENDBRANCH   4  21
TORSDOF 6
ENDMDL
MODEL 9
REMARK VINA RESULT:      -7.8      1.883      2.221
REMARK  Name = 
REMARK  6 active torsions:
REMARK  status: ('A' for Active; 'I' for Inactive)
REMARK    1  A    between atoms: C_2  and  C_3
REMARK    2  A    between atoms: C_3  and  C_4
REMARK    3  A    between atoms: C_4  and  N_5
REMARK    4  A    between atoms: N_8  and  C_9
REMARK    5  A    between atoms: C_9  and  C_10
REMARK    6  A    between atoms: N_20  and  C_21
REMARK                            x       y       z     vdW  Elec       q    Type
REMARK                         _______ _______ _______ _____ _____    ______ ____
ROOT
ATOM      1  N   UNL     1       6.227   5.466  16.927  0.00  0.00    +0.000 NA
ATOM      2  C   UNL     1       5.566   4.628  17.950  0.00  0.00    +0.000 C 
ATOM      3  C   UNL     1       4.779   5.427  19.013  0.00  0.00    +0.000 C 
ATOM      4  N   UNL     1       3.746   6.309  18.445  0.00  0.00    +0.000 NA
ATOM      5  C   UNL     1       4.380   7.175  17.421  0.00  0.00    +0.000 C 
ATOM      6  C   UNL     1       5.229   6.413  16.366  0.00  0.00    +0.000 C 
ENDROOT
BRANCH   1   7
ATOM      7  C   UNL     1       7.384   6.214  17.454  0.00  0.00    +0.000 C 
BRANCH   7   8
ATOM      8  C   UNL     1       7.377   7.693  17.057  0.00  0.00    +0.000 C 
BRANCH   8  10
ATOM      9  O   UNL     1       8.734   8.014  19.013  0.00  0.00    +0.000 OA
ATOM     10  C   UNL     1       8.184   8.511  18.035  0.00  0.00    +0.000 C 
ATOM     11  N   UNL     1       8.217   9.846  17.679  0.00  0.00    +0.000 N 
ATOM     12  H   UNL     1       7.573  10.159  16.958  0.00  0.00    +0.000 HD
BRANCH  11  13
ATOM     13  C   UNL     1       8.948  10.862  18.322  0.00  0.00    +0.000 A 
ATOM     14  C   UNL     1       9.876  10.620  19.341  0.00  0.00    +0.000 A 
ATOM     15  C   UNL     1      10.527  11.690  19.960  0.00  0.00    +0.000 A 
ATOM     16  C   UNL     1      10.255  12.992  19.555  0.00  0.00    +0.000 A 
ATOM     17  F   UNL     1      10.867  14.011  20.173  0.00  0.00    +0.000 F 
ATOM     18  C   UNL     1       9.366  13.252  18.524  0.00  0.00    +0.000 A 
ATOM     19  C   UNL     1       8.726  12.183  17.909  0.00  0.00    +0.000 A 
ATOM     20  F   UNL     1       7.861  12.426  16.914  0.00  0.00    +0.000 F 
ENDBRANCH  11  13
ENDBRANCH   8  10
ENDBRANCH   7   8
ENDBRANCH   1   7
BRANCH   4  21
ATOM     21  C   UNL     1       2.614   5.569  17.853  0.00  0.00    +0.000 C 
BRANCH  21  22
ATOM     22  C   UNL     1       2.079   4.437  18.703  0.00  0.00    +0.000 A 
ATOM     23  C   UNL     1       2.022   3.147  18.157  0.00  0.00    +0.000 A 
ATOM     24  F   UNL     1       2.481   2.922  16.916  0.00  0.00    +0.000 F 
ATOM     25  C   UNL     1       1.496   2.069  18.862  0.00  0.00    +0.000 A 
ATOM     26  C   UNL     1       1.015   2.261  20.152  0.00  0.00    +0.000 A 
ATOM     27  C   UNL     1       1.077   3.529  20.726  0.00  0.00    +0.000 A 
ATOM     28  C   UNL     1       1.599   4.614  20.008  0.00  0.00    +0.000 A 
ATOM     29 CL   UNL     1       1.606   6.152  20.795  0.00  0.00    +0.000 Cl
ENDBRANCH  21  22
ENDBRANCH   4  21
TORSDOF 6
ENDMDL
