MODEL 1
REMARK VINA RESULT:      -7.5      0.000      0.000
REMARK  Name = 
REMARK  12 active torsions:
REMARK  status: ('A' for Active; 'I' for Inactive)
REMARK    1  A    between atoms: C_1  and  N_2
REMARK    2  A    between atoms: C_4  and  O_5
REMARK    3  A    between atoms: O_5  and  C_6
REMARK    4  A    between atoms: C_6  and  C_7
REMARK    5  A    between atoms: C_16  and  C_17
REMARK    6  A    between atoms: C_17  and  N_18
REMARK    7  A    between atoms: N_18  and  C_19
REMARK    8  A    between atoms: C_19  and  C_20
REMARK    9  A    between atoms: C_20  and  C_21
REMARK   10  A    between atoms: C_21  and  C_22
REMARK   11  A    between atoms: C_22  and  N_23
REMARK   12  A    between atoms: N_23  and  C_24
REMARK                            x       y       z     vdW  Elec       q    Type
REMARK                         _______ _______ _______ _____ _____    ______ ____
ROOT
ATOM      1  N   UNL     1       4.056   2.961  17.065  0.00  0.00    +0.000 NA
ATOM      2  H   UNL     1       3.228   3.085  16.477  0.00  0.00    +0.000 HD
ENDROOT
BRANCH   1   3
ATOM      3  C   UNL     1       5.228   3.431  16.290  0.00  0.00    +0.000 C 
BRANCH   3  11
ATOM      4  C   UNL     1       6.731   5.528  14.702  0.00  0.00    +0.000 C 
ATOM      5  N   UNL     1       6.844   5.500  16.166  0.00  0.00    +0.000 N 
ATOM      6  C   UNL     1       7.575   6.511  16.794  0.00  0.00    +0.000 A 
ATOM      7  C   UNL     1       7.774   6.682  18.112  0.00  0.00    +0.000 A 
ATOM      8  C   UNL     1       7.130   5.652  18.982  0.00  0.00    +0.000 A 
ATOM      9  O   UNL     1       7.209   5.686  20.215  0.00  0.00    +0.000 OA
ATOM     10  C   UNL     1       6.332   4.571  18.296  0.00  0.00    +0.000 A 
ATOM     11  C   UNL     1       6.202   4.503  16.946  0.00  0.00    +0.000 A 
BRANCH   7  12
ATOM     12  O   UNL     1       8.499   7.788  18.545  0.00  0.00    +0.000 OA
BRANCH  12  13
ATOM     13  C   UNL     1       8.103   9.093  18.118  0.00  0.00    +0.000 C 
BRANCH  13  14
ATOM     14  C   UNL     1       9.056  10.143  18.676  0.00  0.00    +0.000 A 
ATOM     15  C   UNL     1       9.846  10.968  17.854  0.00  0.00    +0.000 A 
ATOM     16  C   UNL     1      10.719  11.916  18.404  0.00  0.00    +0.000 A 
ATOM     17  C   UNL     1      10.809  12.074  19.784  0.00  0.00    +0.000 A 
ATOM     18  C   UNL     1      10.006  11.285  20.611  0.00  0.00    +0.000 A 
ATOM     19  C   UNL     1       9.152  10.334  20.073  0.00  0.00    +0.000 A 
ENDBRANCH  13  14
ENDBRANCH  12  13
ENDBRANCH   7  12
ENDBRANCH   3  11
ENDBRANCH   1   3
BRANCH   1  20
ATOM     20  C   UNL     1       4.080   1.521  17.509  0.00  0.00    +0.000 C 
BRANCH  20  21
ATOM     21  C   UNL     1       3.826   1.223  19.013  0.00  0.00    +0.000 C 
BRANCH  21  22
ATOM     22  C   UNL     1       4.168   2.310  20.141  0.00  0.00    +0.000 C 
BRANCH  22  23
ATOM     23  C   UNL     1       3.512   2.186  21.527  0.00  0.00    +0.000 C 
BRANCH  23  24
ATOM     24  N   UNL     1       2.415   3.158  21.841  0.00  0.00    +0.000 N 
ATOM     25  H   UNL     1       1.683   2.500  22.143  0.00  0.00    +0.000 HD
BRANCH  24  26
ATOM     26  C   UNL     1       1.604   4.069  21.087  0.00  0.00    +0.000 A 
ATOM     27  C   UNL     1       0.633   3.338  20.393  0.00  0.00    +0.000 A 
ATOM     28  C   UNL     1       0.803   3.267  19.021  0.00  0.00    +0.000 A 
ATOM     29  N   UNL     1       1.685   4.028  18.335  0.00  0.00    +0.000 NA
ATOM     30  C   UNL     1       2.161   5.089  18.982  0.00  0.00    +0.000 A 
ATOM     31  C   UNL     1       2.566   6.169  18.209  0.00  0.00    +0.000 A 
ATOM     32  C   UNL     1       2.456   7.457  18.709  0.00  0.00    +0.000 A 
ATOM     33 CL   UNL     1       2.786   8.804  17.692  0.00  0.00    +0.000 Cl
ATOM     34  C   UNL     1       1.949   7.652  19.990  0.00  0.00    +0.000 A 
ATOM     35  C   UNL     1       1.764   6.539  20.837  0.00  0.00    +0.000 A 
ATOM     36  C   UNL     1       2.003   5.220  20.378  0.00  0.00    +0.000 A 
ENDBRANCH  24  26
ENDBRANCH  23  24
ENDBRANCH  22  23
ENDBRANCH  21  22
ENDBRANCH  20  21
ENDBRANCH   1  20
TORSDOF 11
ENDMDL
MODEL 2
REMARK VINA RESULT:      -7.2      5.556      8.789
REMARK  Name = 
REMARK  12 active torsions:
REMARK  status: ('A' for Active; 'I' for Inactive)
REMARK    1  A    between atoms: C_1  and  N_2
REMARK    2  A    between atoms: C_4  and  O_5
REMARK    3  A    between atoms: O_5  and  C_6
REMARK    4  A    between atoms: C_6  and  C_7
REMARK    5  A    between atoms: C_16  and  C_17
REMARK    6  A    between atoms: C_17  and  N_18
REMARK    7  A    between atoms: N_18  and  C_19
REMARK    8  A    between atoms: C_19  and  C_20
REMARK    9  A    between atoms: C_20  and  C_21
REMARK   10  A    between atoms: C_21  and  C_22
REMARK   11  A    between atoms: C_22  and  N_23
REMARK   12  A    between atoms: N_23  and  C_24
REMARK                            x       y       z     vdW  Elec       q    Type
REMARK                         _______ _______ _______ _____ _____    ______ ____
ROOT
ATOM      1  N   UNL     1       1.395   6.999  20.968  0.00  0.00    +0.000 NA
ATOM      2  H   UNL     1       0.383   6.853  20.904  0.00  0.00    +0.000 HD
ENDROOT
BRANCH   1   3
ATOM      3  C   UNL     1       1.681   8.362  20.459  0.00  0.00    +0.000 C 
BRANCH   3  11
ATOM      4  C   UNL     1       0.581   9.379  23.092  0.00  0.00    +0.000 C 
ATOM      5  N   UNL     1       0.105   9.958  21.829  0.00  0.00    +0.000 N 
ATOM      6  C   UNL     1      -0.782  11.035  21.885  0.00  0.00    +0.000 A 
ATOM      7  C   UNL     1      -1.309  11.719  20.856  0.00  0.00    +0.000 A 
ATOM      8  C   UNL     1      -0.883  11.245  19.505  0.00  0.00    +0.000 A 
ATOM      9  O   UNL     1      -1.270  11.785  18.463  0.00  0.00    +0.000 OA
ATOM     10  C   UNL     1       0.085  10.088  19.452  0.00  0.00    +0.000 A 
ATOM     11  C   UNL     1       0.551   9.474  20.570  0.00  0.00    +0.000 A 
BRANCH   7  12
ATOM     12  O   UNL     1      -2.143  12.801  21.123  0.00  0.00    +0.000 OA
BRANCH  12  13
ATOM     13  C   UNL     1      -3.049  12.728  22.225  0.00  0.00    +0.000 C 
BRANCH  13  14
ATOM     14  C   UNL     1      -2.641  13.718  23.309  0.00  0.00    +0.000 A 
ATOM     15  C   UNL     1      -3.425  13.961  24.453  0.00  0.00    +0.000 A 
ATOM     16  C   UNL     1      -3.023  14.887  25.424  0.00  0.00    +0.000 A 
ATOM     17  C   UNL     1      -1.823  15.577  25.285  0.00  0.00    +0.000 A 
ATOM     18  C   UNL     1      -1.018  15.322  24.172  0.00  0.00    +0.000 A 
ATOM     19  C   UNL     1      -1.419  14.418  23.199  0.00  0.00    +0.000 A 
ENDBRANCH  13  14
ENDBRANCH  12  13
ENDBRANCH   7  12
ENDBRANCH   3  11
ENDBRANCH   1   3
BRANCH   1  20
ATOM     20  C   UNL     1       2.059   5.859  20.238  0.00  0.00    +0.000 C 
BRANCH  20  21
ATOM     21  C   UNL     1       1.809   4.419  20.767  0.00  0.00    +0.000 C 
BRANCH  21  22
ATOM     22  C   UNL     1       0.593   3.534  20.215  0.00  0.00    +0.000 C 
BRANCH  22  23
ATOM     23  C   UNL     1       0.843   2.550  19.059  0.00  0.00    +0.000 C 
BRANCH  23  24
ATOM     24  N   UNL     1       1.765   3.013  17.972  0.00  0.00    +0.000 N 
ATOM     25  H   UNL     1       1.418   2.435  17.193  0.00  0.00    +0.000 HD
BRANCH  24  26
ATOM     26  C   UNL     1       3.172   2.922  17.710  0.00  0.00    +0.000 A 
ATOM     27  C   UNL     1       3.663   1.749  18.294  0.00  0.00    +0.000 A 
ATOM     28  C   UNL     1       4.472   1.925  19.405  0.00  0.00    +0.000 A 
ATOM     29  N   UNL     1       4.972   3.122  19.785  0.00  0.00    +0.000 NA
ATOM     30  C   UNL     1       4.930   4.086  18.868  0.00  0.00    +0.000 A 
ATOM     31  C   UNL     1       5.891   5.083  18.958  0.00  0.00    +0.000 A 
ATOM     32  C   UNL     1       6.348   5.709  17.808  0.00  0.00    +0.000 A 
ATOM     33 CL   UNL     1       7.662   6.815  17.898  0.00  0.00    +0.000 Cl
ATOM     34  C   UNL     1       5.826   5.335  16.574  0.00  0.00    +0.000 A 
ATOM     35  C   UNL     1       4.696   4.494  16.527  0.00  0.00    +0.000 A 
ATOM     36  C   UNL     1       4.134   3.953  17.710  0.00  0.00    +0.000 A 
ENDBRANCH  24  26
ENDBRANCH  23  24
ENDBRANCH  22  23
ENDBRANCH  21  22
ENDBRANCH  20  21
ENDBRANCH   1  20
TORSDOF 11
ENDMDL
MODEL 3
REMARK VINA RESULT:      -7.1      5.658      7.710
REMARK  Name = 
REMARK  12 active torsions:
REMARK  status: ('A' for Active; 'I' for Inactive)
REMARK    1  A    between atoms: C_1  and  N_2
REMARK    2  A    between atoms: C_4  and  O_5
REMARK    3  A    between atoms: O_5  and  C_6
REMARK    4  A    between atoms: C_6  and  C_7
REMARK    5  A    between atoms: C_16  and  C_17
REMARK    6  A    between atoms: C_17  and  N_18
REMARK    7  A    between atoms: N_18  and  C_19
REMARK    8  A    between atoms: C_19  and  C_20
REMARK    9  A    between atoms: C_20  and  C_21
REMARK   10  A    between atoms: C_21  and  C_22
REMARK   11  A    between atoms: C_22  and  N_23
REMARK   12  A    between atoms: N_23  and  C_24
REMARK                            x       y       z     vdW  Elec       q    Type
REMARK                         _______ _______ _______ _____ _____    ______ ____
ROOT
ATOM      1  N   UNL     1       2.095   7.596  20.395  0.00  0.00    +0.000 NA
ATOM      2  H   UNL     1       2.951   8.011  20.773  0.00  0.00    +0.000 HD
ENDROOT
BRANCH   1   3
ATOM      3  C   UNL     1       0.950   8.377  20.922  0.00  0.00    +0.000 C 
BRANCH   3  11
ATOM      4  C   UNL     1       1.142   9.464  18.102  0.00  0.00    +0.000 C 
ATOM      5  N   UNL     1       0.890  10.380  19.222  0.00  0.00    +0.000 N 
ATOM      6  C   UNL     1       0.652  11.726  18.937  0.00  0.00    +0.000 A 
ATOM      7  C   UNL     1       0.375  12.712  19.807  0.00  0.00    +0.000 A 
ATOM      8  C   UNL     1       0.330  12.290  21.240  0.00  0.00    +0.000 A 
ATOM      9  O   UNL     1       0.070  13.080  22.154  0.00  0.00    +0.000 OA
ATOM     10  C   UNL     1       0.576  10.831  21.538  0.00  0.00    +0.000 A 
ATOM     11  C   UNL     1       0.848   9.923  20.566  0.00  0.00    +0.000 A 
BRANCH   7  12
ATOM     12  O   UNL     1       0.119  13.990  19.318  0.00  0.00    +0.000 OA
BRANCH  12  13
ATOM     13  C   UNL     1       1.026  15.049  19.628  0.00  0.00    +0.000 C 
BRANCH  13  14
ATOM     14  C   UNL     1       0.868  16.189  18.628  0.00  0.00    +0.000 A 
ATOM     15  C   UNL     1      -0.377  16.773  18.328  0.00  0.00    +0.000 A 
ATOM     16  C   UNL     1      -0.485  17.812  17.395  0.00  0.00    +0.000 A 
ATOM     17  C   UNL     1       0.648  18.303  16.754  0.00  0.00    +0.000 A 
ATOM     18  C   UNL     1       1.895  17.756  17.065  0.00  0.00    +0.000 A 
ATOM     19  C   UNL     1       2.006  16.716  17.977  0.00  0.00    +0.000 A 
ENDBRANCH  13  14
ENDBRANCH  12  13
ENDBRANCH   7  12
ENDBRANCH   3  11
ENDBRANCH   1   3
BRANCH   1  20
ATOM     20  C   UNL     1       2.117   6.128  20.735  0.00  0.00    +0.000 C 
BRANCH  20  21
ATOM     21  C   UNL     1       1.474   5.141  19.721  0.00  0.00    +0.000 C 
BRANCH  21  22
ATOM     22  C   UNL     1       1.205   3.610  20.113  0.00  0.00    +0.000 C 
BRANCH  22  23
ATOM     23  C   UNL     1       0.716   2.632  19.031  0.00  0.00    +0.000 C 
BRANCH  23  24
ATOM     24  N   UNL     1       1.769   1.850  18.307  0.00  0.00    +0.000 N 
ATOM     25  H   UNL     1       1.852   1.043  18.942  0.00  0.00    +0.000 HD
BRANCH  24  26
ATOM     26  C   UNL     1       3.157   2.036  17.997  0.00  0.00    +0.000 A 
ATOM     27  C   UNL     1       3.907   1.098  18.713  0.00  0.00    +0.000 A 
ATOM     28  C   UNL     1       4.670   1.606  19.752  0.00  0.00    +0.000 A 
ATOM     29  N   UNL     1       4.891   2.926  19.942  0.00  0.00    +0.000 NA
ATOM     30  C   UNL     1       4.621   3.714  18.904  0.00  0.00    +0.000 A 
ATOM     31  C   UNL     1       5.333   4.902  18.814  0.00  0.00    +0.000 A 
ATOM     32  C   UNL     1       5.621   5.442  17.570  0.00  0.00    +0.000 A 
ATOM     33 CL   UNL     1       6.653   6.813  17.448  0.00  0.00    +0.000 Cl
ATOM     34  C   UNL     1       5.182   4.789  16.423  0.00  0.00    +0.000 A 
ATOM     35  C   UNL     1       4.270   3.720  16.543  0.00  0.00    +0.000 A 
ATOM     36  C   UNL     1       3.861   3.243  17.813  0.00  0.00    +0.000 A 
ENDBRANCH  24  26
ENDBRANCH  23  24
ENDBRANCH  22  23
ENDBRANCH  21  22
ENDBRANCH  20  21
ENDBRANCH   1  20
TORSDOF 11
ENDMDL
MODEL 4
REMARK VINA RESULT:      -7.1      4.431      8.313
REMARK  Name = 
REMARK  12 active torsions:
REMARK  status: ('A' for Active; 'I' for Inactive)
REMARK    1  A    between atoms: C_1  and  N_2
REMARK    2  A    between atoms: C_4  and  O_5
REMARK    3  A    between atoms: O_5  and  C_6
REMARK    4  A    between atoms: C_6  and  C_7
REMARK    5  A    between atoms: C_16  and  C_17
REMARK    6  A    between atoms: C_17  and  N_18
REMARK    7  A    between atoms: N_18  and  C_19
REMARK    8  A    between atoms: C_19  and  C_20
REMARK    9  A    between atoms: C_20  and  C_21
REMARK   10  A    between atoms: C_21  and  C_22
REMARK   11  A    between atoms: C_22  and  N_23
REMARK   12  A    between atoms: N_23  and  C_24
REMARK                            x       y       z     vdW  Elec       q    Type
REMARK                         _______ _______ _______ _____ _____    ______ ____
ROOT
ATOM      1  N   UNL     1       1.706   5.372  19.157  0.00  0.00    +0.000 NA
ATOM      2  H   UNL     1       2.334   5.009  18.435  0.00  0.00    +0.000 HD
ENDROOT
BRANCH   1   3
ATOM      3  C   UNL     1       2.441   6.424  19.900  0.00  0.00    +0.000 C 
BRANCH   3  11
ATOM      4  C   UNL     1       2.086   8.585  17.808  0.00  0.00    +0.000 C 
ATOM      5  N   UNL     1       1.527   8.772  19.152  0.00  0.00    +0.000 N 
ATOM      6  C   UNL     1       0.762   9.914  19.400  0.00  0.00    +0.000 A 
ATOM      7  C   UNL     1       0.144  10.255  20.544  0.00  0.00    +0.000 A 
ATOM      8  C   UNL     1       0.320   9.284  21.666  0.00  0.00    +0.000 A 
ATOM      9  O   UNL     1      -0.202   9.452  22.773  0.00  0.00    +0.000 OA
ATOM     10  C   UNL     1       1.139   8.047  21.386  0.00  0.00    +0.000 A 
ATOM     11  C   UNL     1       1.717   7.811  20.181  0.00  0.00    +0.000 A 
BRANCH   7  12
ATOM     12  O   UNL     1      -0.618  11.420  20.576  0.00  0.00    +0.000 OA
BRANCH  12  13
ATOM     13  C   UNL     1      -1.113  11.963  19.351  0.00  0.00    +0.000 C 
BRANCH  13  14
ATOM     14  C   UNL     1      -2.630  12.098  19.409  0.00  0.00    +0.000 A 
ATOM     15  C   UNL     1      -3.298  12.751  20.461  0.00  0.00    +0.000 A 
ATOM     16  C   UNL     1      -4.695  12.846  20.485  0.00  0.00    +0.000 A 
ATOM     17  C   UNL     1      -5.455  12.307  19.452  0.00  0.00    +0.000 A 
ATOM     18  C   UNL     1      -4.805  11.685  18.384  0.00  0.00    +0.000 A 
ATOM     19  C   UNL     1      -3.422  11.574  18.363  0.00  0.00    +0.000 A 
ENDBRANCH  13  14
ENDBRANCH  12  13
ENDBRANCH   7  12
ENDBRANCH   3  11
ENDBRANCH   1   3
BRANCH   1  20
ATOM     20  C   UNL     1       1.223   4.194  19.966  0.00  0.00    +0.000 C 
BRANCH  20  21
ATOM     21  C   UNL     1       1.173   2.808  19.265  0.00  0.00    +0.000 C 
BRANCH  21  22
ATOM     22  C   UNL     1       2.202   2.435  18.094  0.00  0.00    +0.000 C 
BRANCH  22  23
ATOM     23  C   UNL     1       3.708   2.647  18.322  0.00  0.00    +0.000 C 
BRANCH  23  24
ATOM     24  N   UNL     1       4.525   3.009  17.119  0.00  0.00    +0.000 N 
ATOM     25  H   UNL     1       5.459   2.731  17.454  0.00  0.00    +0.000 HD
BRANCH  24  26
ATOM     26  C   UNL     1       4.878   4.224  16.444  0.00  0.00    +0.000 A 
ATOM     27  C   UNL     1       5.242   3.918  15.128  0.00  0.00    +0.000 A 
ATOM     28  C   UNL     1       6.589   4.046  14.833  0.00  0.00    +0.000 A 
ATOM     29  N   UNL     1       7.481   4.647  15.650  0.00  0.00    +0.000 NA
ATOM     30  C   UNL     1       6.965   5.408  16.612  0.00  0.00    +0.000 A 
ATOM     31  C   UNL     1       7.749   6.456  17.076  0.00  0.00    +0.000 A 
ATOM     32  C   UNL     1       7.148   7.617  17.538  0.00  0.00    +0.000 A 
ATOM     33 CL   UNL     1       8.116   8.980  17.943  0.00  0.00    +0.000 Cl
ATOM     34  C   UNL     1       5.761   7.713  17.542  0.00  0.00    +0.000 A 
ATOM     35  C   UNL     1       4.987   6.562  17.288  0.00  0.00    +0.000 A 
ATOM     36  C   UNL     1       5.596   5.329  16.945  0.00  0.00    +0.000 A 
ENDBRANCH  24  26
ENDBRANCH  23  24
ENDBRANCH  22  23
ENDBRANCH  21  22
ENDBRANCH  20  21
ENDBRANCH   1  20
TORSDOF 11
ENDMDL
MODEL 5
REMARK VINA RESULT:      -7.1      4.965      8.175
REMARK  Name = 
REMARK  12 active torsions:
REMARK  status: ('A' for Active; 'I' for Inactive)
REMARK    1  A    between atoms: C_1  and  N_2
REMARK    2  A    between atoms: C_4  and  O_5
REMARK    3  A    between atoms: O_5  and  C_6
REMARK    4  A    between atoms: C_6  and  C_7
REMARK    5  A    between atoms: C_16  and  C_17
REMARK    6  A    between atoms: C_17  and  N_18
REMARK    7  A    between atoms: N_18  and  C_19
REMARK    8  A    between atoms: C_19  and  C_20
REMARK    9  A    between atoms: C_20  and  C_21
REMARK   10  A    between atoms: C_21  and  C_22
REMARK   11  A    between atoms: C_22  and  N_23
REMARK   12  A    between atoms: N_23  and  C_24
REMARK                            x       y       z     vdW  Elec       q    Type
REMARK                         _______ _______ _______ _____ _____    ______ ____
ROOT
ATOM      1  N   UNL     1       2.045   6.165  19.500  0.00  0.00    +0.000 NA
ATOM      2  H   UNL     1       2.813   5.617  19.104  0.00  0.00    +0.000 HD
ENDROOT
BRANCH   1   3
ATOM      3  C   UNL     1       2.534   7.552  19.684  0.00  0.00    +0.000 C 
BRANCH   3  11
ATOM      4  C   UNL     1       0.783   9.459  18.112  0.00  0.00    +0.000 C 
ATOM      5  N   UNL     1       0.729   9.459  19.579  0.00  0.00    +0.000 N 
ATOM      6  C   UNL     1      -0.207  10.282  20.209  0.00  0.00    +0.000 A 
ATOM      7  C   UNL     1      -0.435  10.407  21.527  0.00  0.00    +0.000 A 
ATOM      8  C   UNL     1       0.433   9.556  22.397  0.00  0.00    +0.000 A 
ATOM      9  O   UNL     1       0.329   9.549  23.628  0.00  0.00    +0.000 OA
ATOM     10  C   UNL     1       1.433   8.660  21.709  0.00  0.00    +0.000 A 
ATOM     11  C   UNL     1       1.571   8.622  20.358  0.00  0.00    +0.000 A 
BRANCH   7  12
ATOM     12  O   UNL     1      -1.453  11.252  21.958  0.00  0.00    +0.000 OA
BRANCH  12  13
ATOM     13  C   UNL     1      -1.316  12.661  21.768  0.00  0.00    +0.000 C 
BRANCH  13  14
ATOM     14  C   UNL     1      -1.846  13.412  22.984  0.00  0.00    +0.000 A 
ATOM     15  C   UNL     1      -1.104  14.405  23.650  0.00  0.00    +0.000 A 
ATOM     16  C   UNL     1      -1.619  15.067  24.772  0.00  0.00    +0.000 A 
ATOM     17  C   UNL     1      -2.894  14.765  25.243  0.00  0.00    +0.000 A 
ATOM     18  C   UNL     1      -3.656  13.805  24.572  0.00  0.00    +0.000 A 
ATOM     19  C   UNL     1      -3.144  13.136  23.471  0.00  0.00    +0.000 A 
ENDBRANCH  13  14
ENDBRANCH  12  13
ENDBRANCH   7  12
ENDBRANCH   3  11
ENDBRANCH   1   3
BRANCH   1  20
ATOM     20  C   UNL     1       1.578   5.450  20.743  0.00  0.00    +0.000 C 
BRANCH  20  21
ATOM     21  C   UNL     1       0.685   4.191  20.560  0.00  0.00    +0.000 C 
BRANCH  21  22
ATOM     22  C   UNL     1       1.311   2.792  20.094  0.00  0.00    +0.000 C 
BRANCH  22  23
ATOM     23  C   UNL     1       0.901   2.201  18.734  0.00  0.00    +0.000 C 
BRANCH  23  24
ATOM     24  N   UNL     1       1.985   2.062  17.708  0.00  0.00    +0.000 N 
ATOM     25  H   UNL     1       1.922   1.050  17.525  0.00  0.00    +0.000 HD
BRANCH  24  26
ATOM     26  C   UNL     1       3.412   2.206  17.694  0.00  0.00    +0.000 A 
ATOM     27  C   UNL     1       3.969   1.237  18.538  0.00  0.00    +0.000 A 
ATOM     28  C   UNL     1       4.514   1.713  19.718  0.00  0.00    +0.000 A 
ATOM     29  N   UNL     1       4.732   3.023  19.969  0.00  0.00    +0.000 NA
ATOM     30  C   UNL     1       4.707   3.828  18.909  0.00  0.00    +0.000 A 
ATOM     31  C   UNL     1       5.458   4.992  18.985  0.00  0.00    +0.000 A 
ATOM     32  C   UNL     1       6.014   5.532  17.835  0.00  0.00    +0.000 A 
ATOM     33 CL   UNL     1       7.091   6.869  17.949  0.00  0.00    +0.000 Cl
ATOM     34  C   UNL     1       5.803   4.902  16.613  0.00  0.00    +0.000 A 
ATOM     35  C   UNL     1       4.854   3.863  16.527  0.00  0.00    +0.000 A 
ATOM     36  C   UNL     1       4.175   3.390  17.677  0.00  0.00    +0.000 A 
ENDBRANCH  24  26
ENDBRANCH  23  24
ENDBRANCH  22  23
ENDBRANCH  21  22
ENDBRANCH  20  21
ENDBRANCH   1  20
TORSDOF 11
ENDMDL
MODEL 6
REMARK VINA RESULT:      -7.0      4.212      7.249
REMARK  Name = 
REMARK  12 active torsions:
REMARK  status: ('A' for Active; 'I' for Inactive)
REMARK    1  A    between atoms: C_1  and  N_2
REMARK    2  A    between atoms: C_4  and  O_5
REMARK    3  A    between atoms: O_5  and  C_6
REMARK    4  A    between atoms: C_6  and  C_7
REMARK    5  A    between atoms: C_16  and  C_17
REMARK    6  A    between atoms: C_17  and  N_18
REMARK    7  A    between atoms: N_18  and  C_19
REMARK    8  A    between atoms: C_19  and  C_20
REMARK    9  A    between atoms: C_20  and  C_21
REMARK   10  A    between atoms: C_21  and  C_22
REMARK   11  A    between atoms: C_22  and  N_23
REMARK   12  A    between atoms: N_23  and  C_24
REMARK                            x       y       z     vdW  Elec       q    Type
REMARK                         _______ _______ _______ _____ _____    ______ ____
ROOT
ATOM      1  N   UNL     1       1.901   5.682  21.166  0.00  0.00    +0.000 NA
ATOM      2  H   UNL     1       2.836   6.030  21.393  0.00  0.00    +0.000 HD
ENDROOT
BRANCH   1   3
ATOM      3  C   UNL     1       2.066   4.483  20.311  0.00  0.00    +0.000 C 
BRANCH   3  11
ATOM      4  C   UNL     1       2.053   3.478  17.454  0.00  0.00    +0.000 C 
ATOM      5  N   UNL     1       3.310   3.927  18.064  0.00  0.00    +0.000 N 
ATOM      6  C   UNL     1       4.458   3.964  17.269  0.00  0.00    +0.000 A 
ATOM      7  C   UNL     1       5.689   4.366  17.623  0.00  0.00    +0.000 A 
ATOM      8  C   UNL     1       5.818   4.815  19.043  0.00  0.00    +0.000 A 
ATOM      9  O   UNL     1       6.884   5.229  19.511  0.00  0.00    +0.000 OA
ATOM     10  C   UNL     1       4.571   4.784  19.892  0.00  0.00    +0.000 A 
ATOM     11  C   UNL     1       3.374   4.353  19.417  0.00  0.00    +0.000 A 
BRANCH   7  12
ATOM     12  O   UNL     1       6.698   4.374  16.664  0.00  0.00    +0.000 OA
BRANCH  12  13
ATOM     13  C   UNL     1       6.707   5.400  15.670  0.00  0.00    +0.000 C 
BRANCH  13  14
ATOM     14  C   UNL     1       6.676   4.785  14.276  0.00  0.00    +0.000 A 
ATOM     15  C   UNL     1       5.691   3.865  13.871  0.00  0.00    +0.000 A 
ATOM     16  C   UNL     1       5.700   3.312  12.583  0.00  0.00    +0.000 A 
ATOM     17  C   UNL     1       6.682   3.678  11.668  0.00  0.00    +0.000 A 
ATOM     18  C   UNL     1       7.648   4.615  12.045  0.00  0.00    +0.000 A 
ATOM     19  C   UNL     1       7.652   5.153  13.323  0.00  0.00    +0.000 A 
ENDBRANCH  13  14
ENDBRANCH  12  13
ENDBRANCH   7  12
ENDBRANCH   3  11
ENDBRANCH   1   3
BRANCH   1  20
ATOM     20  C   UNL     1       1.128   6.831  20.568  0.00  0.00    +0.000 C 
BRANCH  20  21
ATOM     21  C   UNL     1       1.658   8.269  20.823  0.00  0.00    +0.000 C 
BRANCH  21  22
ATOM     22  C   UNL     1       1.388   9.016  22.216  0.00  0.00    +0.000 C 
BRANCH  22  23
ATOM     23  C   UNL     1      -0.055   9.383  22.604  0.00  0.00    +0.000 C 
BRANCH  23  24
ATOM     24  N   UNL     1      -0.622  10.624  21.985  0.00  0.00    +0.000 N 
ATOM     25  H   UNL     1      -1.626  10.393  22.023  0.00  0.00    +0.000 HD
BRANCH  24  26
ATOM     26  C   UNL     1      -0.581  11.237  20.689  0.00  0.00    +0.000 A 
ATOM     27  C   UNL     1      -0.385  12.614  20.850  0.00  0.00    +0.000 A 
ATOM     28  C   UNL     1      -1.476  13.413  20.552  0.00  0.00    +0.000 A 
ATOM     29  N   UNL     1      -2.585  12.964  19.922  0.00  0.00    +0.000 NA
ATOM     30  C   UNL     1      -2.463  11.794  19.300  0.00  0.00    +0.000 A 
ATOM     31  C   UNL     1      -3.296  11.570  18.212  0.00  0.00    +0.000 A 
ATOM     32  C   UNL     1      -2.864  10.772  17.164  0.00  0.00    +0.000 A 
ATOM     33 CL   UNL     1      -3.817  10.638  15.738  0.00  0.00    +0.000 Cl
ATOM     34  C   UNL     1      -1.600  10.194  17.221  0.00  0.00    +0.000 A 
ATOM     35  C   UNL     1      -0.871  10.244  18.427  0.00  0.00    +0.000 A 
ATOM     36  C   UNL     1      -1.364  10.946  19.554  0.00  0.00    +0.000 A 
ENDBRANCH  24  26
ENDBRANCH  23  24
ENDBRANCH  22  23
ENDBRANCH  21  22
ENDBRANCH  20  21
ENDBRANCH   1  20
TORSDOF 11
ENDMDL
MODEL 7
REMARK VINA RESULT:      -7.0      5.973      9.318
REMARK  Name = 
REMARK  12 active torsions:
REMARK  status: ('A' for Active; 'I' for Inactive)
REMARK    1  A    between atoms: C_1  and  N_2
REMARK    2  A    between atoms: C_4  and  O_5
REMARK    3  A    between atoms: O_5  and  C_6
REMARK    4  A    between atoms: C_6  and  C_7
REMARK    5  A    between atoms: C_16  and  C_17
REMARK    6  A    between atoms: C_17  and  N_18
REMARK    7  A    between atoms: N_18  and  C_19
REMARK    8  A    between atoms: C_19  and  C_20
REMARK    9  A    between atoms: C_20  and  C_21
REMARK   10  A    between atoms: C_21  and  C_22
REMARK   11  A    between atoms: C_22  and  N_23
REMARK   12  A    between atoms: N_23  and  C_24
REMARK                            x       y       z     vdW  Elec       q    Type
REMARK                         _______ _______ _______ _____ _____    ______ ____
ROOT
ATOM      1  N   UNL     1       1.899   9.213  18.235  0.00  0.00    +0.000 NA
ATOM      2  H   UNL     1       2.446   9.638  18.988  0.00  0.00    +0.000 HD
ENDROOT
BRANCH   1   3
ATOM      3  C   UNL     1       0.472   9.523  18.490  0.00  0.00    +0.000 C 
BRANCH   3  11
ATOM      4  C   UNL     1      -0.973  12.185  18.434  0.00  0.00    +0.000 C 
ATOM      5  N   UNL     1      -0.637  11.563  19.721  0.00  0.00    +0.000 N 
ATOM      6  C   UNL     1      -1.081  12.181  20.892  0.00  0.00    +0.000 A 
ATOM      7  C   UNL     1      -0.907  11.764  22.157  0.00  0.00    +0.000 A 
ATOM      8  C   UNL     1      -0.138  10.490  22.297  0.00  0.00    +0.000 A 
ATOM      9  O   UNL     1       0.088   9.972  23.396  0.00  0.00    +0.000 OA
ATOM     10  C   UNL     1       0.328   9.823  21.026  0.00  0.00    +0.000 A 
ATOM     11  C   UNL     1       0.088  10.345  19.796  0.00  0.00    +0.000 A 
BRANCH   7  12
ATOM     12  O   UNL     1      -1.473  12.501  23.194  0.00  0.00    +0.000 OA
BRANCH  12  13
ATOM     13  C   UNL     1      -2.858  12.326  23.498  0.00  0.00    +0.000 C 
BRANCH  13  14
ATOM     14  C   UNL     1      -3.498  13.668  23.833  0.00  0.00    +0.000 A 
ATOM     15  C   UNL     1      -2.891  14.610  24.685  0.00  0.00    +0.000 A 
ATOM     16  C   UNL     1      -3.515  15.830  24.979  0.00  0.00    +0.000 A 
ATOM     17  C   UNL     1      -4.748  16.144  24.415  0.00  0.00    +0.000 A 
ATOM     18  C   UNL     1      -5.346  15.233  23.541  0.00  0.00    +0.000 A 
ATOM     19  C   UNL     1      -4.741  14.018  23.260  0.00  0.00    +0.000 A 
ENDBRANCH  13  14
ENDBRANCH  12  13
ENDBRANCH   7  12
ENDBRANCH   3  11
ENDBRANCH   1   3
BRANCH   1  20
ATOM     20  C   UNL     1       2.267   7.752  18.181  0.00  0.00    +0.000 C 
BRANCH  20  21
ATOM     21  C   UNL     1       2.683   7.062  19.510  0.00  0.00    +0.000 C 
BRANCH  21  22
ATOM     22  C   UNL     1       1.585   6.443  20.500  0.00  0.00    +0.000 C 
BRANCH  22  23
ATOM     23  C   UNL     1       1.650   4.947  20.853  0.00  0.00    +0.000 C 
BRANCH  23  24
ATOM     24  N   UNL     1       1.642   3.985  19.703  0.00  0.00    +0.000 N 
ATOM     25  H   UNL     1       1.236   3.162  20.170  0.00  0.00    +0.000 HD
BRANCH  24  26
ATOM     26  C   UNL     1       2.636   3.326  18.907  0.00  0.00    +0.000 A 
ATOM     27  C   UNL     1       3.058   2.174  19.579  0.00  0.00    +0.000 A 
ATOM     28  C   UNL     1       4.341   2.219  20.101  0.00  0.00    +0.000 A 
ATOM     29  N   UNL     1       5.238   3.185  19.801  0.00  0.00    +0.000 NA
ATOM     30  C   UNL     1       4.960   3.920  18.727  0.00  0.00    +0.000 A 
ATOM     31  C   UNL     1       6.035   4.481  18.052  0.00  0.00    +0.000 A 
ATOM     32  C   UNL     1       5.963   4.681  16.682  0.00  0.00    +0.000 A 
ATOM     33 CL   UNL     1       7.355   5.206  15.817  0.00  0.00    +0.000 Cl
ATOM     34  C   UNL     1       4.804   4.326  16.000  0.00  0.00    +0.000 A 
ATOM     35  C   UNL     1       3.650   3.979  16.732  0.00  0.00    +0.000 A 
ATOM     36  C   UNL     1       3.674   3.901  18.146  0.00  0.00    +0.000 A 
ENDBRANCH  24  26
ENDBRANCH  23  24
ENDBRANCH  22  23
ENDBRANCH  21  22
ENDBRANCH  20  21
ENDBRANCH   1  20
TORSDOF 11
ENDMDL
MODEL 8
REMARK VINA RESULT:      -6.9      5.228      7.907
REMARK  Name = 
REMARK  12 active torsions:
REMARK  status: ('A' for Active; 'I' for Inactive)
REMARK    1  A    between atoms: C_1  and  N_2
REMARK    2  A    between atoms: C_4  and  O_5
REMARK    3  A    between atoms: O_5  and  C_6
REMARK    4  A    between atoms: C_6  and  C_7
REMARK    5  A    between atoms: C_16  and  C_17
REMARK    6  A    between atoms: C_17  and  N_18
REMARK    7  A    between atoms: N_18  and  C_19
REMARK    8  A    between atoms: C_19  and  C_20
REMARK    9  A    between atoms: C_20  and  C_21
REMARK   10  A    between atoms: C_21  and  C_22
REMARK   11  A    between atoms: C_22  and  N_23
REMARK   12  A    between atoms: N_23  and  C_24
REMARK                            x       y       z     vdW  Elec       q    Type
REMARK                         _______ _______ _______ _____ _____    ______ ____
ROOT
ATOM      1  N   UNL     1       1.209   6.982  21.109  0.00  0.00    +0.000 NA
ATOM      2  H   UNL     1       0.191   6.954  21.005  0.00  0.00    +0.000 HD
ENDROOT
BRANCH   1   3
ATOM      3  C   UNL     1       1.656   8.348  20.747  0.00  0.00    +0.000 C 
BRANCH   3  11
ATOM      4  C   UNL     1       0.262   9.478  23.188  0.00  0.00    +0.000 C 
ATOM      5  N   UNL     1      -0.009  10.049  21.862  0.00  0.00    +0.000 N 
ATOM      6  C   UNL     1      -0.840  11.168  21.779  0.00  0.00    +0.000 A 
ATOM      7  C   UNL     1      -1.187  11.852  20.676  0.00  0.00    +0.000 A 
ATOM      8  C   UNL     1      -0.606  11.327  19.404  0.00  0.00    +0.000 A 
ATOM      9  O   UNL     1      -0.821  11.860  18.310  0.00  0.00    +0.000 OA
ATOM     10  C   UNL     1       0.300  10.125  19.503  0.00  0.00    +0.000 A 
ATOM     11  C   UNL     1       0.579   9.516  20.685  0.00  0.00    +0.000 A 
BRANCH   7  12
ATOM     12  O   UNL     1      -1.994  12.979  20.808  0.00  0.00    +0.000 OA
BRANCH  12  13
ATOM     13  C   UNL     1      -1.463  14.147  21.436  0.00  0.00    +0.000 C 
BRANCH  13  14
ATOM     14  C   UNL     1      -0.516  14.872  20.487  0.00  0.00    +0.000 A 
ATOM     15  C   UNL     1      -0.967  15.760  19.492  0.00  0.00    +0.000 A 
ATOM     16  C   UNL     1      -0.067  16.401  18.631  0.00  0.00    +0.000 A 
ATOM     17  C   UNL     1       1.302  16.184  18.755  0.00  0.00    +0.000 A 
ATOM     18  C   UNL     1       1.767  15.332  19.759  0.00  0.00    +0.000 A 
ATOM     19  C   UNL     1       0.879  14.682  20.605  0.00  0.00    +0.000 A 
ENDBRANCH  13  14
ENDBRANCH  12  13
ENDBRANCH   7  12
ENDBRANCH   3  11
ENDBRANCH   1   3
BRANCH   1  20
ATOM     20  C   UNL     1       1.777   5.853  20.287  0.00  0.00    +0.000 C 
BRANCH  20  21
ATOM     21  C   UNL     1       2.008   4.489  20.996  0.00  0.00    +0.000 C 
BRANCH  21  22
ATOM     22  C   UNL     1       1.061   3.230  20.697  0.00  0.00    +0.000 C 
BRANCH  22  23
ATOM     23  C   UNL     1       0.758   2.847  19.238  0.00  0.00    +0.000 C 
BRANCH  23  24
ATOM     24  N   UNL     1       1.651   3.437  18.190  0.00  0.00    +0.000 N 
ATOM     25  H   UNL     1       1.205   3.050  17.345  0.00  0.00    +0.000 HD
BRANCH  24  26
ATOM     26  C   UNL     1       3.026   3.288  17.808  0.00  0.00    +0.000 A 
ATOM     27  C   UNL     1       3.464   2.016  18.195  0.00  0.00    +0.000 A 
ATOM     28  C   UNL     1       4.359   1.987  19.252  0.00  0.00    +0.000 A 
ATOM     29  N   UNL     1       4.975   3.086  19.742  0.00  0.00    +0.000 NA
ATOM     30  C   UNL     1       4.944   4.164  18.963  0.00  0.00    +0.000 A 
ATOM     31  C   UNL     1       5.983   5.074  19.104  0.00  0.00    +0.000 A 
ATOM     32  C   UNL     1       6.405   5.816  18.012  0.00  0.00    +0.000 A 
ATOM     33 CL   UNL     1       7.804   6.809  18.139  0.00  0.00    +0.000 Cl
ATOM     34  C   UNL     1       5.772   5.647  16.786  0.00  0.00    +0.000 A 
ATOM     35  C   UNL     1       4.580   4.897  16.721  0.00  0.00    +0.000 A 
ATOM     36  C   UNL     1       4.062   4.242  17.864  0.00  0.00    +0.000 A 
ENDBRANCH  24  26
ENDBRANCH  23  24
ENDBRANCH  22  23
ENDBRANCH  21  22
ENDBRANCH  20  21
ENDBRANCH   1  20
TORSDOF 11
ENDMDL
MODEL 9
REMARK VINA RESULT:      -6.9      4.225      6.689
REMARK  Name = 
REMARK  12 active torsions:
REMARK  status: ('A' for Active; 'I' for Inactive)
REMARK    1  A    between atoms: C_1  and  N_2
REMARK    2  A    between atoms: C_4  and  O_5
REMARK    3  A    between atoms: O_5  and  C_6
REMARK    4  A    between atoms: C_6  and  C_7
REMARK    5  A    between atoms: C_16  and  C_17
REMARK    6  A    between atoms: C_17  and  N_18
REMARK    7  A    between atoms: N_18  and  C_19
REMARK    8  A    between atoms: C_19  and  C_20
REMARK    9  A    between atoms: C_20  and  C_21
REMARK   10  A    between atoms: C_21  and  C_22
REMARK   11  A    between atoms: C_22  and  N_23
REMARK   12  A    between atoms: N_23  and  C_24
REMARK                            x       y       z     vdW  Elec       q    Type
REMARK                         _______ _______ _______ _____ _____    ______ ____
ROOT
ATOM      1  N   UNL     1       2.574   5.425  20.902  0.00  0.00    +0.000 NA
ATOM      2  H   UNL     1       2.359   5.890  21.788  0.00  0.00    +0.000 HD
ENDROOT
BRANCH   1   3
ATOM      3  C   UNL     1       2.197   6.352  19.809  0.00  0.00    +0.000 C 
BRANCH   3  11
ATOM      4  C   UNL     1       1.829   8.543  17.750  0.00  0.00    +0.000 C 
ATOM      5  N   UNL     1       1.583   8.826  19.169  0.00  0.00    +0.000 N 
ATOM      6  C   UNL     1       1.091  10.086  19.519  0.00  0.00    +0.000 A 
ATOM      7  C   UNL     1       0.775  10.531  20.747  0.00  0.00    +0.000 A 
ATOM      8  C   UNL     1       0.992   9.544  21.847  0.00  0.00    +0.000 A 
ATOM      9  O   UNL     1       0.731   9.802  23.027  0.00  0.00    +0.000 OA
ATOM     10  C   UNL     1       1.511   8.181  21.460  0.00  0.00    +0.000 A 
ATOM     11  C   UNL     1       1.796   7.846  20.175  0.00  0.00    +0.000 A 
BRANCH   7  12
ATOM     12  O   UNL     1       0.250  11.813  20.884  0.00  0.00    +0.000 OA
BRANCH  12  13
ATOM     13  C   UNL     1       0.019  12.600  19.715  0.00  0.00    +0.000 C 
BRANCH  13  14
ATOM     14  C   UNL     1       1.145  13.610  19.528  0.00  0.00    +0.000 A 
ATOM     15  C   UNL     1       1.452  14.595  20.485  0.00  0.00    +0.000 A 
ATOM     16  C   UNL     1       2.489  15.514  20.273  0.00  0.00    +0.000 A 
ATOM     17  C   UNL     1       3.252  15.458  19.111  0.00  0.00    +0.000 A 
ATOM     18  C   UNL     1       2.981  14.465  18.167  0.00  0.00    +0.000 A 
ATOM     19  C   UNL     1       1.946  13.563  18.364  0.00  0.00    +0.000 A 
ENDBRANCH  13  14
ENDBRANCH  12  13
ENDBRANCH   7  12
ENDBRANCH   3  11
ENDBRANCH   1   3
BRANCH   1  20
ATOM     20  C   UNL     1       1.878   4.087  20.916  0.00  0.00    +0.000 C 
BRANCH  20  21
ATOM     21  C   UNL     1       2.571   2.905  20.182  0.00  0.00    +0.000 C 
BRANCH  21  22
ATOM     22  C   UNL     1       2.072   2.421  18.738  0.00  0.00    +0.000 C 
BRANCH  22  23
ATOM     23  C   UNL     1       2.506   3.209  17.490  0.00  0.00    +0.000 C 
BRANCH  23  24
ATOM     24  N   UNL     1       3.922   3.699  17.463  0.00  0.00    +0.000 N 
ATOM     25  H   UNL     1       3.964   4.156  18.385  0.00  0.00    +0.000 HD
BRANCH  24  26
ATOM     26  C   UNL     1       4.662   4.661  16.700  0.00  0.00    +0.000 A 
ATOM     27  C   UNL     1       5.236   4.016  15.598  0.00  0.00    +0.000 A 
ATOM     28  C   UNL     1       6.611   3.859  15.645  0.00  0.00    +0.000 A 
ATOM     29  N   UNL     1       7.406   4.476  16.547  0.00  0.00    +0.000 NA
ATOM     30  C   UNL     1       6.860   5.505  17.192  0.00  0.00    +0.000 A 
ATOM     31  C   UNL     1       7.723   6.491  17.650  0.00  0.00    +0.000 A 
ATOM     32  C   UNL     1       7.291   7.806  17.728  0.00  0.00    +0.000 A 
ATOM     33 CL   UNL     1       8.408   9.053  18.123  0.00  0.00    +0.000 Cl
ATOM     34  C   UNL     1       5.989   8.121  17.355  0.00  0.00    +0.000 A 
ATOM     35  C   UNL     1       5.067   7.080  17.116  0.00  0.00    +0.000 A 
ATOM     36  C   UNL     1       5.465   5.721  17.166  0.00  0.00    +0.000 A 
ENDBRANCH  24  26
ENDBRANCH  23  24
ENDBRANCH  22  23
ENDBRANCH  21  22
ENDBRANCH  20  21
ENDBRANCH   1  20
TORSDOF 11
ENDMDL
