MODEL 1
REMARK VINA RESULT:      -6.8      0.000      0.000
REMARK  Name = 
REMARK  6 active torsions:
REMARK  status: ('A' for Active; 'I' for Inactive)
REMARK    1  A    between atoms: C_1  and  O_2
REMARK    2  A    between atoms: O_2  and  C_3
REMARK    3  A    between atoms: C_8  and  N_9
REMARK    4  A    between atoms: N_12  and  S_13
REMARK    5  A    between atoms: S_13  and  C_16
REMARK    6  A    between atoms: C_17  and  C_18
REMARK                            x       y       z     vdW  Elec       q    Type
REMARK                         _______ _______ _______ _____ _____    ______ ____
ROOT
ATOM      1  N   UNL     1       1.516   7.379  20.120  0.00  0.00    +0.000 N 
ATOM      2  C   UNL     1       1.554   6.131  20.900  0.00  0.00    +0.000 C 
ATOM      3  C   UNL     1       1.444   4.917  19.956  0.00  0.00    +0.000 C 
ATOM      4  N   UNL     1       2.470   4.929  18.849  0.00  0.00    +0.000 NA
ATOM      5  C   UNL     1       2.391   6.245  18.116  0.00  0.00    +0.000 C 
ATOM      6  C   UNL     1       2.548   7.457  19.063  0.00  0.00    +0.000 C 
ENDROOT
BRANCH   1  12
ATOM      7  C   UNL     1       0.549   9.640  19.965  0.00  0.00    +0.000 A 
ATOM      8  C   UNL     1      -0.006  10.760  20.607  0.00  0.00    +0.000 A 
ATOM      9  C   UNL     1      -0.087  10.819  21.997  0.00  0.00    +0.000 A 
ATOM     10  C   UNL     1       0.425   9.778  22.758  0.00  0.00    +0.000 A 
ATOM     11  C   UNL     1       1.005   8.674  22.128  0.00  0.00    +0.000 A 
ATOM     12  C   UNL     1       1.068   8.558  20.725  0.00  0.00    +0.000 A 
BRANCH   7  14
ATOM     13  C   UNL     1      -0.552   9.961  17.873  0.00  0.00    +0.000 C 
ATOM     14  O   UNL     1       0.587   9.516  18.594  0.00  0.00    +0.000 OA
ENDBRANCH   7  14
ENDBRANCH   1  12
BRANCH   4  15
ATOM     15  S   UNL     1       4.054   4.460  19.284  0.00  0.00    +0.000 S 
ATOM     16  O   UNL     1       4.602   5.481  20.152  0.00  0.00    +0.000 OA
ATOM     17  O   UNL     1       3.995   3.096  19.751  0.00  0.00    +0.000 OA
BRANCH  15  18
ATOM     18  C   UNL     1       4.916   4.540  17.733  0.00  0.00    +0.000 A 
ATOM     19  C   UNL     1       4.617   3.667  16.641  0.00  0.00    +0.000 A 
ATOM     20  C   UNL     1       3.492   2.657  16.674  0.00  0.00    +0.000 C 
ATOM     21  C   UNL     1       5.409   3.662  15.452  0.00  0.00    +0.000 A 
ATOM     22  C   UNL     1       6.481   4.533  15.214  0.00  0.00    +0.000 A 
ATOM     23  C   UNL     1       6.761   5.462  16.236  0.00  0.00    +0.000 A 
ATOM     24  N   UNL     1       7.724   6.393  16.182  0.00  0.00    +0.000 NA
ATOM     25  S   UNL     1       7.648   7.230  17.610  0.00  0.00    +0.000 S 
ATOM     26  N   UNL     1       6.436   6.405  18.375  0.00  0.00    +0.000 NA
ATOM     27  C   UNL     1       5.975   5.469  17.530  0.00  0.00    +0.000 A 
ENDBRANCH  15  18
ENDBRANCH   4  15
TORSDOF 4
ENDMDL
MODEL 2
REMARK VINA RESULT:      -6.5      3.625      8.471
REMARK  Name = 
REMARK  6 active torsions:
REMARK  status: ('A' for Active; 'I' for Inactive)
REMARK    1  A    between atoms: C_1  and  O_2
REMARK    2  A    between atoms: O_2  and  C_3
REMARK    3  A    between atoms: C_8  and  N_9
REMARK    4  A    between atoms: N_12  and  S_13
REMARK    5  A    between atoms: S_13  and  C_16
REMARK    6  A    between atoms: C_17  and  C_18
REMARK                            x       y       z     vdW  Elec       q    Type
REMARK                         _______ _______ _______ _____ _____    ______ ____
ROOT
ATOM      1  N   UNL     1       2.265   7.366  18.650  0.00  0.00    +0.000 N 
ATOM      2  C   UNL     1       1.823   7.356  20.054  0.00  0.00    +0.000 C 
ATOM      3  C   UNL     1       2.003   8.757  20.673  0.00  0.00    +0.000 C 
ATOM      4  N   UNL     1       1.339   9.851  19.873  0.00  0.00    +0.000 NA
ATOM      5  C   UNL     1       1.817   9.780  18.445  0.00  0.00    +0.000 C 
ATOM      6  C   UNL     1       1.591   8.386  17.817  0.00  0.00    +0.000 C 
ENDROOT
BRANCH   1  12
ATOM      7  C   UNL     1       4.023   6.033  17.553  0.00  0.00    +0.000 A 
ATOM      8  C   UNL     1       4.469   4.790  17.074  0.00  0.00    +0.000 A 
ATOM      9  C   UNL     1       3.640   3.671  17.109  0.00  0.00    +0.000 A 
ATOM     10  C   UNL     1       2.343   3.794  17.584  0.00  0.00    +0.000 A 
ATOM     11  C   UNL     1       1.881   5.033  18.036  0.00  0.00    +0.000 A 
ATOM     12  C   UNL     1       2.702   6.178  18.055  0.00  0.00    +0.000 A 
BRANCH   7  14
ATOM     13  C   UNL     1       6.171   6.988  17.146  0.00  0.00    +0.000 C 
ATOM     14  O   UNL     1       4.833   7.145  17.596  0.00  0.00    +0.000 OA
ENDBRANCH   7  14
ENDBRANCH   1  12
BRANCH   4  15
ATOM     15  S   UNL     1      -0.357   9.985  20.042  0.00  0.00    +0.000 S 
ATOM     16  O   UNL     1      -0.925  10.178  18.723  0.00  0.00    +0.000 OA
ATOM     17  O   UNL     1      -0.807   8.875  20.847  0.00  0.00    +0.000 OA
BRANCH  15  18
ATOM     18  C   UNL     1      -0.532  11.506  20.940  0.00  0.00    +0.000 A 
ATOM     19  C   UNL     1      -0.835  11.544  22.337  0.00  0.00    +0.000 A 
ATOM     20  C   UNL     1      -0.951  10.301  23.192  0.00  0.00    +0.000 C 
ATOM     21  C   UNL     1      -1.100  12.776  23.010  0.00  0.00    +0.000 A 
ATOM     22  C   UNL     1      -1.025  14.038  22.405  0.00  0.00    +0.000 A 
ATOM     23  C   UNL     1      -0.654  14.049  21.046  0.00  0.00    +0.000 A 
ATOM     24  N   UNL     1      -0.499  15.155  20.303  0.00  0.00    +0.000 NA
ATOM     25  S   UNL     1      -0.060  14.647  18.789  0.00  0.00    +0.000 S 
ATOM     26  N   UNL     1      -0.111  13.008  18.999  0.00  0.00    +0.000 NA
ATOM     27  C   UNL     1      -0.410  12.764  20.285  0.00  0.00    +0.000 A 
ENDBRANCH  15  18
ENDBRANCH   4  15
TORSDOF 4
ENDMDL
MODEL 3
REMARK VINA RESULT:      -6.5      4.432      9.399
REMARK  Name = 
REMARK  6 active torsions:
REMARK  status: ('A' for Active; 'I' for Inactive)
REMARK    1  A    between atoms: C_1  and  O_2
REMARK    2  A    between atoms: O_2  and  C_3
REMARK    3  A    between atoms: C_8  and  N_9
REMARK    4  A    between atoms: N_12  and  S_13
REMARK    5  A    between atoms: S_13  and  C_16
REMARK    6  A    between atoms: C_17  and  C_18
REMARK                            x       y       z     vdW  Elec       q    Type
REMARK                         _______ _______ _______ _____ _____    ______ ____
ROOT
ATOM      1  N   UNL     1       1.391   8.274  19.720  0.00  0.00    +0.000 N 
ATOM      2  C   UNL     1       1.114   9.588  19.118  0.00  0.00    +0.000 C 
ATOM      3  C   UNL     1      -0.323  10.032  19.458  0.00  0.00    +0.000 C 
ATOM      4  N   UNL     1      -0.617  10.010  20.938  0.00  0.00    +0.000 NA
ATOM      5  C   UNL     1      -0.284   8.647  21.489  0.00  0.00    +0.000 C 
ATOM      6  C   UNL     1       1.173   8.228  21.183  0.00  0.00    +0.000 C 
ENDROOT
BRANCH   1  12
ATOM      7  C   UNL     1       2.513   6.087  19.550  0.00  0.00    +0.000 A 
ATOM      8  C   UNL     1       3.407   5.242  18.872  0.00  0.00    +0.000 A 
ATOM      9  C   UNL     1       4.133   5.702  17.776  0.00  0.00    +0.000 A 
ATOM     10  C   UNL     1       4.005   7.024  17.374  0.00  0.00    +0.000 A 
ATOM     11  C   UNL     1       3.140   7.879  18.061  0.00  0.00    +0.000 A 
ATOM     12  C   UNL     1       2.356   7.441  19.148  0.00  0.00    +0.000 A 
BRANCH   7  14
ATOM     13  C   UNL     1       1.690   4.253  20.834  0.00  0.00    +0.000 C 
ATOM     14  O   UNL     1       1.729   5.652  20.595  0.00  0.00    +0.000 OA
ENDBRANCH   7  14
ENDBRANCH   1  12
BRANCH   4  15
ATOM     15  S   UNL     1       0.011  11.311  21.851  0.00  0.00    +0.000 S 
ATOM     16  O   UNL     1      -0.023  10.935  23.250  0.00  0.00    +0.000 OA
ATOM     17  O   UNL     1       1.267  11.699  21.257  0.00  0.00    +0.000 OA
BRANCH  15  18
ATOM     18  C   UNL     1      -1.206  12.579  21.597  0.00  0.00    +0.000 A 
ATOM     19  C   UNL     1      -1.103  13.546  20.549  0.00  0.00    +0.000 A 
ATOM     20  C   UNL     1       0.001  13.528  19.514  0.00  0.00    +0.000 C 
ATOM     21  C   UNL     1      -2.022  14.633  20.443  0.00  0.00    +0.000 A 
ATOM     22  C   UNL     1      -3.125  14.819  21.288  0.00  0.00    +0.000 A 
ATOM     23  C   UNL     1      -3.307  13.844  22.289  0.00  0.00    +0.000 A 
ATOM     24  N   UNL     1      -4.317  13.831  23.171  0.00  0.00    +0.000 NA
ATOM     25  S   UNL     1      -4.090  12.496  24.125  0.00  0.00    +0.000 S 
ATOM     26  N   UNL     1      -2.673  11.920  23.499  0.00  0.00    +0.000 NA
ATOM     27  C   UNL     1      -2.329  12.702  22.463  0.00  0.00    +0.000 A 
ENDBRANCH  15  18
ENDBRANCH   4  15
TORSDOF 4
ENDMDL
MODEL 4
REMARK VINA RESULT:      -6.5      3.989      8.829
REMARK  Name = 
REMARK  6 active torsions:
REMARK  status: ('A' for Active; 'I' for Inactive)
REMARK    1  A    between atoms: C_1  and  O_2
REMARK    2  A    between atoms: O_2  and  C_3
REMARK    3  A    between atoms: C_8  and  N_9
REMARK    4  A    between atoms: N_12  and  S_13
REMARK    5  A    between atoms: S_13  and  C_16
REMARK    6  A    between atoms: C_17  and  C_18
REMARK                            x       y       z     vdW  Elec       q    Type
REMARK                         _______ _______ _______ _____ _____    ______ ____
ROOT
ATOM      1  N   UNL     1       2.034   7.834  18.748  0.00  0.00    +0.000 N 
ATOM      2  C   UNL     1       1.824   9.132  18.087  0.00  0.00    +0.000 C 
ATOM      3  C   UNL     1       0.439   9.696  18.462  0.00  0.00    +0.000 C 
ATOM      4  N   UNL     1       0.211   9.771  19.952  0.00  0.00    +0.000 NA
ATOM      5  C   UNL     1       0.472   8.417  20.561  0.00  0.00    +0.000 C 
ATOM      6  C   UNL     1       1.879   7.878  20.218  0.00  0.00    +0.000 C 
ENDROOT
BRANCH   1  12
ATOM      7  C   UNL     1       2.663   5.507  18.236  0.00  0.00    +0.000 A 
ATOM      8  C   UNL     1       3.498   4.607  17.553  0.00  0.00    +0.000 A 
ATOM      9  C   UNL     1       4.566   5.066  16.785  0.00  0.00    +0.000 A 
ATOM     10  C   UNL     1       4.834   6.426  16.728  0.00  0.00    +0.000 A 
ATOM     11  C   UNL     1       4.026   7.325  17.429  0.00  0.00    +0.000 A 
ATOM     12  C   UNL     1       2.912   6.905  18.182  0.00  0.00    +0.000 A 
BRANCH   7  14
ATOM     13  C   UNL     1       1.763   4.092  19.933  0.00  0.00    +0.000 C 
ATOM     14  O   UNL     1       1.559   5.097  18.951  0.00  0.00    +0.000 OA
ENDBRANCH   7  14
ENDBRANCH   1  12
BRANCH   4  15
ATOM     15  S   UNL     1       0.969  11.068  20.767  0.00  0.00    +0.000 S 
ATOM     16  O   UNL     1       1.803  10.513  21.814  0.00  0.00    +0.000 OA
ATOM     17  O   UNL     1       1.567  11.923  19.771  0.00  0.00    +0.000 OA
BRANCH  15  18
ATOM     18  C   UNL     1      -0.403  11.889  21.538  0.00  0.00    +0.000 A 
ATOM     19  C   UNL     1      -1.146  11.304  22.611  0.00  0.00    +0.000 A 
ATOM     20  C   UNL     1      -0.783   9.976  23.240  0.00  0.00    +0.000 C 
ATOM     21  C   UNL     1      -2.323  11.924  23.128  0.00  0.00    +0.000 A 
ATOM     22  C   UNL     1      -2.817  13.164  22.698  0.00  0.00    +0.000 A 
ATOM     23  C   UNL     1      -2.069  13.810  21.694  0.00  0.00    +0.000 A 
ATOM     24  N   UNL     1      -2.361  15.013  21.176  0.00  0.00    +0.000 NA
ATOM     25  S   UNL     1      -1.194  15.332  20.045  0.00  0.00    +0.000 S 
ATOM     26  N   UNL     1      -0.312  13.937  20.123  0.00  0.00    +0.000 NA
ATOM     27  C   UNL     1      -0.841  13.166  21.088  0.00  0.00    +0.000 A 
ENDBRANCH  15  18
ENDBRANCH   4  15
TORSDOF 4
ENDMDL
MODEL 5
REMARK VINA RESULT:      -6.3      4.211      8.950
REMARK  Name = 
REMARK  6 active torsions:
REMARK  status: ('A' for Active; 'I' for Inactive)
REMARK    1  A    between atoms: C_1  and  O_2
REMARK    2  A    between atoms: O_2  and  C_3
REMARK    3  A    between atoms: C_8  and  N_9
REMARK    4  A    between atoms: N_12  and  S_13
REMARK    5  A    between atoms: S_13  and  C_16
REMARK    6  A    between atoms: C_17  and  C_18
REMARK                            x       y       z     vdW  Elec       q    Type
REMARK                         _______ _______ _______ _____ _____    ______ ____
ROOT
ATOM      1  N   UNL     1       1.386   8.333  19.680  0.00  0.00    +0.000 N 
ATOM      2  C   UNL     1       1.227   9.696  19.146  0.00  0.00    +0.000 C 
ATOM      3  C   UNL     1      -0.191  10.219  19.451  0.00  0.00    +0.000 C 
ATOM      4  N   UNL     1      -0.556  10.132  20.912  0.00  0.00    +0.000 NA
ATOM      5  C   UNL     1      -0.341   8.719  21.393  0.00  0.00    +0.000 C 
ATOM      6  C   UNL     1       1.096   8.219  21.126  0.00  0.00    +0.000 C 
ENDROOT
BRANCH   1  12
ATOM      7  C   UNL     1       2.433   6.110  19.499  0.00  0.00    +0.000 A 
ATOM      8  C   UNL     1       3.294   5.236  18.814  0.00  0.00    +0.000 A 
ATOM      9  C   UNL     1       4.029   5.674  17.715  0.00  0.00    +0.000 A 
ATOM     10  C   UNL     1       3.943   6.999  17.317  0.00  0.00    +0.000 A 
ATOM     11  C   UNL     1       3.111   7.882  18.010  0.00  0.00    +0.000 A 
ATOM     12  C   UNL     1       2.320   7.469  19.100  0.00  0.00    +0.000 A 
BRANCH   7  14
ATOM     13  C   UNL     1       1.391   4.306  20.662  0.00  0.00    +0.000 C 
ATOM     14  O   UNL     1       1.641   5.699  20.548  0.00  0.00    +0.000 OA
ENDBRANCH   7  14
ENDBRANCH   1  12
BRANCH   4  15
ATOM     15  S   UNL     1       0.114  11.332  21.929  0.00  0.00    +0.000 S 
ATOM     16  O   UNL     1      -0.108  10.930  23.303  0.00  0.00    +0.000 OA
ATOM     17  O   UNL     1       1.461  11.586  21.480  0.00  0.00    +0.000 OA
BRANCH  15  18
ATOM     18  C   UNL     1      -0.921  12.736  21.596  0.00  0.00    +0.000 A 
ATOM     19  C   UNL     1      -2.204  12.908  22.203  0.00  0.00    +0.000 A 
ATOM     20  C   UNL     1      -2.760  11.958  23.242  0.00  0.00    +0.000 C 
ATOM     21  C   UNL     1      -3.073  13.975  21.823  0.00  0.00    +0.000 A 
ATOM     22  C   UNL     1      -2.739  14.972  20.895  0.00  0.00    +0.000 A 
ATOM     23  C   UNL     1      -1.452  14.883  20.330  0.00  0.00    +0.000 A 
ATOM     24  N   UNL     1      -0.939  15.756  19.450  0.00  0.00    +0.000 NA
ATOM     25  S   UNL     1       0.588  15.221  19.093  0.00  0.00    +0.000 S 
ATOM     26  N   UNL     1       0.634  13.832  19.989  0.00  0.00    +0.000 NA
ATOM     27  C   UNL     1      -0.518  13.741  20.672  0.00  0.00    +0.000 A 
ENDBRANCH  15  18
ENDBRANCH   4  15
TORSDOF 4
ENDMDL
MODEL 6
REMARK VINA RESULT:      -6.3      8.991     11.899
REMARK  Name = 
REMARK  6 active torsions:
REMARK  status: ('A' for Active; 'I' for Inactive)
REMARK    1  A    between atoms: C_1  and  O_2
REMARK    2  A    between atoms: O_2  and  C_3
REMARK    3  A    between atoms: C_8  and  N_9
REMARK    4  A    between atoms: N_12  and  S_13
REMARK    5  A    between atoms: S_13  and  C_16
REMARK    6  A    between atoms: C_17  and  C_18
REMARK                            x       y       z     vdW  Elec       q    Type
REMARK                         _______ _______ _______ _____ _____    ______ ____
ROOT
ATOM      1  N   UNL     1       8.906  13.030  21.515  0.00  0.00    +0.000 N 
ATOM      2  C   UNL     1       9.326  14.171  22.345  0.00  0.00    +0.000 C 
ATOM      3  C   UNL     1       8.097  14.810  23.022  0.00  0.00    +0.000 C 
ATOM      4  N   UNL     1       7.261  13.819  23.795  0.00  0.00    +0.000 NA
ATOM      5  C   UNL     1       6.895  12.669  22.891  0.00  0.00    +0.000 C 
ATOM      6  C   UNL     1       8.135  12.005  22.251  0.00  0.00    +0.000 C 
ENDROOT
BRANCH   1  12
ATOM      7  C   UNL     1       9.380  13.031  19.097  0.00  0.00    +0.000 A 
ATOM      8  C   UNL     1      10.255  12.729  18.041  0.00  0.00    +0.000 A 
ATOM      9  C   UNL     1      11.460  12.070  18.278  0.00  0.00    +0.000 A 
ATOM     10  C   UNL     1      11.780  11.670  19.566  0.00  0.00    +0.000 A 
ATOM     11  C   UNL     1      10.901  11.941  20.618  0.00  0.00    +0.000 A 
ATOM     12  C   UNL     1       9.693  12.641  20.426  0.00  0.00    +0.000 A 
BRANCH   7  14
ATOM     13  C   UNL     1       8.335  15.117  18.598  0.00  0.00    +0.000 C 
ATOM     14  O   UNL     1       8.212  13.738  18.912  0.00  0.00    +0.000 OA
ENDBRANCH   7  14
ENDBRANCH   1  12
BRANCH   4  15
ATOM     15  S   UNL     1       7.869  13.348  25.321  0.00  0.00    +0.000 S 
ATOM     16  O   UNL     1       8.205  11.941  25.256  0.00  0.00    +0.000 OA
ATOM     17  O   UNL     1       8.887  14.297  25.701  0.00  0.00    +0.000 OA
BRANCH  15  18
ATOM     18  C   UNL     1       6.446  13.522  26.369  0.00  0.00    +0.000 A 
ATOM     19  C   UNL     1       6.103  14.758  27.002  0.00  0.00    +0.000 A 
ATOM     20  C   UNL     1       6.867  16.043  26.773  0.00  0.00    +0.000 C 
ATOM     21  C   UNL     1       5.032  14.842  27.943  0.00  0.00    +0.000 A 
ATOM     22  C   UNL     1       4.190  13.773  28.278  0.00  0.00    +0.000 A 
ATOM     23  C   UNL     1       4.447  12.555  27.618  0.00  0.00    +0.000 A 
ATOM     24  N   UNL     1       3.735  11.430  27.781  0.00  0.00    +0.000 NA
ATOM     25  S   UNL     1       4.423  10.291  26.795  0.00  0.00    +0.000 S 
ATOM     26  N   UNL     1       5.684  11.159  26.172  0.00  0.00    +0.000 NA
ATOM     27  C   UNL     1       5.601  12.412  26.649  0.00  0.00    +0.000 A 
ENDBRANCH  15  18
ENDBRANCH   4  15
TORSDOF 4
ENDMDL
MODEL 7
REMARK VINA RESULT:      -6.3      4.279      9.426
REMARK  Name = 
REMARK  6 active torsions:
REMARK  status: ('A' for Active; 'I' for Inactive)
REMARK    1  A    between atoms: C_1  and  O_2
REMARK    2  A    between atoms: O_2  and  C_3
REMARK    3  A    between atoms: C_8  and  N_9
REMARK    4  A    between atoms: N_12  and  S_13
REMARK    5  A    between atoms: S_13  and  C_16
REMARK    6  A    between atoms: C_17  and  C_18
REMARK                            x       y       z     vdW  Elec       q    Type
REMARK                         _______ _______ _______ _____ _____    ______ ____
ROOT
ATOM      1  N   UNL     1       1.490   8.503  19.054  0.00  0.00    +0.000 N 
ATOM      2  C   UNL     1       1.075   9.511  18.065  0.00  0.00    +0.000 C 
ATOM      3  C   UNL     1      -0.386   9.931  18.322  0.00  0.00    +0.000 C 
ATOM      4  N   UNL     1      -0.635  10.386  19.739  0.00  0.00    +0.000 NA
ATOM      5  C   UNL     1      -0.160   9.318  20.692  0.00  0.00    +0.000 C 
ATOM      6  C   UNL     1       1.320   8.936  20.458  0.00  0.00    +0.000 C 
ENDROOT
BRANCH   1  12
ATOM      7  C   UNL     1       2.620   6.337  19.370  0.00  0.00    +0.000 A 
ATOM      8  C   UNL     1       3.583   5.407  18.943  0.00  0.00    +0.000 A 
ATOM      9  C   UNL     1       4.428   5.694  17.873  0.00  0.00    +0.000 A 
ATOM     10  C   UNL     1       4.347   6.929  17.249  0.00  0.00    +0.000 A 
ATOM     11  C   UNL     1       3.412   7.871  17.686  0.00  0.00    +0.000 A 
ATOM     12  C   UNL     1       2.512   7.604  18.736  0.00  0.00    +0.000 A 
BRANCH   7  14
ATOM     13  C   UNL     1       1.673   4.729  20.856  0.00  0.00    +0.000 C 
ATOM     14  O   UNL     1       1.724   6.065  20.379  0.00  0.00    +0.000 OA
ENDBRANCH   7  14
ENDBRANCH   1  12
BRANCH   4  15
ATOM     15  S   UNL     1      -0.104  11.963  20.128  0.00  0.00    +0.000 S 
ATOM     16  O   UNL     1       0.792  11.868  21.262  0.00  0.00    +0.000 OA
ATOM     17  O   UNL     1       0.364  12.582  18.912  0.00  0.00    +0.000 OA
BRANCH  15  18
ATOM     18  C   UNL     1      -1.600  12.745  20.678  0.00  0.00    +0.000 A 
ATOM     19  C   UNL     1      -1.643  13.611  21.815  0.00  0.00    +0.000 A 
ATOM     20  C   UNL     1      -0.411  14.006  22.599  0.00  0.00    +0.000 C 
ATOM     21  C   UNL     1      -2.878  14.124  22.316  0.00  0.00    +0.000 A 
ATOM     22  C   UNL     1      -4.127  13.894  21.724  0.00  0.00    +0.000 A 
ATOM     23  C   UNL     1      -4.120  13.107  20.555  0.00  0.00    +0.000 A 
ATOM     24  N   UNL     1      -5.206  12.803  19.829  0.00  0.00    +0.000 NA
ATOM     25  S   UNL     1      -4.681  11.868  18.566  0.00  0.00    +0.000 S 
ATOM     26  N   UNL     1      -3.071  11.762  18.924  0.00  0.00    +0.000 NA
ATOM     27  C   UNL     1      -2.838  12.507  20.017  0.00  0.00    +0.000 A 
ENDBRANCH  15  18
ENDBRANCH   4  15
TORSDOF 4
ENDMDL
MODEL 8
REMARK VINA RESULT:      -6.2      7.280     10.310
REMARK  Name = 
REMARK  6 active torsions:
REMARK  status: ('A' for Active; 'I' for Inactive)
REMARK    1  A    between atoms: C_1  and  O_2
REMARK    2  A    between atoms: O_2  and  C_3
REMARK    3  A    between atoms: C_8  and  N_9
REMARK    4  A    between atoms: N_12  and  S_13
REMARK    5  A    between atoms: S_13  and  C_16
REMARK    6  A    between atoms: C_17  and  C_18
REMARK                            x       y       z     vdW  Elec       q    Type
REMARK                         _______ _______ _______ _____ _____    ______ ____
ROOT
ATOM      1  N   UNL     1       4.062  15.430  19.176  0.00  0.00    +0.000 N 
ATOM      2  C   UNL     1       3.872  14.453  20.260  0.00  0.00    +0.000 C 
ATOM      3  C   UNL     1       2.545  14.731  20.994  0.00  0.00    +0.000 C 
ATOM      4  N   UNL     1       1.355  14.794  20.068  0.00  0.00    +0.000 NA
ATOM      5  C   UNL     1       1.634  15.791  18.972  0.00  0.00    +0.000 C 
ATOM      6  C   UNL     1       2.942  15.479  18.211  0.00  0.00    +0.000 C 
ENDROOT
BRANCH   1  12
ATOM      7  C   UNL     1       5.948  17.003  18.975  0.00  0.00    +0.000 A 
ATOM      8  C   UNL     1       7.290  17.236  18.632  0.00  0.00    +0.000 A 
ATOM      9  C   UNL     1       8.074  16.224  18.084  0.00  0.00    +0.000 A 
ATOM     10  C   UNL     1       7.511  14.981  17.833  0.00  0.00    +0.000 A 
ATOM     11  C   UNL     1       6.169  14.749  18.144  0.00  0.00    +0.000 A 
ATOM     12  C   UNL     1       5.354  15.734  18.738  0.00  0.00    +0.000 A 
BRANCH   7  14
ATOM     13  C   UNL     1       5.471  18.295  20.923  0.00  0.00    +0.000 C 
ATOM     14  O   UNL     1       5.161  17.958  19.579  0.00  0.00    +0.000 OA
ENDBRANCH   7  14
ENDBRANCH   1  12
BRANCH   4  15
ATOM     15  S   UNL     1       0.747  13.294  19.518  0.00  0.00    +0.000 S 
ATOM     16  O   UNL     1      -0.087  13.546  18.361  0.00  0.00    +0.000 OA
ATOM     17  O   UNL     1       1.861  12.386  19.398  0.00  0.00    +0.000 OA
BRANCH  15  18
ATOM     18  C   UNL     1      -0.309  12.797  20.856  0.00  0.00    +0.000 A 
ATOM     19  C   UNL     1      -1.424  13.580  21.289  0.00  0.00    +0.000 A 
ATOM     20  C   UNL     1      -1.855  14.856  20.598  0.00  0.00    +0.000 C 
ATOM     21  C   UNL     1      -2.180  13.227  22.447  0.00  0.00    +0.000 A 
ATOM     22  C   UNL     1      -1.957  12.075  23.215  0.00  0.00    +0.000 A 
ATOM     23  C   UNL     1      -0.914  11.234  22.776  0.00  0.00    +0.000 A 
ATOM     24  N   UNL     1      -0.568  10.076  23.357  0.00  0.00    +0.000 NA
ATOM     25  S   UNL     1       0.698   9.469  22.478  0.00  0.00    +0.000 S 
ATOM     26  N   UNL     1       0.896  10.678  21.368  0.00  0.00    +0.000 NA
ATOM     27  C   UNL     1      -0.060  11.596  21.580  0.00  0.00    +0.000 A 
ENDBRANCH  15  18
ENDBRANCH   4  15
TORSDOF 4
ENDMDL
MODEL 9
REMARK VINA RESULT:      -6.1      4.073      9.079
REMARK  Name = 
REMARK  6 active torsions:
REMARK  status: ('A' for Active; 'I' for Inactive)
REMARK    1  A    between atoms: C_1  and  O_2
REMARK    2  A    between atoms: O_2  and  C_3
REMARK    3  A    between atoms: C_8  and  N_9
REMARK    4  A    between atoms: N_12  and  S_13
REMARK    5  A    between atoms: S_13  and  C_16
REMARK    6  A    between atoms: C_17  and  C_18
REMARK                            x       y       z     vdW  Elec       q    Type
REMARK                         _______ _______ _______ _____ _____    ______ ____
ROOT
ATOM      1  N   UNL     1       1.869   8.148  18.901  0.00  0.00    +0.000 N 
ATOM      2  C   UNL     1       1.682   9.318  18.027  0.00  0.00    +0.000 C 
ATOM      3  C   UNL     1       0.324   9.985  18.324  0.00  0.00    +0.000 C 
ATOM      4  N   UNL     1       0.134  10.326  19.782  0.00  0.00    +0.000 NA
ATOM      5  C   UNL     1       0.369   9.090  20.613  0.00  0.00    +0.000 C 
ATOM      6  C   UNL     1       1.752   8.454  20.344  0.00  0.00    +0.000 C 
ENDROOT
BRANCH   1  12
ATOM      7  C   UNL     1       2.505   5.768  18.925  0.00  0.00    +0.000 A 
ATOM      8  C   UNL     1       3.285   4.724  18.399  0.00  0.00    +0.000 A 
ATOM      9  C   UNL     1       4.244   4.973  17.421  0.00  0.00    +0.000 A 
ATOM     10  C   UNL     1       4.464   6.273  16.990  0.00  0.00    +0.000 A 
ATOM     11  C   UNL     1       3.714   7.321  17.530  0.00  0.00    +0.000 A 
ATOM     12  C   UNL     1       2.705   7.106  18.490  0.00  0.00    +0.000 A 
BRANCH   7  14
ATOM     13  C   UNL     1       1.750   4.590  20.857  0.00  0.00    +0.000 C 
ATOM     14  O   UNL     1       1.503   5.554  19.844  0.00  0.00    +0.000 OA
ENDBRANCH   7  14
ENDBRANCH   1  12
BRANCH   4  15
ATOM     15  S   UNL     1       0.951  11.719  20.343  0.00  0.00    +0.000 S 
ATOM     16  O   UNL     1       1.492  11.423  21.654  0.00  0.00    +0.000 OA
ATOM     17  O   UNL     1       1.842  12.157  19.297  0.00  0.00    +0.000 OA
BRANCH  15  18
ATOM     18  C   UNL     1      -0.374  12.882  20.548  0.00  0.00    +0.000 A 
ATOM     19  C   UNL     1      -0.516  14.041  19.722  0.00  0.00    +0.000 A 
ATOM     20  C   UNL     1       0.395  14.337  18.551  0.00  0.00    +0.000 C 
ATOM     21  C   UNL     1      -1.511  15.029  19.988  0.00  0.00    +0.000 A 
ATOM     22  C   UNL     1      -2.466  14.935  21.011  0.00  0.00    +0.000 A 
ATOM     23  C   UNL     1      -2.408  13.769  21.801  0.00  0.00    +0.000 A 
ATOM     24  N   UNL     1      -3.251  13.482  22.804  0.00  0.00    +0.000 NA
ATOM     25  S   UNL     1      -2.775  12.016  23.412  0.00  0.00    +0.000 S 
ATOM     26  N   UNL     1      -1.449  11.720  22.471  0.00  0.00    +0.000 NA
ATOM     27  C   UNL     1      -1.340  12.720  21.581  0.00  0.00    +0.000 A 
ENDBRANCH  15  18
ENDBRANCH   4  15
TORSDOF 4
ENDMDL
