MODEL 1
REMARK VINA RESULT:      -8.0      0.000      0.000
REMARK  Name = 
REMARK  12 active torsions:
REMARK  status: ('A' for Active; 'I' for Inactive)
REMARK    1  A    between atoms: C_1  and  N_2
REMARK    2  A    between atoms: N_2  and  C_3
REMARK    3  A    between atoms: N_2  and  C_4
REMARK    4  A    between atoms: C_4  and  C_5
REMARK    5  A    between atoms: C_5  and  C_6
REMARK    6  A    between atoms: C_6  and  N_7
REMARK    7  A    between atoms: C_15  and  N_16
REMARK    8  A    between atoms: N_16  and  C_17
REMARK    9  A    between atoms: C_17  and  C_18
REMARK   10  A    between atoms: C_17  and  C_19
REMARK   11  A    between atoms: C_17  and  C_20
REMARK   12  A    between atoms: C_21  and  C_22
REMARK                            x       y       z     vdW  Elec       q    Type
REMARK                         _______ _______ _______ _____ _____    ______ ____
ROOT
ATOM      1  N   UNL     1      -0.054  10.500  20.752  0.00  0.00    +0.000 N 
ATOM      2  C   UNL     1       0.106  11.192  19.580  0.00  0.00    +0.000 A 
ATOM      3  N   UNL     1       0.876  10.545  18.720  0.00  0.00    +0.000 NA
ATOM      4  C   UNL     1       1.200   9.394  19.373  0.00  0.00    +0.000 A 
ATOM      5  C   UNL     1       0.645   9.340  20.632  0.00  0.00    +0.000 A 
ATOM      6  N   UNL     1       0.740   8.387  21.587  0.00  0.00    +0.000 NA
ATOM      7  C   UNL     1       1.461   7.357  21.230  0.00  0.00    +0.000 A 
ATOM      8  N   UNL     1       2.086   7.210  19.980  0.00  0.00    +0.000 N 
ATOM      9  C   UNL     1       2.874   6.188  19.461  0.00  0.00    +0.000 A 
ATOM     10  C   UNL     1       3.229   6.669  18.194  0.00  0.00    +0.000 A 
ATOM     11  N   UNL     1       2.690   7.918  17.944  0.00  0.00    +0.000 NA
ATOM     12  C   UNL     1       2.009   8.206  19.023  0.00  0.00    +0.000 A 
ENDROOT
BRANCH  10  13
ATOM     13  C   UNL     1       4.056   5.995  17.196  0.00  0.00    +0.000 A 
ATOM     14  C   UNL     1       4.029   4.601  17.032  0.00  0.00    +0.000 A 
ATOM     15  C   UNL     1       4.830   3.977  16.064  0.00  0.00    +0.000 A 
ATOM     16  C   UNL     1       5.648   4.744  15.243  0.00  0.00    +0.000 A 
ATOM     17 CL   UNL     1       6.615   3.974  14.046  0.00  0.00    +0.000 Cl
ATOM     18  C   UNL     1       5.665   6.130  15.367  0.00  0.00    +0.000 A 
ATOM     19  C   UNL     1       4.873   6.752  16.342  0.00  0.00    +0.000 A 
ENDBRANCH  10  13
BRANCH   9  20
ATOM     20  N   UNL     1       3.292   5.061  20.132  0.00  0.00    +0.000 N 
ATOM     21  H   UNL     1       4.306   4.936  20.172  0.00  0.00    +0.000 HD
BRANCH  20  22
ATOM     22  C   UNL     1       2.581   3.781  20.324  0.00  0.00    +0.000 C 
ATOM     23  C   UNL     1       2.049   3.579  21.751  0.00  0.00    +0.000 C 
ATOM     24  C   UNL     1       1.339   3.779  19.397  0.00  0.00    +0.000 C 
ATOM     25  C   UNL     1       3.472   2.635  19.808  0.00  0.00    +0.000 C 
ENDBRANCH  20  22
ENDBRANCH   9  20
BRANCH   1  26
ATOM     26  C   UNL     1      -0.805  10.894  21.925  0.00  0.00    +0.000 C 
BRANCH  26  27
ATOM     27  C   UNL     1      -1.162  12.382  21.930  0.00  0.00    +0.000 C 
BRANCH  27  28
ATOM     28  C   UNL     1      -1.988  12.798  23.153  0.00  0.00    +0.000 C 
BRANCH  28  30
ATOM     29  C   UNL     1      -4.054  12.488  24.401  0.00  0.00    +0.000 C 
ATOM     30  N   UNL     1      -3.338  12.213  23.153  0.00  0.00    +0.000 NA
ATOM     31  C   UNL     1      -4.106  12.719  22.013  0.00  0.00    +0.000 C 
ENDBRANCH  28  30
ENDBRANCH  27  28
ENDBRANCH  26  27
ENDBRANCH   1  26
TORSDOF 7
ENDMDL
MODEL 2
REMARK VINA RESULT:      -7.9      0.419      1.229
REMARK  Name = 
REMARK  12 active torsions:
REMARK  status: ('A' for Active; 'I' for Inactive)
REMARK    1  A    between atoms: C_1  and  N_2
REMARK    2  A    between atoms: N_2  and  C_3
REMARK    3  A    between atoms: N_2  and  C_4
REMARK    4  A    between atoms: C_4  and  C_5
REMARK    5  A    between atoms: C_5  and  C_6
REMARK    6  A    between atoms: C_6  and  N_7
REMARK    7  A    between atoms: C_15  and  N_16
REMARK    8  A    between atoms: N_16  and  C_17
REMARK    9  A    between atoms: C_17  and  C_18
REMARK   10  A    between atoms: C_17  and  C_19
REMARK   11  A    between atoms: C_17  and  C_20
REMARK   12  A    between atoms: C_21  and  C_22
REMARK                            x       y       z     vdW  Elec       q    Type
REMARK                         _______ _______ _______ _____ _____    ______ ____
ROOT
ATOM      1  N   UNL     1      -0.249  10.811  20.622  0.00  0.00    +0.000 N 
ATOM      2  C   UNL     1      -0.026  11.469  19.439  0.00  0.00    +0.000 A 
ATOM      3  N   UNL     1       0.775  10.788  18.634  0.00  0.00    +0.000 NA
ATOM      4  C   UNL     1       1.054   9.653  19.333  0.00  0.00    +0.000 A 
ATOM      5  C   UNL     1       0.441   9.641  20.566  0.00  0.00    +0.000 A 
ATOM      6  N   UNL     1       0.480   8.715  21.551  0.00  0.00    +0.000 NA
ATOM      7  C   UNL     1       1.204   7.667  21.256  0.00  0.00    +0.000 A 
ATOM      8  N   UNL     1       1.885   7.478  20.041  0.00  0.00    +0.000 N 
ATOM      9  C   UNL     1       2.683   6.433  19.589  0.00  0.00    +0.000 A 
ATOM     10  C   UNL     1       3.103   6.874  18.327  0.00  0.00    +0.000 A 
ATOM     11  N   UNL     1       2.591   8.122  18.017  0.00  0.00    +0.000 NA
ATOM     12  C   UNL     1       1.864   8.447  19.055  0.00  0.00    +0.000 A 
ENDROOT
BRANCH  10  13
ATOM     13  C   UNL     1       3.967   6.163  17.387  0.00  0.00    +0.000 A 
ATOM     14  C   UNL     1       5.086   6.777  16.802  0.00  0.00    +0.000 A 
ATOM     15  C   UNL     1       5.903   6.072  15.904  0.00  0.00    +0.000 A 
ATOM     16  C   UNL     1       5.616   4.747  15.602  0.00  0.00    +0.000 A 
ATOM     17 CL   UNL     1       6.632   3.883  14.514  0.00  0.00    +0.000 Cl
ATOM     18  C   UNL     1       4.531   4.110  16.197  0.00  0.00    +0.000 A 
ATOM     19  C   UNL     1       3.709   4.818  17.084  0.00  0.00    +0.000 A 
ENDBRANCH  10  13
BRANCH   9  20
ATOM     20  N   UNL     1       3.056   5.322  20.309  0.00  0.00    +0.000 N 
ATOM     21  H   UNL     1       4.054   5.267  20.530  0.00  0.00    +0.000 HD
BRANCH  20  22
ATOM     22  C   UNL     1       2.420   3.989  20.352  0.00  0.00    +0.000 C 
ATOM     23  C   UNL     1       1.170   3.876  19.464  0.00  0.00    +0.000 C 
ATOM     24  C   UNL     1       3.434   2.955  19.801  0.00  0.00    +0.000 C 
ATOM     25  C   UNL     1       2.194   3.592  21.823  0.00  0.00    +0.000 C 
ENDBRANCH  20  22
ENDBRANCH   9  20
BRANCH   1  26
ATOM     26  C   UNL     1      -1.048  11.246  21.747  0.00  0.00    +0.000 C 
BRANCH  26  27
ATOM     27  C   UNL     1      -1.776  12.567  21.484  0.00  0.00    +0.000 C 
BRANCH  27  28
ATOM     28  C   UNL     1      -2.518  13.100  22.714  0.00  0.00    +0.000 C 
BRANCH  28  30
ATOM     29  C   UNL     1      -4.137  12.440  24.409  0.00  0.00    +0.000 C 
ATOM     30  N   UNL     1      -3.757  12.357  22.996  0.00  0.00    +0.000 NA
ATOM     31  C   UNL     1      -4.847  12.860  22.156  0.00  0.00    +0.000 C 
ENDBRANCH  28  30
ENDBRANCH  27  28
ENDBRANCH  26  27
ENDBRANCH   1  26
TORSDOF 7
ENDMDL
MODEL 3
REMARK VINA RESULT:      -7.6      0.833      1.618
REMARK  Name = 
REMARK  12 active torsions:
REMARK  status: ('A' for Active; 'I' for Inactive)
REMARK    1  A    between atoms: C_1  and  N_2
REMARK    2  A    between atoms: N_2  and  C_3
REMARK    3  A    between atoms: N_2  and  C_4
REMARK    4  A    between atoms: C_4  and  C_5
REMARK    5  A    between atoms: C_5  and  C_6
REMARK    6  A    between atoms: C_6  and  N_7
REMARK    7  A    between atoms: C_15  and  N_16
REMARK    8  A    between atoms: N_16  and  C_17
REMARK    9  A    between atoms: C_17  and  C_18
REMARK   10  A    between atoms: C_17  and  C_19
REMARK   11  A    between atoms: C_17  and  C_20
REMARK   12  A    between atoms: C_21  and  C_22
REMARK                            x       y       z     vdW  Elec       q    Type
REMARK                         _______ _______ _______ _____ _____    ______ ____
ROOT
ATOM      1  N   UNL     1      -0.056  10.638  20.668  0.00  0.00    +0.000 N 
ATOM      2  C   UNL     1       0.115  11.316  19.488  0.00  0.00    +0.000 A 
ATOM      3  N   UNL     1       0.880  10.650  18.637  0.00  0.00    +0.000 NA
ATOM      4  C   UNL     1       1.188   9.502  19.302  0.00  0.00    +0.000 A 
ATOM      5  C   UNL     1       0.629   9.468  20.561  0.00  0.00    +0.000 A 
ATOM      6  N   UNL     1       0.710   8.524  21.526  0.00  0.00    +0.000 NA
ATOM      7  C   UNL     1       1.419   7.482  21.181  0.00  0.00    +0.000 A 
ATOM      8  N   UNL     1       2.046   7.314  19.934  0.00  0.00    +0.000 N 
ATOM      9  C   UNL     1       2.822   6.277  19.428  0.00  0.00    +0.000 A 
ATOM     10  C   UNL     1       3.187   6.741  18.157  0.00  0.00    +0.000 A 
ATOM     11  N   UNL     1       2.663   7.994  17.893  0.00  0.00    +0.000 NA
ATOM     12  C   UNL     1       1.983   8.301  18.967  0.00  0.00    +0.000 A 
ENDROOT
BRANCH  10  13
ATOM     13  C   UNL     1       4.008   6.047  17.168  0.00  0.00    +0.000 A 
ATOM     14  C   UNL     1       4.881   6.740  16.314  0.00  0.00    +0.000 A 
ATOM     15  C   UNL     1       5.661   6.051  15.374  0.00  0.00    +0.000 A 
ATOM     16  C   UNL     1       5.588   4.666  15.295  0.00  0.00    +0.000 A 
ATOM     17 CL   UNL     1       6.562   3.824  14.152  0.00  0.00    +0.000 Cl
ATOM     18  C   UNL     1       4.755   3.957  16.156  0.00  0.00    +0.000 A 
ATOM     19  C   UNL     1       3.966   4.647  17.087  0.00  0.00    +0.000 A 
ENDBRANCH  10  13
BRANCH   9  20
ATOM     20  N   UNL     1       3.225   5.153  20.112  0.00  0.00    +0.000 N 
ATOM     21  H   UNL     1       4.238   5.019  20.160  0.00  0.00    +0.000 HD
BRANCH  20  22
ATOM     22  C   UNL     1       2.501   3.881  20.309  0.00  0.00    +0.000 C 
ATOM     23  C   UNL     1       1.290   3.712  19.378  0.00  0.00    +0.000 C 
ATOM     24  C   UNL     1       3.470   2.720  19.969  0.00  0.00    +0.000 C 
ATOM     25  C   UNL     1       2.182   3.716  21.807  0.00  0.00    +0.000 C 
ENDBRANCH  20  22
ENDBRANCH   9  20
BRANCH   1  26
ATOM     26  C   UNL     1      -0.805  11.052  21.835  0.00  0.00    +0.000 C 
BRANCH  26  27
ATOM     27  C   UNL     1      -1.342  12.481  21.719  0.00  0.00    +0.000 C 
BRANCH  27  28
ATOM     28  C   UNL     1      -0.496  13.505  22.483  0.00  0.00    +0.000 C 
BRANCH  28  30
ATOM     29  C   UNL     1      -1.060  15.520  23.726  0.00  0.00    +0.000 C 
ATOM     30  N   UNL     1      -1.196  14.064  23.651  0.00  0.00    +0.000 NA
ATOM     31  C   UNL     1      -2.614  13.697  23.610  0.00  0.00    +0.000 C 
ENDBRANCH  28  30
ENDBRANCH  27  28
ENDBRANCH  26  27
ENDBRANCH   1  26
TORSDOF 7
ENDMDL
MODEL 4
REMARK VINA RESULT:      -7.6      1.034      1.392
REMARK  Name = 
REMARK  12 active torsions:
REMARK  status: ('A' for Active; 'I' for Inactive)
REMARK    1  A    between atoms: C_1  and  N_2
REMARK    2  A    between atoms: N_2  and  C_3
REMARK    3  A    between atoms: N_2  and  C_4
REMARK    4  A    between atoms: C_4  and  C_5
REMARK    5  A    between atoms: C_5  and  C_6
REMARK    6  A    between atoms: C_6  and  N_7
REMARK    7  A    between atoms: C_15  and  N_16
REMARK    8  A    between atoms: N_16  and  C_17
REMARK    9  A    between atoms: C_17  and  C_18
REMARK   10  A    between atoms: C_17  and  C_19
REMARK   11  A    between atoms: C_17  and  C_20
REMARK   12  A    between atoms: C_21  and  C_22
REMARK                            x       y       z     vdW  Elec       q    Type
REMARK                         _______ _______ _______ _____ _____    ______ ____
ROOT
ATOM      1  N   UNL     1       0.045  10.773  20.472  0.00  0.00    +0.000 N 
ATOM      2  C   UNL     1       0.218  11.405  19.267  0.00  0.00    +0.000 A 
ATOM      3  N   UNL     1       0.974  10.701  18.440  0.00  0.00    +0.000 NA
ATOM      4  C   UNL     1       1.274   9.576  19.146  0.00  0.00    +0.000 A 
ATOM      5  C   UNL     1       0.720   9.594  20.407  0.00  0.00    +0.000 A 
ATOM      6  N   UNL     1       0.796   8.686  21.406  0.00  0.00    +0.000 NA
ATOM      7  C   UNL     1       1.495   7.625  21.099  0.00  0.00    +0.000 A 
ATOM      8  N   UNL     1       2.116   7.406  19.857  0.00  0.00    +0.000 N 
ATOM      9  C   UNL     1       2.882   6.344  19.388  0.00  0.00    +0.000 A 
ATOM     10  C   UNL     1       3.246   6.757  18.100  0.00  0.00    +0.000 A 
ATOM     11  N   UNL     1       2.732   8.004  17.790  0.00  0.00    +0.000 NA
ATOM     12  C   UNL     1       2.058   8.356  18.854  0.00  0.00    +0.000 A 
ENDROOT
BRANCH  10  13
ATOM     13  C   UNL     1       4.058   6.019  17.135  0.00  0.00    +0.000 A 
ATOM     14  C   UNL     1       3.988   4.621  17.024  0.00  0.00    +0.000 A 
ATOM     15  C   UNL     1       4.776   3.936  16.088  0.00  0.00    +0.000 A 
ATOM     16  C   UNL     1       5.623   4.644  15.245  0.00  0.00    +0.000 A 
ATOM     17 CL   UNL     1       6.573   3.798  14.085  0.00  0.00    +0.000 Cl
ATOM     18  C   UNL     1       5.683   6.033  15.315  0.00  0.00    +0.000 A 
ATOM     19  C   UNL     1       4.904   6.716  16.259  0.00  0.00    +0.000 A 
ENDBRANCH  10  13
BRANCH   9  20
ATOM     20  N   UNL     1       3.277   5.243  20.112  0.00  0.00    +0.000 N 
ATOM     21  H   UNL     1       4.289   5.124  20.196  0.00  0.00    +0.000 HD
BRANCH  20  22
ATOM     22  C   UNL     1       2.564   3.965  20.317  0.00  0.00    +0.000 C 
ATOM     23  C   UNL     1       2.062   3.764  21.756  0.00  0.00    +0.000 C 
ATOM     24  C   UNL     1       1.301   3.971  19.418  0.00  0.00    +0.000 C 
ATOM     25  C   UNL     1       3.438   2.816  19.780  0.00  0.00    +0.000 C 
ENDBRANCH  20  22
ENDBRANCH   9  20
BRANCH   1  26
ATOM     26  C   UNL     1      -0.697  11.237  21.625  0.00  0.00    +0.000 C 
BRANCH  26  27
ATOM     27  C   UNL     1      -1.907  12.094  21.246  0.00  0.00    +0.000 C 
BRANCH  27  28
ATOM     28  C   UNL     1      -1.704  13.585  21.539  0.00  0.00    +0.000 C 
BRANCH  28  30
ATOM     29  C   UNL     1       0.311  14.786  22.186  0.00  0.00    +0.000 C 
ATOM     30  N   UNL     1      -0.714  13.826  22.601  0.00  0.00    +0.000 NA
ATOM     31  C   UNL     1      -1.382  14.301  23.814  0.00  0.00    +0.000 C 
ENDBRANCH  28  30
ENDBRANCH  27  28
ENDBRANCH  26  27
ENDBRANCH   1  26
TORSDOF 7
ENDMDL
MODEL 5
REMARK VINA RESULT:      -7.6      0.822      1.302
REMARK  Name = 
REMARK  12 active torsions:
REMARK  status: ('A' for Active; 'I' for Inactive)
REMARK    1  A    between atoms: C_1  and  N_2
REMARK    2  A    between atoms: N_2  and  C_3
REMARK    3  A    between atoms: N_2  and  C_4
REMARK    4  A    between atoms: C_4  and  C_5
REMARK    5  A    between atoms: C_5  and  C_6
REMARK    6  A    between atoms: C_6  and  N_7
REMARK    7  A    between atoms: C_15  and  N_16
REMARK    8  A    between atoms: N_16  and  C_17
REMARK    9  A    between atoms: C_17  and  C_18
REMARK   10  A    between atoms: C_17  and  C_19
REMARK   11  A    between atoms: C_17  and  C_20
REMARK   12  A    between atoms: C_21  and  C_22
REMARK                            x       y       z     vdW  Elec       q    Type
REMARK                         _______ _______ _______ _____ _____    ______ ____
ROOT
ATOM      1  N   UNL     1      -0.025  10.594  20.726  0.00  0.00    +0.000 N 
ATOM      2  C   UNL     1       0.141  11.270  19.544  0.00  0.00    +0.000 A 
ATOM      3  N   UNL     1       0.898  10.599  18.689  0.00  0.00    +0.000 NA
ATOM      4  C   UNL     1       1.205   9.451  19.354  0.00  0.00    +0.000 A 
ATOM      5  C   UNL     1       0.655   9.422  20.617  0.00  0.00    +0.000 A 
ATOM      6  N   UNL     1       0.739   8.480  21.583  0.00  0.00    +0.000 NA
ATOM      7  C   UNL     1       1.442   7.433  21.236  0.00  0.00    +0.000 A 
ATOM      8  N   UNL     1       2.059   7.261  19.985  0.00  0.00    +0.000 N 
ATOM      9  C   UNL     1       2.828   6.220  19.475  0.00  0.00    +0.000 A 
ATOM     10  C   UNL     1       3.186   6.680  18.201  0.00  0.00    +0.000 A 
ATOM     11  N   UNL     1       2.665   7.935  17.938  0.00  0.00    +0.000 NA
ATOM     12  C   UNL     1       1.994   8.246  19.016  0.00  0.00    +0.000 A 
ENDROOT
BRANCH  10  13
ATOM     13  C   UNL     1       3.998   5.981  17.208  0.00  0.00    +0.000 A 
ATOM     14  C   UNL     1       3.958   4.584  17.071  0.00  0.00    +0.000 A 
ATOM     15  C   UNL     1       4.745   3.936  16.107  0.00  0.00    +0.000 A 
ATOM     16  C   UNL     1       5.560   4.680  15.264  0.00  0.00    +0.000 A 
ATOM     17 CL   UNL     1       6.509   3.880  14.071  0.00  0.00    +0.000 Cl
ATOM     18  C   UNL     1       5.588   6.069  15.360  0.00  0.00    +0.000 A 
ATOM     19  C   UNL     1       4.811   6.715  16.331  0.00  0.00    +0.000 A 
ENDBRANCH  10  13
BRANCH   9  20
ATOM     20  N   UNL     1       3.231   5.095  20.159  0.00  0.00    +0.000 N 
ATOM     21  H   UNL     1       4.242   5.009  20.287  0.00  0.00    +0.000 HD
BRANCH  20  22
ATOM     22  C   UNL     1       2.560   3.784  20.259  0.00  0.00    +0.000 C 
ATOM     23  C   UNL     1       3.480   2.595  19.938  0.00  0.00    +0.000 C 
ATOM     24  C   UNL     1       2.103   3.589  21.727  0.00  0.00    +0.000 C 
ATOM     25  C   UNL     1       1.260   3.825  19.433  0.00  0.00    +0.000 C 
ENDBRANCH  20  22
ENDBRANCH   9  20
BRANCH   1  26
ATOM     26  C   UNL     1      -0.764  11.014  21.897  0.00  0.00    +0.000 C 
BRANCH  26  27
ATOM     27  C   UNL     1      -0.611  12.509  22.192  0.00  0.00    +0.000 C 
BRANCH  27  28
ATOM     28  C   UNL     1      -1.939  13.272  22.132  0.00  0.00    +0.000 C 
BRANCH  28  30
ATOM     29  C   UNL     1      -2.294  15.650  22.511  0.00  0.00    +0.000 C 
ATOM     30  N   UNL     1      -2.020  14.350  23.130  0.00  0.00    +0.000 NA
ATOM     31  C   UNL     1      -3.054  14.042  24.121  0.00  0.00    +0.000 C 
ENDBRANCH  28  30
ENDBRANCH  27  28
ENDBRANCH  26  27
ENDBRANCH   1  26
TORSDOF 7
ENDMDL
MODEL 6
REMARK VINA RESULT:      -7.5      0.645      1.160
REMARK  Name = 
REMARK  12 active torsions:
REMARK  status: ('A' for Active; 'I' for Inactive)
REMARK    1  A    between atoms: C_1  and  N_2
REMARK    2  A    between atoms: N_2  and  C_3
REMARK    3  A    between atoms: N_2  and  C_4
REMARK    4  A    between atoms: C_4  and  C_5
REMARK    5  A    between atoms: C_5  and  C_6
REMARK    6  A    between atoms: C_6  and  N_7
REMARK    7  A    between atoms: C_15  and  N_16
REMARK    8  A    between atoms: N_16  and  C_17
REMARK    9  A    between atoms: C_17  and  C_18
REMARK   10  A    between atoms: C_17  and  C_19
REMARK   11  A    between atoms: C_17  and  C_20
REMARK   12  A    between atoms: C_21  and  C_22
REMARK                            x       y       z     vdW  Elec       q    Type
REMARK                         _______ _______ _______ _____ _____    ______ ____
ROOT
ATOM      1  N   UNL     1      -0.123  10.741  20.614  0.00  0.00    +0.000 N 
ATOM      2  C   UNL     1       0.043  11.390  19.418  0.00  0.00    +0.000 A 
ATOM      3  N   UNL     1       0.822  10.713  18.588  0.00  0.00    +0.000 NA
ATOM      4  C   UNL     1       1.145   9.589  19.285  0.00  0.00    +0.000 A 
ATOM      5  C   UNL     1       0.581   9.580  20.542  0.00  0.00    +0.000 A 
ATOM      6  N   UNL     1       0.673   8.663  21.532  0.00  0.00    +0.000 NA
ATOM      7  C   UNL     1       1.400   7.623  21.219  0.00  0.00    +0.000 A 
ATOM      8  N   UNL     1       2.034   7.432  19.979  0.00  0.00    +0.000 N 
ATOM      9  C   UNL     1       2.829   6.394  19.504  0.00  0.00    +0.000 A 
ATOM     10  C   UNL     1       3.192   6.830  18.223  0.00  0.00    +0.000 A 
ATOM     11  N   UNL     1       2.650   8.067  17.923  0.00  0.00    +0.000 NA
ATOM     12  C   UNL     1       1.961   8.392  18.985  0.00  0.00    +0.000 A 
ENDROOT
BRANCH  10  13
ATOM     13  C   UNL     1       4.029   6.122  17.256  0.00  0.00    +0.000 A 
ATOM     14  C   UNL     1       5.074   6.764  16.573  0.00  0.00    +0.000 A 
ATOM     15  C   UNL     1       5.865   6.062  15.651  0.00  0.00    +0.000 A 
ATOM     16  C   UNL     1       5.629   4.713  15.421  0.00  0.00    +0.000 A 
ATOM     17 CL   UNL     1       6.615   3.854  14.302  0.00  0.00    +0.000 Cl
ATOM     18  C   UNL     1       4.619   4.050  16.113  0.00  0.00    +0.000 A 
ATOM     19  C   UNL     1       3.821   4.754  17.025  0.00  0.00    +0.000 A 
ENDBRANCH  10  13
BRANCH   9  20
ATOM     20  N   UNL     1       3.247   5.295  20.219  0.00  0.00    +0.000 N 
ATOM     21  H   UNL     1       4.258   5.229  20.355  0.00  0.00    +0.000 HD
BRANCH  20  22
ATOM     22  C   UNL     1       2.595   3.976  20.352  0.00  0.00    +0.000 C 
ATOM     23  C   UNL     1       2.064   3.691  21.766  0.00  0.00    +0.000 C 
ATOM     24  C   UNL     1       1.360   3.954  19.416  0.00  0.00    +0.000 C 
ATOM     25  C   UNL     1       3.543   2.895  19.797  0.00  0.00    +0.000 C 
ENDBRANCH  20  22
ENDBRANCH   9  20
BRANCH   1  26
ATOM     26  C   UNL     1      -0.883  11.175  21.766  0.00  0.00    +0.000 C 
BRANCH  26  27
ATOM     27  C   UNL     1      -0.575  12.618  22.172  0.00  0.00    +0.000 C 
BRANCH  27  28
ATOM     28  C   UNL     1      -1.516  13.151  23.259  0.00  0.00    +0.000 C 
BRANCH  28  30
ATOM     29  C   UNL     1      -3.895  13.005  22.763  0.00  0.00    +0.000 C 
ATOM     30  N   UNL     1      -2.692  13.840  22.704  0.00  0.00    +0.000 NA
ATOM     31  C   UNL     1      -2.922  15.098  23.419  0.00  0.00    +0.000 C 
ENDBRANCH  28  30
ENDBRANCH  27  28
ENDBRANCH  26  27
ENDBRANCH   1  26
TORSDOF 7
ENDMDL
MODEL 7
REMARK VINA RESULT:      -7.5      1.055      1.850
REMARK  Name = 
REMARK  12 active torsions:
REMARK  status: ('A' for Active; 'I' for Inactive)
REMARK    1  A    between atoms: C_1  and  N_2
REMARK    2  A    between atoms: N_2  and  C_3
REMARK    3  A    between atoms: N_2  and  C_4
REMARK    4  A    between atoms: C_4  and  C_5
REMARK    5  A    between atoms: C_5  and  C_6
REMARK    6  A    between atoms: C_6  and  N_7
REMARK    7  A    between atoms: C_15  and  N_16
REMARK    8  A    between atoms: N_16  and  C_17
REMARK    9  A    between atoms: C_17  and  C_18
REMARK   10  A    between atoms: C_17  and  C_19
REMARK   11  A    between atoms: C_17  and  C_20
REMARK   12  A    between atoms: C_21  and  C_22
REMARK                            x       y       z     vdW  Elec       q    Type
REMARK                         _______ _______ _______ _____ _____    ______ ____
ROOT
ATOM      1  N   UNL     1      -0.051  10.612  20.803  0.00  0.00    +0.000 N 
ATOM      2  C   UNL     1       0.112  11.311  19.634  0.00  0.00    +0.000 A 
ATOM      3  N   UNL     1       0.875  10.662  18.768  0.00  0.00    +0.000 NA
ATOM      4  C   UNL     1       1.191   9.505  19.413  0.00  0.00    +0.000 A 
ATOM      5  C   UNL     1       0.639   9.448  20.674  0.00  0.00    +0.000 A 
ATOM      6  N   UNL     1       0.728   8.488  21.622  0.00  0.00    +0.000 NA
ATOM      7  C   UNL     1       1.440   7.454  21.257  0.00  0.00    +0.000 A 
ATOM      8  N   UNL     1       2.061   7.310  20.004  0.00  0.00    +0.000 N 
ATOM      9  C   UNL     1       2.839   6.285  19.477  0.00  0.00    +0.000 A 
ATOM     10  C   UNL     1       3.196   6.771  18.213  0.00  0.00    +0.000 A 
ATOM     11  N   UNL     1       2.665   8.026  17.971  0.00  0.00    +0.000 NA
ATOM     12  C   UNL     1       1.989   8.313  19.054  0.00  0.00    +0.000 A 
ENDROOT
BRANCH  10  13
ATOM     13  C   UNL     1       4.015   6.097  17.208  0.00  0.00    +0.000 A 
ATOM     14  C   UNL     1       4.904   6.804  16.383  0.00  0.00    +0.000 A 
ATOM     15  C   UNL     1       5.682   6.133  15.427  0.00  0.00    +0.000 A 
ATOM     16  C   UNL     1       5.589   4.753  15.304  0.00  0.00    +0.000 A 
ATOM     17 CL   UNL     1       6.560   3.934  14.142  0.00  0.00    +0.000 Cl
ATOM     18  C   UNL     1       4.739   4.029  16.135  0.00  0.00    +0.000 A 
ATOM     19  C   UNL     1       3.953   4.701  17.082  0.00  0.00    +0.000 A 
ENDBRANCH  10  13
BRANCH   9  20
ATOM     20  N   UNL     1       3.249   5.151  20.140  0.00  0.00    +0.000 N 
ATOM     21  H   UNL     1       4.263   5.056  20.244  0.00  0.00    +0.000 HD
BRANCH  20  22
ATOM     22  C   UNL     1       2.571   3.843  20.244  0.00  0.00    +0.000 C 
ATOM     23  C   UNL     1       3.487   2.648  19.936  0.00  0.00    +0.000 C 
ATOM     24  C   UNL     1       2.104   3.660  21.711  0.00  0.00    +0.000 C 
ATOM     25  C   UNL     1       1.277   3.886  19.410  0.00  0.00    +0.000 C 
ENDBRANCH  20  22
ENDBRANCH   9  20
BRANCH   1  26
ATOM     26  C   UNL     1      -0.795  11.005  21.980  0.00  0.00    +0.000 C 
BRANCH  26  27
ATOM     27  C   UNL     1      -1.399  12.406  21.862  0.00  0.00    +0.000 C 
BRANCH  27  28
ATOM     28  C   UNL     1      -1.114  13.288  23.083  0.00  0.00    +0.000 C 
BRANCH  28  30
ATOM     29  C   UNL     1      -1.216  15.135  21.501  0.00  0.00    +0.000 C 
ATOM     30  N   UNL     1      -0.589  14.613  22.718  0.00  0.00    +0.000 NA
ATOM     31  C   UNL     1      -0.785  15.555  23.823  0.00  0.00    +0.000 C 
ENDBRANCH  28  30
ENDBRANCH  27  28
ENDBRANCH  26  27
ENDBRANCH   1  26
TORSDOF 7
ENDMDL
MODEL 8
REMARK VINA RESULT:      -7.5      1.203      1.751
REMARK  Name = 
REMARK  12 active torsions:
REMARK  status: ('A' for Active; 'I' for Inactive)
REMARK    1  A    between atoms: C_1  and  N_2
REMARK    2  A    between atoms: N_2  and  C_3
REMARK    3  A    between atoms: N_2  and  C_4
REMARK    4  A    between atoms: C_4  and  C_5
REMARK    5  A    between atoms: C_5  and  C_6
REMARK    6  A    between atoms: C_6  and  N_7
REMARK    7  A    between atoms: C_15  and  N_16
REMARK    8  A    between atoms: N_16  and  C_17
REMARK    9  A    between atoms: C_17  and  C_18
REMARK   10  A    between atoms: C_17  and  C_19
REMARK   11  A    between atoms: C_17  and  C_20
REMARK   12  A    between atoms: C_21  and  C_22
REMARK                            x       y       z     vdW  Elec       q    Type
REMARK                         _______ _______ _______ _____ _____    ______ ____
ROOT
ATOM      1  N   UNL     1      -0.249  10.748  20.674  0.00  0.00    +0.000 N 
ATOM      2  C   UNL     1      -0.043  11.394  19.482  0.00  0.00    +0.000 A 
ATOM      3  N   UNL     1       0.747  10.706  18.673  0.00  0.00    +0.000 NA
ATOM      4  C   UNL     1       1.035   9.577  19.378  0.00  0.00    +0.000 A 
ATOM      5  C   UNL     1       0.439   9.576  20.620  0.00  0.00    +0.000 A 
ATOM      6  N   UNL     1       0.491   8.659  21.612  0.00  0.00    +0.000 NA
ATOM      7  C   UNL     1       1.210   7.608  21.317  0.00  0.00    +0.000 A 
ATOM      8  N   UNL     1       1.873   7.407  20.094  0.00  0.00    +0.000 N 
ATOM      9  C   UNL     1       2.665   6.358  19.640  0.00  0.00    +0.000 A 
ATOM     10  C   UNL     1       3.067   6.787  18.368  0.00  0.00    +0.000 A 
ATOM     11  N   UNL     1       2.552   8.032  18.054  0.00  0.00    +0.000 NA
ATOM     12  C   UNL     1       1.840   8.367  19.099  0.00  0.00    +0.000 A 
ENDROOT
BRANCH  10  13
ATOM     13  C   UNL     1       3.918   6.067  17.423  0.00  0.00    +0.000 A 
ATOM     14  C   UNL     1       3.688   4.720  17.099  0.00  0.00    +0.000 A 
ATOM     15  C   UNL     1       4.518   4.052  16.186  0.00  0.00    +0.000 A 
ATOM     16  C   UNL     1       5.567   4.729  15.579  0.00  0.00    +0.000 A 
ATOM     17 CL   UNL     1       6.569   3.907  14.446  0.00  0.00    +0.000 Cl
ATOM     18  C   UNL     1       5.791   6.074  15.861  0.00  0.00    +0.000 A 
ATOM     19  C   UNL     1       4.970   6.738  16.782  0.00  0.00    +0.000 A 
ENDBRANCH  10  13
BRANCH   9  20
ATOM     20  N   UNL     1       3.047   5.252  20.365  0.00  0.00    +0.000 N 
ATOM     21  H   UNL     1       4.043   5.210  20.592  0.00  0.00    +0.000 HD
BRANCH  20  22
ATOM     22  C   UNL     1       2.425   3.913  20.408  0.00  0.00    +0.000 C 
ATOM     23  C   UNL     1       1.169   3.789  19.530  0.00  0.00    +0.000 C 
ATOM     24  C   UNL     1       3.446   2.892  19.844  0.00  0.00    +0.000 C 
ATOM     25  C   UNL     1       2.216   3.507  21.879  0.00  0.00    +0.000 C 
ENDBRANCH  20  22
ENDBRANCH   9  20
BRANCH   1  26
ATOM     26  C   UNL     1      -1.033  11.193  21.806  0.00  0.00    +0.000 C 
BRANCH  26  27
ATOM     27  C   UNL     1      -1.483  12.651  21.680  0.00  0.00    +0.000 C 
BRANCH  27  28
ATOM     28  C   UNL     1      -0.689  13.605  22.580  0.00  0.00    +0.000 C 
BRANCH  28  30
ATOM     29  C   UNL     1       0.616  15.639  22.294  0.00  0.00    +0.000 C 
ATOM     30  N   UNL     1      -0.676  14.986  22.073  0.00  0.00    +0.000 NA
ATOM     31  C   UNL     1      -1.005  15.001  20.645  0.00  0.00    +0.000 C 
ENDBRANCH  28  30
ENDBRANCH  27  28
ENDBRANCH  26  27
ENDBRANCH   1  26
TORSDOF 7
ENDMDL
MODEL 9
REMARK VINA RESULT:      -7.2      3.699      9.471
REMARK  Name = 
REMARK  12 active torsions:
REMARK  status: ('A' for Active; 'I' for Inactive)
REMARK    1  A    between atoms: C_1  and  N_2
REMARK    2  A    between atoms: N_2  and  C_3
REMARK    3  A    between atoms: N_2  and  C_4
REMARK    4  A    between atoms: C_4  and  C_5
REMARK    5  A    between atoms: C_5  and  C_6
REMARK    6  A    between atoms: C_6  and  N_7
REMARK    7  A    between atoms: C_15  and  N_16
REMARK    8  A    between atoms: N_16  and  C_17
REMARK    9  A    between atoms: C_17  and  C_18
REMARK   10  A    between atoms: C_17  and  C_19
REMARK   11  A    between atoms: C_17  and  C_20
REMARK   12  A    between atoms: C_21  and  C_22
REMARK                            x       y       z     vdW  Elec       q    Type
REMARK                         _______ _______ _______ _____ _____    ______ ____
ROOT
ATOM      1  N   UNL     1       3.196   5.744  18.903  0.00  0.00    +0.000 N 
ATOM      2  C   UNL     1       2.690   5.179  20.046  0.00  0.00    +0.000 A 
ATOM      3  N   UNL     1       1.886   6.005  20.697  0.00  0.00    +0.000 NA
ATOM      4  C   UNL     1       1.874   7.127  19.924  0.00  0.00    +0.000 A 
ATOM      5  C   UNL     1       2.678   6.998  18.813  0.00  0.00    +0.000 A 
ATOM      6  N   UNL     1       2.945   7.880  17.823  0.00  0.00    +0.000 NA
ATOM      7  C   UNL     1       2.317   9.019  17.952  0.00  0.00    +0.000 A 
ATOM      8  N   UNL     1       1.432   9.334  18.998  0.00  0.00    +0.000 N 
ATOM      9  C   UNL     1       0.700  10.485  19.267  0.00  0.00    +0.000 A 
ATOM     10  C   UNL     1       0.063  10.184  20.478  0.00  0.00    +0.000 A 
ATOM     11  N   UNL     1       0.383   8.916  20.931  0.00  0.00    +0.000 NA
ATOM     12  C   UNL     1       1.192   8.436  20.022  0.00  0.00    +0.000 A 
ENDROOT
BRANCH  10  13
ATOM     13  C   UNL     1      -0.848  11.042  21.232  0.00  0.00    +0.000 A 
ATOM     14  C   UNL     1      -1.775  11.880  20.591  0.00  0.00    +0.000 A 
ATOM     15  C   UNL     1      -2.642  12.692  21.337  0.00  0.00    +0.000 A 
ATOM     16  C   UNL     1      -2.601  12.659  22.724  0.00  0.00    +0.000 A 
ATOM     17 CL   UNL     1      -3.679  13.645  23.633  0.00  0.00    +0.000 Cl
ATOM     18  C   UNL     1      -1.712  11.810  23.380  0.00  0.00    +0.000 A 
ATOM     19  C   UNL     1      -0.838  11.008  22.634  0.00  0.00    +0.000 A 
ENDBRANCH  10  13
BRANCH   9  20
ATOM     20  N   UNL     1       0.743  11.663  18.556  0.00  0.00    +0.000 N 
ATOM     21  H   UNL     1       0.659  11.556  17.542  0.00  0.00    +0.000 HD
BRANCH  20  22
ATOM     22  C   UNL     1       1.402  12.936  18.913  0.00  0.00    +0.000 C 
ATOM     23  C   UNL     1       2.020  12.935  20.321  0.00  0.00    +0.000 C 
ATOM     24  C   UNL     1       2.577  13.161  17.928  0.00  0.00    +0.000 C 
ATOM     25  C   UNL     1       0.423  14.095  18.647  0.00  0.00    +0.000 C 
ENDBRANCH  20  22
ENDBRANCH   9  20
BRANCH   1  26
ATOM     26  C   UNL     1       4.116   5.161  17.951  0.00  0.00    +0.000 C 
BRANCH  26  27
ATOM     27  C   UNL     1       5.271   4.413  18.622  0.00  0.00    +0.000 C 
BRANCH  27  28
ATOM     28  C   UNL     1       6.229   5.342  19.377  0.00  0.00    +0.000 C 
BRANCH  28  30
ATOM     29  C   UNL     1       7.664   4.545  17.580  0.00  0.00    +0.000 C 
ATOM     30  N   UNL     1       7.580   5.359  18.795  0.00  0.00    +0.000 NA
ATOM     31  C   UNL     1       7.985   6.737  18.502  0.00  0.00    +0.000 C 
ENDBRANCH  28  30
ENDBRANCH  27  28
ENDBRANCH  26  27
ENDBRANCH   1  26
TORSDOF 7
ENDMDL
