MODEL 1
REMARK VINA RESULT:      -7.6      0.000      0.000
REMARK  Name = 
REMARK  4 active torsions:
REMARK  status: ('A' for Active; 'I' for Inactive)
REMARK    1  A    between atoms: C_2  and  C_3
REMARK    2  A    between atoms: C_2  and  C_9
REMARK    3  A    between atoms: C_13  and  C_14
REMARK    4  A    between atoms: C_14  and  O_16
REMARK                            x       y       z     vdW  Elec       q    Type
REMARK                         _______ _______ _______ _____ _____    ______ ____
ROOT
ATOM      1  C   UNL     1       4.016   4.412  17.080  0.00  0.00    +0.000 C 
ATOM      2  C   UNL     1       4.855   4.193  15.827  0.00  0.00    +0.000 C 
ATOM      3  C   UNL     1       6.228   3.870  16.380  0.00  0.00    +0.000 C 
ATOM      4  C   UNL     1       6.304   4.614  17.717  0.00  0.00    +0.000 C 
ATOM      5  C   UNL     1       7.195   5.849  17.681  0.00  0.00    +0.000 C 
ATOM      6  C   UNL     1       6.277   6.958  17.204  0.00  0.00    +0.000 C 
ATOM      7  C   UNL     1       4.920   6.583  17.775  0.00  0.00    +0.000 C 
ATOM      8  N   UNL     1       4.931   5.124  18.017  0.00  0.00    +0.000 NA
ENDROOT
BRANCH   1  10
ATOM      9  O   UNL     1       3.795   1.985  17.227  0.00  0.00    +0.000 OA
ATOM     10  C   UNL     1       3.568   3.087  17.728  0.00  0.00    +0.000 C 
BRANCH  10  11
ATOM     11  C   UNL     1       2.834   3.139  19.025  0.00  0.00    +0.000 A 
ATOM     12  C   UNL     1       1.589   3.778  19.058  0.00  0.00    +0.000 A 
ATOM     13  C   UNL     1       0.877   3.863  20.256  0.00  0.00    +0.000 A 
ATOM     14  C   UNL     1       1.412   3.320  21.423  0.00  0.00    +0.000 A 
ATOM     15  C   UNL     1       2.654   2.686  21.394  0.00  0.00    +0.000 A 
ATOM     16  C   UNL     1       3.367   2.592  20.198  0.00  0.00    +0.000 A 
ENDBRANCH  10  11
ENDBRANCH   1  10
BRANCH   5  17
ATOM     17  C   UNL     1       7.805   6.193  19.026  0.00  0.00    +0.000 C 
ATOM     18  O   UNL     1       7.663   5.487  20.014  0.00  0.00    +0.000 OA
BRANCH  17  19
ATOM     19  O   UNL     1       8.583   7.296  19.045  0.00  0.00    +0.000 OA
ATOM     20  H   UNL     1       9.521   7.131  18.805  0.00  0.00    +0.000 HD
ENDBRANCH  17  19
ENDBRANCH   5  17
TORSDOF 4
ENDMDL
MODEL 2
REMARK VINA RESULT:      -7.6      2.033      2.939
REMARK  Name = 
REMARK  4 active torsions:
REMARK  status: ('A' for Active; 'I' for Inactive)
REMARK    1  A    between atoms: C_2  and  C_3
REMARK    2  A    between atoms: C_2  and  C_9
REMARK    3  A    between atoms: C_13  and  C_14
REMARK    4  A    between atoms: C_14  and  O_16
REMARK                            x       y       z     vdW  Elec       q    Type
REMARK                         _______ _______ _______ _____ _____    ______ ____
ROOT
ATOM      1  C   UNL     1       5.334   4.488  19.328  0.00  0.00    +0.000 C 
ATOM      2  C   UNL     1       4.357   5.608  18.992  0.00  0.00    +0.000 C 
ATOM      3  C   UNL     1       4.009   5.344  17.542  0.00  0.00    +0.000 C 
ATOM      4  C   UNL     1       5.251   4.667  16.952  0.00  0.00    +0.000 C 
ATOM      5  C   UNL     1       6.067   5.572  16.038  0.00  0.00    +0.000 C 
ATOM      6  C   UNL     1       7.007   6.302  16.978  0.00  0.00    +0.000 C 
ATOM      7  C   UNL     1       7.285   5.292  18.077  0.00  0.00    +0.000 C 
ATOM      8  N   UNL     1       6.158   4.335  18.094  0.00  0.00    +0.000 NA
ENDROOT
BRANCH   1  10
ATOM      9  O   UNL     1       5.226   2.101  19.826  0.00  0.00    +0.000 OA
ATOM     10  C   UNL     1       4.621   3.154  19.623  0.00  0.00    +0.000 C 
BRANCH  10  11
ATOM     11  C   UNL     1       3.131   3.137  19.674  0.00  0.00    +0.000 A 
ATOM     12  C   UNL     1       2.439   2.456  18.665  0.00  0.00    +0.000 A 
ATOM     13  C   UNL     1       1.044   2.429  18.668  0.00  0.00    +0.000 A 
ATOM     14  C   UNL     1       0.337   3.092  19.670  0.00  0.00    +0.000 A 
ATOM     15  C   UNL     1       1.023   3.775  20.674  0.00  0.00    +0.000 A 
ATOM     16  C   UNL     1       2.419   3.798  20.681  0.00  0.00    +0.000 A 
ENDBRANCH  10  11
ENDBRANCH   1  10
BRANCH   5  17
ATOM     17  C   UNL     1       6.843   4.815  14.976  0.00  0.00    +0.000 C 
ATOM     18  O   UNL     1       7.760   5.319  14.345  0.00  0.00    +0.000 OA
BRANCH  17  19
ATOM     19  O   UNL     1       6.503   3.518  14.824  0.00  0.00    +0.000 OA
ATOM     20  H   UNL     1       7.163   2.884  15.182  0.00  0.00    +0.000 HD
ENDBRANCH  17  19
ENDBRANCH   5  17
TORSDOF 4
ENDMDL
MODEL 3
REMARK VINA RESULT:      -7.6      1.812      2.263
REMARK  Name = 
REMARK  4 active torsions:
REMARK  status: ('A' for Active; 'I' for Inactive)
REMARK    1  A    between atoms: C_2  and  C_3
REMARK    2  A    between atoms: C_2  and  C_9
REMARK    3  A    between atoms: C_13  and  C_14
REMARK    4  A    between atoms: C_14  and  O_16
REMARK                            x       y       z     vdW  Elec       q    Type
REMARK                         _______ _______ _______ _____ _____    ______ ____
ROOT
ATOM      1  C   UNL     1       3.810   5.113  17.268  0.00  0.00    +0.000 C 
ATOM      2  C   UNL     1       4.504   3.845  17.750  0.00  0.00    +0.000 C 
ATOM      3  C   UNL     1       5.487   4.357  18.783  0.00  0.00    +0.000 C 
ATOM      4  C   UNL     1       5.840   5.777  18.327  0.00  0.00    +0.000 C 
ATOM      5  C   UNL     1       7.232   5.897  17.721  0.00  0.00    +0.000 C 
ATOM      6  C   UNL     1       7.032   5.560  16.257  0.00  0.00    +0.000 C 
ATOM      7  C   UNL     1       5.638   6.075  15.946  0.00  0.00    +0.000 C 
ATOM      8  N   UNL     1       4.896   6.134  17.224  0.00  0.00    +0.000 NA
ENDROOT
BRANCH   1  10
ATOM      9  O   UNL     1       2.274   6.739  18.246  0.00  0.00    +0.000 OA
ATOM     10  C   UNL     1       2.713   5.589  18.241  0.00  0.00    +0.000 C 
BRANCH  10  11
ATOM     11  C   UNL     1       2.150   4.611  19.216  0.00  0.00    +0.000 A 
ATOM     12  C   UNL     1       2.544   4.707  20.556  0.00  0.00    +0.000 A 
ATOM     13  C   UNL     1       2.053   3.801  21.498  0.00  0.00    +0.000 A 
ATOM     14  C   UNL     1       1.178   2.791  21.101  0.00  0.00    +0.000 A 
ATOM     15  C   UNL     1       0.787   2.690  19.766  0.00  0.00    +0.000 A 
ATOM     16  C   UNL     1       1.269   3.598  18.822  0.00  0.00    +0.000 A 
ENDBRANCH  10  11
ENDBRANCH   1  10
BRANCH   5  17
ATOM     17  C   UNL     1       7.842   7.277  17.881  0.00  0.00    +0.000 C 
ATOM     18  O   UNL     1       7.628   8.188  17.094  0.00  0.00    +0.000 OA
BRANCH  17  19
ATOM     19  O   UNL     1       8.581   7.459  18.996  0.00  0.00    +0.000 OA
ATOM     20  H   UNL     1       8.403   6.806  19.707  0.00  0.00    +0.000 HD
ENDBRANCH  17  19
ENDBRANCH   5  17
TORSDOF 4
ENDMDL
MODEL 4
REMARK VINA RESULT:      -7.6      2.034      2.963
REMARK  Name = 
REMARK  4 active torsions:
REMARK  status: ('A' for Active; 'I' for Inactive)
REMARK    1  A    between atoms: C_2  and  C_3
REMARK    2  A    between atoms: C_2  and  C_9
REMARK    3  A    between atoms: C_13  and  C_14
REMARK    4  A    between atoms: C_14  and  O_16
REMARK                            x       y       z     vdW  Elec       q    Type
REMARK                         _______ _______ _______ _____ _____    ______ ____
ROOT
ATOM      1  C   UNL     1       5.336   4.491  19.322  0.00  0.00    +0.000 C 
ATOM      2  C   UNL     1       4.361   5.614  18.988  0.00  0.00    +0.000 C 
ATOM      3  C   UNL     1       4.016   5.355  17.536  0.00  0.00    +0.000 C 
ATOM      4  C   UNL     1       5.258   4.678  16.947  0.00  0.00    +0.000 C 
ATOM      5  C   UNL     1       6.077   5.585  16.037  0.00  0.00    +0.000 C 
ATOM      6  C   UNL     1       7.016   6.311  16.982  0.00  0.00    +0.000 C 
ATOM      7  C   UNL     1       7.291   5.297  18.078  0.00  0.00    +0.000 C 
ATOM      8  N   UNL     1       6.162   4.342  18.089  0.00  0.00    +0.000 NA
ENDROOT
BRANCH   1  10
ATOM      9  O   UNL     1       5.224   2.110  19.846  0.00  0.00    +0.000 OA
ATOM     10  C   UNL     1       4.621   3.157  19.611  0.00  0.00    +0.000 C 
BRANCH  10  11
ATOM     11  C   UNL     1       3.129   3.132  19.615  0.00  0.00    +0.000 A 
ATOM     12  C   UNL     1       2.459   3.736  20.685  0.00  0.00    +0.000 A 
ATOM     13  C   UNL     1       1.064   3.721  20.736  0.00  0.00    +0.000 A 
ATOM     14  C   UNL     1       0.338   3.094  19.724  0.00  0.00    +0.000 A 
ATOM     15  C   UNL     1       1.004   2.489  18.658  0.00  0.00    +0.000 A 
ATOM     16  C   UNL     1       2.398   2.507  18.599  0.00  0.00    +0.000 A 
ENDBRANCH  10  11
ENDBRANCH   1  10
BRANCH   5  17
ATOM     17  C   UNL     1       6.854   4.832  14.975  0.00  0.00    +0.000 C 
ATOM     18  O   UNL     1       7.761   5.343  14.335  0.00  0.00    +0.000 OA
BRANCH  17  19
ATOM     19  O   UNL     1       6.528   3.529  14.832  0.00  0.00    +0.000 OA
ATOM     20  H   UNL     1       5.571   3.368  14.686  0.00  0.00    +0.000 HD
ENDBRANCH  17  19
ENDBRANCH   5  17
TORSDOF 4
ENDMDL
MODEL 5
REMARK VINA RESULT:      -7.6      1.811      2.117
REMARK  Name = 
REMARK  4 active torsions:
REMARK  status: ('A' for Active; 'I' for Inactive)
REMARK    1  A    between atoms: C_2  and  C_3
REMARK    2  A    between atoms: C_2  and  C_9
REMARK    3  A    between atoms: C_13  and  C_14
REMARK    4  A    between atoms: C_14  and  O_16
REMARK                            x       y       z     vdW  Elec       q    Type
REMARK                         _______ _______ _______ _____ _____    ______ ____
ROOT
ATOM      1  C   UNL     1       3.819   5.119  17.276  0.00  0.00    +0.000 C 
ATOM      2  C   UNL     1       4.517   3.847  17.742  0.00  0.00    +0.000 C 
ATOM      3  C   UNL     1       5.507   4.351  18.772  0.00  0.00    +0.000 C 
ATOM      4  C   UNL     1       5.856   5.775  18.326  0.00  0.00    +0.000 C 
ATOM      5  C   UNL     1       7.244   5.902  17.711  0.00  0.00    +0.000 C 
ATOM      6  C   UNL     1       7.033   5.577  16.245  0.00  0.00    +0.000 C 
ATOM      7  C   UNL     1       5.637   6.094  15.949  0.00  0.00    +0.000 C 
ATOM      8  N   UNL     1       4.903   6.141  17.233  0.00  0.00    +0.000 NA
ENDROOT
BRANCH   1  10
ATOM      9  O   UNL     1       2.265   6.726  18.258  0.00  0.00    +0.000 OA
ATOM     10  C   UNL     1       2.729   5.586  18.262  0.00  0.00    +0.000 C 
BRANCH  10  11
ATOM     11  C   UNL     1       2.204   4.610  19.260  0.00  0.00    +0.000 A 
ATOM     12  C   UNL     1       1.316   3.622  18.820  0.00  0.00    +0.000 A 
ATOM     13  C   UNL     1       0.789   2.699  19.725  0.00  0.00    +0.000 A 
ATOM     14  C   UNL     1       1.140   2.769  21.073  0.00  0.00    +0.000 A 
ATOM     15  C   UNL     1       2.022   3.755  21.516  0.00  0.00    +0.000 A 
ATOM     16  C   UNL     1       2.558   4.675  20.613  0.00  0.00    +0.000 A 
ENDBRANCH  10  11
ENDBRANCH   1  10
BRANCH   5  17
ATOM     17  C   UNL     1       7.854   7.281  17.878  0.00  0.00    +0.000 C 
ATOM     18  O   UNL     1       7.645   8.193  17.092  0.00  0.00    +0.000 OA
BRANCH  17  19
ATOM     19  O   UNL     1       8.586   7.459  18.998  0.00  0.00    +0.000 OA
ATOM     20  H   UNL     1       8.360   8.271  19.501  0.00  0.00    +0.000 HD
ENDBRANCH  17  19
ENDBRANCH   5  17
TORSDOF 4
ENDMDL
MODEL 6
REMARK VINA RESULT:      -7.5      2.102      3.016
REMARK  Name = 
REMARK  4 active torsions:
REMARK  status: ('A' for Active; 'I' for Inactive)
REMARK    1  A    between atoms: C_2  and  C_3
REMARK    2  A    between atoms: C_2  and  C_9
REMARK    3  A    between atoms: C_13  and  C_14
REMARK    4  A    between atoms: C_14  and  O_16
REMARK                            x       y       z     vdW  Elec       q    Type
REMARK                         _______ _______ _______ _____ _____    ______ ____
ROOT
ATOM      1  C   UNL     1       5.109   4.111  18.517  0.00  0.00    +0.000 C 
ATOM      2  C   UNL     1       4.500   5.507  18.452  0.00  0.00    +0.000 C 
ATOM      3  C   UNL     1       4.207   5.691  16.978  0.00  0.00    +0.000 C 
ATOM      4  C   UNL     1       5.261   4.845  16.254  0.00  0.00    +0.000 C 
ATOM      5  C   UNL     1       6.359   5.669  15.593  0.00  0.00    +0.000 C 
ATOM      6  C   UNL     1       7.386   5.870  16.690  0.00  0.00    +0.000 C 
ATOM      7  C   UNL     1       7.295   4.599  17.517  0.00  0.00    +0.000 C 
ATOM      8  N   UNL     1       5.953   4.020  17.290  0.00  0.00    +0.000 NA
ENDROOT
BRANCH   1  10
ATOM      9  O   UNL     1       4.031   2.113  17.621  0.00  0.00    +0.000 OA
ATOM     10  C   UNL     1       4.042   3.000  18.474  0.00  0.00    +0.000 C 
BRANCH  10  11
ATOM     11  C   UNL     1       2.977   2.993  19.519  0.00  0.00    +0.000 A 
ATOM     12  C   UNL     1       3.335   2.651  20.828  0.00  0.00    +0.000 A 
ATOM     13  C   UNL     1       2.366   2.617  21.833  0.00  0.00    +0.000 A 
ATOM     14  C   UNL     1       1.038   2.912  21.528  0.00  0.00    +0.000 A 
ATOM     15  C   UNL     1       0.677   3.249  20.223  0.00  0.00    +0.000 A 
ATOM     16  C   UNL     1       1.644   3.292  19.217  0.00  0.00    +0.000 A 
ENDBRANCH  10  11
ENDBRANCH   1  10
BRANCH   5  17
ATOM     17  C   UNL     1       6.980   4.989  14.388  0.00  0.00    +0.000 C 
ATOM     18  O   UNL     1       7.877   5.499  13.733  0.00  0.00    +0.000 OA
BRANCH  17  19
ATOM     19  O   UNL     1       6.529   3.743  14.128  0.00  0.00    +0.000 OA
ATOM     20  H   UNL     1       5.759   3.472  14.674  0.00  0.00    +0.000 HD
ENDBRANCH  17  19
ENDBRANCH   5  17
TORSDOF 4
ENDMDL
MODEL 7
REMARK VINA RESULT:      -7.5      2.102      2.816
REMARK  Name = 
REMARK  4 active torsions:
REMARK  status: ('A' for Active; 'I' for Inactive)
REMARK    1  A    between atoms: C_2  and  C_3
REMARK    2  A    between atoms: C_2  and  C_9
REMARK    3  A    between atoms: C_13  and  C_14
REMARK    4  A    between atoms: C_14  and  O_16
REMARK                            x       y       z     vdW  Elec       q    Type
REMARK                         _______ _______ _______ _____ _____    ______ ____
ROOT
ATOM      1  C   UNL     1       5.116   4.105  18.528  0.00  0.00    +0.000 C 
ATOM      2  C   UNL     1       4.491   5.493  18.461  0.00  0.00    +0.000 C 
ATOM      3  C   UNL     1       4.191   5.669  16.986  0.00  0.00    +0.000 C 
ATOM      4  C   UNL     1       5.252   4.833  16.262  0.00  0.00    +0.000 C 
ATOM      5  C   UNL     1       6.338   5.667  15.595  0.00  0.00    +0.000 C 
ATOM      6  C   UNL     1       7.367   5.883  16.689  0.00  0.00    +0.000 C 
ATOM      7  C   UNL     1       7.293   4.614  17.519  0.00  0.00    +0.000 C 
ATOM      8  N   UNL     1       5.957   4.020  17.299  0.00  0.00    +0.000 NA
ENDROOT
BRANCH   1  10
ATOM      9  O   UNL     1       4.044   2.104  17.628  0.00  0.00    +0.000 OA
ATOM     10  C   UNL     1       4.061   2.982  18.491  0.00  0.00    +0.000 C 
BRANCH  10  11
ATOM     11  C   UNL     1       3.016   2.949  19.556  0.00  0.00    +0.000 A 
ATOM     12  C   UNL     1       1.699   3.266  19.203  0.00  0.00    +0.000 A 
ATOM     13  C   UNL     1       0.694   3.262  20.172  0.00  0.00    +0.000 A 
ATOM     14  C   UNL     1       1.006   2.955  21.496  0.00  0.00    +0.000 A 
ATOM     15  C   UNL     1       2.318   2.644  21.851  0.00  0.00    +0.000 A 
ATOM     16  C   UNL     1       3.325   2.638  20.885  0.00  0.00    +0.000 A 
ENDBRANCH  10  11
ENDBRANCH   1  10
BRANCH   5  17
ATOM     17  C   UNL     1       6.964   4.991  14.390  0.00  0.00    +0.000 C 
ATOM     18  O   UNL     1       7.857   5.507  13.734  0.00  0.00    +0.000 OA
BRANCH  17  19
ATOM     19  O   UNL     1       6.521   3.742  14.131  0.00  0.00    +0.000 OA
ATOM     20  H   UNL     1       5.544   3.664  14.081  0.00  0.00    +0.000 HD
ENDBRANCH  17  19
ENDBRANCH   5  17
TORSDOF 4
ENDMDL
MODEL 8
REMARK VINA RESULT:      -7.5      0.136      1.335
REMARK  Name = 
REMARK  4 active torsions:
REMARK  status: ('A' for Active; 'I' for Inactive)
REMARK    1  A    between atoms: C_2  and  C_3
REMARK    2  A    between atoms: C_2  and  C_9
REMARK    3  A    between atoms: C_13  and  C_14
REMARK    4  A    between atoms: C_14  and  O_16
REMARK                            x       y       z     vdW  Elec       q    Type
REMARK                         _______ _______ _______ _____ _____    ______ ____
ROOT
ATOM      1  C   UNL     1       4.048   4.424  17.108  0.00  0.00    +0.000 C 
ATOM      2  C   UNL     1       4.841   4.178  15.831  0.00  0.00    +0.000 C 
ATOM      3  C   UNL     1       6.243   3.910  16.339  0.00  0.00    +0.000 C 
ATOM      4  C   UNL     1       6.353   4.707  17.643  0.00  0.00    +0.000 C 
ATOM      5  C   UNL     1       7.209   5.962  17.523  0.00  0.00    +0.000 C 
ATOM      6  C   UNL     1       6.244   7.028  17.043  0.00  0.00    +0.000 C 
ATOM      7  C   UNL     1       4.922   6.643  17.683  0.00  0.00    +0.000 C 
ATOM      8  N   UNL     1       4.981   5.195  17.979  0.00  0.00    +0.000 NA
ENDROOT
BRANCH   1  10
ATOM      9  O   UNL     1       3.997   2.002  17.415  0.00  0.00    +0.000 OA
ATOM     10  C   UNL     1       3.661   3.114  17.823  0.00  0.00    +0.000 C 
BRANCH  10  11
ATOM     11  C   UNL     1       2.851   3.195  19.073  0.00  0.00    +0.000 A 
ATOM     12  C   UNL     1       3.372   2.625  20.240  0.00  0.00    +0.000 A 
ATOM     13  C   UNL     1       2.639   2.665  21.427  0.00  0.00    +0.000 A 
ATOM     14  C   UNL     1       1.380   3.264  21.447  0.00  0.00    +0.000 A 
ATOM     15  C   UNL     1       0.856   3.830  20.285  0.00  0.00    +0.000 A 
ATOM     16  C   UNL     1       1.589   3.799  19.097  0.00  0.00    +0.000 A 
ENDBRANCH  10  11
ENDBRANCH   1  10
BRANCH   5  17
ATOM     17  C   UNL     1       7.864   6.372  18.829  0.00  0.00    +0.000 C 
ATOM     18  O   UNL     1       8.533   7.389  18.940  0.00  0.00    +0.000 OA
BRANCH  17  19
ATOM     19  O   UNL     1       7.595   5.577  19.887  0.00  0.00    +0.000 OA
ATOM     20  H   UNL     1       8.331   5.505  20.533  0.00  0.00    +0.000 HD
ENDBRANCH  17  19
ENDBRANCH   5  17
TORSDOF 4
ENDMDL
MODEL 9
REMARK VINA RESULT:      -7.4      2.419      5.977
REMARK  Name = 
REMARK  4 active torsions:
REMARK  status: ('A' for Active; 'I' for Inactive)
REMARK    1  A    between atoms: C_2  and  C_3
REMARK    2  A    between atoms: C_2  and  C_9
REMARK    3  A    between atoms: C_13  and  C_14
REMARK    4  A    between atoms: C_14  and  O_16
REMARK                            x       y       z     vdW  Elec       q    Type
REMARK                         _______ _______ _______ _____ _____    ______ ____
ROOT
ATOM      1  C   UNL     1       3.487   3.853  17.754  0.00  0.00    +0.000 C 
ATOM      2  C   UNL     1       2.690   5.147  17.861  0.00  0.00    +0.000 C 
ATOM      3  C   UNL     1       2.730   5.458  19.343  0.00  0.00    +0.000 C 
ATOM      4  C   UNL     1       2.834   4.094  20.034  0.00  0.00    +0.000 C 
ATOM      5  C   UNL     1       1.542   3.646  20.705  0.00  0.00    +0.000 C 
ATOM      6  C   UNL     1       0.773   2.943  19.602  0.00  0.00    +0.000 C 
ATOM      7  C   UNL     1       1.856   2.312  18.744  0.00  0.00    +0.000 C 
ATOM      8  N   UNL     1       3.100   3.079  18.969  0.00  0.00    +0.000 NA
ENDROOT
BRANCH   1  10
ATOM      9  O   UNL     1       5.676   4.073  18.814  0.00  0.00    +0.000 OA
ATOM     10  C   UNL     1       5.009   4.095  17.778  0.00  0.00    +0.000 C 
BRANCH  10  11
ATOM     11  C   UNL     1       5.711   4.359  16.489  0.00  0.00    +0.000 A 
ATOM     12  C   UNL     1       5.073   3.991  15.299  0.00  0.00    +0.000 A 
ATOM     13  C   UNL     1       5.702   4.206  14.071  0.00  0.00    +0.000 A 
ATOM     14  C   UNL     1       6.973   4.778  14.031  0.00  0.00    +0.000 A 
ATOM     15  C   UNL     1       7.613   5.142  15.216  0.00  0.00    +0.000 A 
ATOM     16  C   UNL     1       6.985   4.936  16.446  0.00  0.00    +0.000 A 
ENDBRANCH  10  11
ENDBRANCH   1  10
BRANCH   5  17
ATOM     17  C   UNL     1       1.764   2.720  21.885  0.00  0.00    +0.000 C 
ATOM     18  O   UNL     1       0.855   2.352  22.615  0.00  0.00    +0.000 OA
BRANCH  17  19
ATOM     19  O   UNL     1       3.026   2.264  22.035  0.00  0.00    +0.000 OA
ATOM     20  H   UNL     1       3.709   2.820  21.599  0.00  0.00    +0.000 HD
ENDBRANCH  17  19
ENDBRANCH   5  17
TORSDOF 4
ENDMDL
