MODEL 1
REMARK VINA RESULT:      -7.7      0.000      0.000
REMARK  Name = 
REMARK  7 active torsions:
REMARK  status: ('A' for Active; 'I' for Inactive)
REMARK    1  A    between atoms: C_1  and  N_2
REMARK    2  A    between atoms: N_2  and  C_3
REMARK    3  A    between atoms: C_3  and  C_4
REMARK    4  A    between atoms: N_7  and  C_8
REMARK    5  A    between atoms: C_10  and  C_12
REMARK    6  A    between atoms: C_12  and  C_13
REMARK    7  A    between atoms: C_12  and  N_19
REMARK                            x       y       z     vdW  Elec       q    Type
REMARK                         _______ _______ _______ _____ _____    ______ ____
ROOT
ATOM      1  C   UNL     1       3.413   5.674  18.471  0.00  0.00    +0.000 C 
ENDROOT
BRANCH   1   2
ATOM      2  C   UNL     1       2.525   4.619  19.139  0.00  0.00    +0.000 A 
ATOM      3  C   UNL     1       1.572   3.886  18.409  0.00  0.00    +0.000 A 
ATOM      4  C   UNL     1       0.788   2.913  19.030  0.00  0.00    +0.000 A 
ATOM      5  C   UNL     1       0.941   2.659  20.389  0.00  0.00    +0.000 A 
ATOM      6  C   UNL     1       1.888   3.367  21.127  0.00  0.00    +0.000 A 
ATOM      7  C   UNL     1       2.681   4.335  20.506  0.00  0.00    +0.000 A 
ENDBRANCH   1   2
BRANCH   1   8
ATOM      8  N   UNL     1       3.007   7.079  18.842  0.00  0.00    +0.000 NA
ATOM      9  C   UNL     1       2.021   7.070  19.945  0.00  0.00    +0.000 C 
ATOM     10  C   UNL     1       1.604   8.452  20.469  0.00  0.00    +0.000 C 
ATOM     11  S   UNL     1       0.824   9.466  19.185  0.00  0.00    +0.000 S 
ATOM     12  C   UNL     1       2.171   9.336  17.978  0.00  0.00    +0.000 C 
ATOM     13  C   UNL     1       2.554   7.879  17.682  0.00  0.00    +0.000 C 
ENDBRANCH   1   8
BRANCH   1  16
ATOM     14  C   UNL     1       7.073   4.497  17.952  0.00  0.00    +0.000 C 
ATOM     15  N   UNL     1       5.640   4.646  17.714  0.00  0.00    +0.000 N 
ATOM     16  C   UNL     1       4.943   5.373  18.682  0.00  0.00    +0.000 C 
ATOM     17  O   UNL     1       5.544   5.747  19.695  0.00  0.00    +0.000 OA
BRANCH  15  18
ATOM     18  C   UNL     1       5.057   4.114  16.481  0.00  0.00    +0.000 C 
BRANCH  18  19
ATOM     19  C   UNL     1       5.903   4.384  15.287  0.00  0.00    +0.000 A 
ATOM     20  C   UNL     1       6.939   5.341  15.171  0.00  0.00    +0.000 A 
ATOM     21  N   UNL     1       7.511   5.337  13.966  0.00  0.00    +0.000 NA
ATOM     22  N   UNL     1       6.838   4.384  13.298  0.00  0.00    +0.000 N 
ATOM     23  C   UNL     1       7.172   4.089  11.925  0.00  0.00    +0.000 C 
ATOM     24  C   UNL     1       5.866   3.784  14.042  0.00  0.00    +0.000 A 
ENDBRANCH  18  19
ENDBRANCH  15  18
ENDBRANCH   1  16
TORSDOF 5
ENDMDL
MODEL 2
REMARK VINA RESULT:      -7.3      0.720      1.035
REMARK  Name = 
REMARK  7 active torsions:
REMARK  status: ('A' for Active; 'I' for Inactive)
REMARK    1  A    between atoms: C_1  and  N_2
REMARK    2  A    between atoms: N_2  and  C_3
REMARK    3  A    between atoms: C_3  and  C_4
REMARK    4  A    between atoms: N_7  and  C_8
REMARK    5  A    between atoms: C_10  and  C_12
REMARK    6  A    between atoms: C_12  and  C_13
REMARK    7  A    between atoms: C_12  and  N_19
REMARK                            x       y       z     vdW  Elec       q    Type
REMARK                         _______ _______ _______ _____ _____    ______ ____
ROOT
ATOM      1  C   UNL     1       3.678   5.588  18.114  0.00  0.00    +0.000 C 
ENDROOT
BRANCH   1   2
ATOM      2  C   UNL     1       2.838   4.438  18.678  0.00  0.00    +0.000 A 
ATOM      3  C   UNL     1       1.688   3.971  18.017  0.00  0.00    +0.000 A 
ATOM      4  C   UNL     1       0.947   2.907  18.534  0.00  0.00    +0.000 A 
ATOM      5  C   UNL     1       1.341   2.296  19.721  0.00  0.00    +0.000 A 
ATOM      6  C   UNL     1       2.483   2.739  20.385  0.00  0.00    +0.000 A 
ATOM      7  C   UNL     1       3.232   3.798  19.864  0.00  0.00    +0.000 A 
ENDBRANCH   1   2
BRANCH   1   8
ATOM      8  N   UNL     1       3.228   6.933  18.633  0.00  0.00    +0.000 NA
ATOM      9  C   UNL     1       2.252   6.773  19.733  0.00  0.00    +0.000 C 
ATOM     10  C   UNL     1       1.792   8.078  20.401  0.00  0.00    +0.000 C 
ATOM     11  S   UNL     1       0.969   9.194  19.234  0.00  0.00    +0.000 S 
ATOM     12  C   UNL     1       2.311   9.237  18.015  0.00  0.00    +0.000 C 
ATOM     13  C   UNL     1       2.740   7.834  17.565  0.00  0.00    +0.000 C 
ENDBRANCH   1   8
BRANCH   1  16
ATOM     14  C   UNL     1       7.334   4.441  17.509  0.00  0.00    +0.000 C 
ATOM     15  N   UNL     1       5.891   4.555  17.324  0.00  0.00    +0.000 N 
ATOM     16  C   UNL     1       5.220   5.324  18.278  0.00  0.00    +0.000 C 
ATOM     17  O   UNL     1       5.855   5.762  19.243  0.00  0.00    +0.000 OA
BRANCH  15  18
ATOM     18  C   UNL     1       5.268   3.946  16.147  0.00  0.00    +0.000 C 
BRANCH  18  19
ATOM     19  C   UNL     1       6.024   4.219  14.895  0.00  0.00    +0.000 A 
ATOM     20  C   UNL     1       5.903   3.544  13.658  0.00  0.00    +0.000 A 
ATOM     21  N   UNL     1       6.722   4.029  12.724  0.00  0.00    +0.000 NA
ATOM     22  N   UNL     1       7.382   5.012  13.359  0.00  0.00    +0.000 N 
ATOM     23  C   UNL     1       8.385   5.781  12.662  0.00  0.00    +0.000 C 
ATOM     24  C   UNL     1       7.002   5.167  14.660  0.00  0.00    +0.000 A 
ENDBRANCH  18  19
ENDBRANCH  15  18
ENDBRANCH   1  16
TORSDOF 5
ENDMDL
MODEL 3
REMARK VINA RESULT:      -7.3      0.876      1.093
REMARK  Name = 
REMARK  7 active torsions:
REMARK  status: ('A' for Active; 'I' for Inactive)
REMARK    1  A    between atoms: C_1  and  N_2
REMARK    2  A    between atoms: N_2  and  C_3
REMARK    3  A    between atoms: C_3  and  C_4
REMARK    4  A    between atoms: N_7  and  C_8
REMARK    5  A    between atoms: C_10  and  C_12
REMARK    6  A    between atoms: C_12  and  C_13
REMARK    7  A    between atoms: C_12  and  N_19
REMARK                            x       y       z     vdW  Elec       q    Type
REMARK                         _______ _______ _______ _____ _____    ______ ____
ROOT
ATOM      1  C   UNL     1       3.483   5.926  18.492  0.00  0.00    +0.000 C 
ENDROOT
BRANCH   1   2
ATOM      2  C   UNL     1       2.533   4.839  19.006  0.00  0.00    +0.000 A 
ATOM      3  C   UNL     1       1.809   4.016  18.126  0.00  0.00    +0.000 A 
ATOM      4  C   UNL     1       0.965   3.015  18.613  0.00  0.00    +0.000 A 
ATOM      5  C   UNL     1       0.831   2.825  19.985  0.00  0.00    +0.000 A 
ATOM      6  C   UNL     1       1.549   3.624  20.872  0.00  0.00    +0.000 A 
ATOM      7  C   UNL     1       2.401   4.620  20.387  0.00  0.00    +0.000 A 
ENDBRANCH   1   2
BRANCH   1   8
ATOM      8  N   UNL     1       2.998   7.315  18.830  0.00  0.00    +0.000 NA
ATOM      9  C   UNL     1       1.976   7.271  19.899  0.00  0.00    +0.000 C 
ATOM     10  C   UNL     1       1.475   8.638  20.390  0.00  0.00    +0.000 C 
ATOM     11  S   UNL     1       0.692   9.597  19.067  0.00  0.00    +0.000 S 
ATOM     12  C   UNL     1       2.085   9.518  17.908  0.00  0.00    +0.000 C 
ATOM     13  C   UNL     1       2.547   8.078  17.645  0.00  0.00    +0.000 C 
ENDBRANCH   1   8
BRANCH   1  16
ATOM     14  C   UNL     1       7.355   5.688  18.501  0.00  0.00    +0.000 C 
ATOM     15  N   UNL     1       6.000   5.883  17.993  0.00  0.00    +0.000 N 
ATOM     16  C   UNL     1       4.974   5.650  18.911  0.00  0.00    +0.000 C 
ATOM     17  O   UNL     1       5.263   5.210  20.029  0.00  0.00    +0.000 OA
BRANCH  15  18
ATOM     18  C   UNL     1       5.810   6.373  16.627  0.00  0.00    +0.000 C 
BRANCH  18  19
ATOM     19  C   UNL     1       5.914   5.290  15.612  0.00  0.00    +0.000 A 
ATOM     20  C   UNL     1       5.579   3.925  15.780  0.00  0.00    +0.000 A 
ATOM     21  N   UNL     1       5.784   3.205  14.677  0.00  0.00    +0.000 NA
ATOM     22  N   UNL     1       6.262   4.101  13.796  0.00  0.00    +0.000 N 
ATOM     23  C   UNL     1       6.618   3.686  12.461  0.00  0.00    +0.000 C 
ATOM     24  C   UNL     1       6.359   5.362  14.305  0.00  0.00    +0.000 A 
ENDBRANCH  18  19
ENDBRANCH  15  18
ENDBRANCH   1  16
TORSDOF 5
ENDMDL
MODEL 4
REMARK VINA RESULT:      -7.2      1.242      1.895
REMARK  Name = 
REMARK  7 active torsions:
REMARK  status: ('A' for Active; 'I' for Inactive)
REMARK    1  A    between atoms: C_1  and  N_2
REMARK    2  A    between atoms: N_2  and  C_3
REMARK    3  A    between atoms: C_3  and  C_4
REMARK    4  A    between atoms: N_7  and  C_8
REMARK    5  A    between atoms: C_10  and  C_12
REMARK    6  A    between atoms: C_12  and  C_13
REMARK    7  A    between atoms: C_12  and  N_19
REMARK                            x       y       z     vdW  Elec       q    Type
REMARK                         _______ _______ _______ _____ _____    ______ ____
ROOT
ATOM      1  C   UNL     1       2.973   5.820  18.094  0.00  0.00    +0.000 C 
ENDROOT
BRANCH   1   2
ATOM      2  C   UNL     1       2.368   4.447  18.401  0.00  0.00    +0.000 A 
ATOM      3  C   UNL     1       1.396   4.276  19.403  0.00  0.00    +0.000 A 
ATOM      4  C   UNL     1       0.839   3.021  19.655  0.00  0.00    +0.000 A 
ATOM      5  C   UNL     1       1.247   1.917  18.912  0.00  0.00    +0.000 A 
ATOM      6  C   UNL     1       2.202   2.068  17.908  0.00  0.00    +0.000 A 
ATOM      7  C   UNL     1       2.753   3.326  17.648  0.00  0.00    +0.000 A 
ENDBRANCH   1   2
BRANCH   1   8
ATOM      8  N   UNL     1       2.079   6.951  18.540  0.00  0.00    +0.000 NA
ATOM      9  C   UNL     1       2.256   8.136  17.671  0.00  0.00    +0.000 C 
ATOM     10  C   UNL     1       1.328   9.322  17.976  0.00  0.00    +0.000 C 
ATOM     11  S   UNL     1       1.562   9.963  19.655  0.00  0.00    +0.000 S 
ATOM     12  C   UNL     1       1.308   8.384  20.512  0.00  0.00    +0.000 C 
ATOM     13  C   UNL     1       2.223   7.274  19.977  0.00  0.00    +0.000 C 
ENDBRANCH   1   8
BRANCH   1  16
ATOM     14  C   UNL     1       6.795   6.456  18.294  0.00  0.00    +0.000 C 
ATOM     15  N   UNL     1       5.469   6.282  17.709  0.00  0.00    +0.000 N 
ATOM     16  C   UNL     1       4.456   5.936  18.607  0.00  0.00    +0.000 C 
ATOM     17  O   UNL     1       4.755   5.709  19.784  0.00  0.00    +0.000 OA
BRANCH  15  18
ATOM     18  C   UNL     1       5.272   6.550  16.283  0.00  0.00    +0.000 C 
BRANCH  18  19
ATOM     19  C   UNL     1       5.601   5.375  15.431  0.00  0.00    +0.000 A 
ATOM     20  C   UNL     1       5.864   4.053  15.861  0.00  0.00    +0.000 A 
ATOM     21  N   UNL     1       6.126   3.225  14.849  0.00  0.00    +0.000 NA
ATOM     22  N   UNL     1       6.042   4.013  13.763  0.00  0.00    +0.000 N 
ATOM     23  C   UNL     1       6.276   3.464  12.450  0.00  0.00    +0.000 C 
ATOM     24  C   UNL     1       5.731   5.307  14.057  0.00  0.00    +0.000 A 
ENDBRANCH  18  19
ENDBRANCH  15  18
ENDBRANCH   1  16
TORSDOF 5
ENDMDL
MODEL 5
REMARK VINA RESULT:      -7.2      3.181      7.452
REMARK  Name = 
REMARK  7 active torsions:
REMARK  status: ('A' for Active; 'I' for Inactive)
REMARK    1  A    between atoms: C_1  and  N_2
REMARK    2  A    between atoms: N_2  and  C_3
REMARK    3  A    between atoms: C_3  and  C_4
REMARK    4  A    between atoms: N_7  and  C_8
REMARK    5  A    between atoms: C_10  and  C_12
REMARK    6  A    between atoms: C_12  and  C_13
REMARK    7  A    between atoms: C_12  and  N_19
REMARK                            x       y       z     vdW  Elec       q    Type
REMARK                         _______ _______ _______ _____ _____    ______ ____
ROOT
ATOM      1  C   UNL     1       3.051   6.565  19.288  0.00  0.00    +0.000 C 
ENDROOT
BRANCH   1   2
ATOM      2  C   UNL     1       2.247   5.262  19.340  0.00  0.00    +0.000 A 
ATOM      3  C   UNL     1       1.912   4.554  18.172  0.00  0.00    +0.000 A 
ATOM      4  C   UNL     1       1.198   3.357  18.240  0.00  0.00    +0.000 A 
ATOM      5  C   UNL     1       0.804   2.850  19.475  0.00  0.00    +0.000 A 
ATOM      6  C   UNL     1       1.136   3.532  20.645  0.00  0.00    +0.000 A 
ATOM      7  C   UNL     1       1.859   4.726  20.579  0.00  0.00    +0.000 A 
ENDBRANCH   1   2
BRANCH   1   8
ATOM      8  N   UNL     1       4.388   6.384  18.610  0.00  0.00    +0.000 NA
ATOM      9  C   UNL     1       4.216   6.148  17.160  0.00  0.00    +0.000 C 
ATOM     10  C   UNL     1       5.517   6.040  16.350  0.00  0.00    +0.000 C 
ATOM     11  S   UNL     1       6.558   4.665  16.904  0.00  0.00    +0.000 S 
ATOM     12  C   UNL     1       6.628   5.154  18.649  0.00  0.00    +0.000 C 
ATOM     13  C   UNL     1       5.234   5.357  19.257  0.00  0.00    +0.000 C 
ENDBRANCH   1   8
BRANCH   1  16
ATOM     14  C   UNL     1       0.818   9.722  18.979  0.00  0.00    +0.000 C 
ATOM     15  N   UNL     1       1.502   8.589  19.595  0.00  0.00    +0.000 N 
ATOM     16  C   UNL     1       2.200   7.758  18.715  0.00  0.00    +0.000 C 
ATOM     17  O   UNL     1       2.115   7.969  17.501  0.00  0.00    +0.000 OA
BRANCH  15  18
ATOM     18  C   UNL     1       1.484   8.443  21.051  0.00  0.00    +0.000 C 
BRANCH  18  19
ATOM     19  C   UNL     1       0.598   9.438  21.713  0.00  0.00    +0.000 A 
ATOM     20  C   UNL     1      -0.414   9.181  22.668  0.00  0.00    +0.000 A 
ATOM     21  N   UNL     1      -1.034  10.290  23.073  0.00  0.00    +0.000 NA
ATOM     22  N   UNL     1      -0.431  11.266  22.373  0.00  0.00    +0.000 N 
ATOM     23  C   UNL     1      -0.846  12.638  22.537  0.00  0.00    +0.000 C 
ATOM     24  C   UNL     1       0.552  10.810  21.545  0.00  0.00    +0.000 A 
ENDBRANCH  18  19
ENDBRANCH  15  18
ENDBRANCH   1  16
TORSDOF 5
ENDMDL
MODEL 6
REMARK VINA RESULT:      -7.2      3.169      7.261
REMARK  Name = 
REMARK  7 active torsions:
REMARK  status: ('A' for Active; 'I' for Inactive)
REMARK    1  A    between atoms: C_1  and  N_2
REMARK    2  A    between atoms: N_2  and  C_3
REMARK    3  A    between atoms: C_3  and  C_4
REMARK    4  A    between atoms: N_7  and  C_8
REMARK    5  A    between atoms: C_10  and  C_12
REMARK    6  A    between atoms: C_12  and  C_13
REMARK    7  A    between atoms: C_12  and  N_19
REMARK                            x       y       z     vdW  Elec       q    Type
REMARK                         _______ _______ _______ _____ _____    ______ ____
ROOT
ATOM      1  C   UNL     1       3.132   6.358  19.083  0.00  0.00    +0.000 C 
ENDROOT
BRANCH   1   2
ATOM      2  C   UNL     1       2.277   5.103  19.288  0.00  0.00    +0.000 A 
ATOM      3  C   UNL     1       1.858   4.697  20.567  0.00  0.00    +0.000 A 
ATOM      4  C   UNL     1       1.060   3.564  20.733  0.00  0.00    +0.000 A 
ATOM      5  C   UNL     1       0.672   2.818  19.625  0.00  0.00    +0.000 A 
ATOM      6  C   UNL     1       1.069   3.210  18.348  0.00  0.00    +0.000 A 
ATOM      7  C   UNL     1       1.860   4.350  18.178  0.00  0.00    +0.000 A 
ENDBRANCH   1   2
BRANCH   1   8
ATOM      8  N   UNL     1       4.433   6.054  18.380  0.00  0.00    +0.000 NA
ATOM      9  C   UNL     1       5.329   5.259  19.250  0.00  0.00    +0.000 C 
ATOM     10  C   UNL     1       6.649   4.812  18.604  0.00  0.00    +0.000 C 
ATOM     11  S   UNL     1       7.668   6.217  18.083  0.00  0.00    +0.000 S 
ATOM     12  C   UNL     1       6.400   7.019  17.064  0.00  0.00    +0.000 C 
ATOM     13  C   UNL     1       5.095   7.259  17.834  0.00  0.00    +0.000 C 
ENDBRANCH   1   8
BRANCH   1  16
ATOM     14  C   UNL     1       0.951   9.521  18.553  0.00  0.00    +0.000 C 
ATOM     15  N   UNL     1       1.606   8.415  19.245  0.00  0.00    +0.000 N 
ATOM     16  C   UNL     1       2.310   7.528  18.427  0.00  0.00    +0.000 C 
ATOM     17  O   UNL     1       2.253   7.674  17.202  0.00  0.00    +0.000 OA
BRANCH  15  18
ATOM     18  C   UNL     1       1.555   8.351  20.706  0.00  0.00    +0.000 C 
BRANCH  18  19
ATOM     19  C   UNL     1       0.823   9.500  21.303  0.00  0.00    +0.000 A 
ATOM     20  C   UNL     1       1.148  10.873  21.194  0.00  0.00    +0.000 A 
ATOM     21  N   UNL     1       0.291  11.660  21.845  0.00  0.00    +0.000 NA
ATOM     22  N   UNL     1      -0.586  10.796  22.386  0.00  0.00    +0.000 N 
ATOM     23  C   UNL     1      -1.680  11.283  23.190  0.00  0.00    +0.000 C 
ATOM     24  C   UNL     1      -0.312   9.492  22.092  0.00  0.00    +0.000 A 
ENDBRANCH  18  19
ENDBRANCH  15  18
ENDBRANCH   1  16
TORSDOF 5
ENDMDL
MODEL 7
REMARK VINA RESULT:      -7.2      2.720      4.880
REMARK  Name = 
REMARK  7 active torsions:
REMARK  status: ('A' for Active; 'I' for Inactive)
REMARK    1  A    between atoms: C_1  and  N_2
REMARK    2  A    between atoms: N_2  and  C_3
REMARK    3  A    between atoms: C_3  and  C_4
REMARK    4  A    between atoms: N_7  and  C_8
REMARK    5  A    between atoms: C_10  and  C_12
REMARK    6  A    between atoms: C_12  and  C_13
REMARK    7  A    between atoms: C_12  and  N_19
REMARK                            x       y       z     vdW  Elec       q    Type
REMARK                         _______ _______ _______ _____ _____    ______ ____
ROOT
ATOM      1  C   UNL     1       4.233   4.807  18.589  0.00  0.00    +0.000 C 
ENDROOT
BRANCH   1   2
ATOM      2  C   UNL     1       3.458   6.128  18.579  0.00  0.00    +0.000 A 
ATOM      3  C   UNL     1       2.651   6.519  19.663  0.00  0.00    +0.000 A 
ATOM      4  C   UNL     1       1.970   7.737  19.645  0.00  0.00    +0.000 A 
ATOM      5  C   UNL     1       2.081   8.582  18.545  0.00  0.00    +0.000 A 
ATOM      6  C   UNL     1       2.885   8.217  17.466  0.00  0.00    +0.000 A 
ATOM      7  C   UNL     1       3.575   7.002  17.486  0.00  0.00    +0.000 A 
ENDBRANCH   1   2
BRANCH   1   8
ATOM      8  N   UNL     1       3.451   3.691  19.238  0.00  0.00    +0.000 NA
ATOM      9  C   UNL     1       2.012   3.794  18.907  0.00  0.00    +0.000 C 
ATOM     10  C   UNL     1       1.130   2.655  19.440  0.00  0.00    +0.000 C 
ATOM     11  S   UNL     1       1.163   2.549  21.248  0.00  0.00    +0.000 S 
ATOM     12  C   UNL     1       2.966   2.435  21.411  0.00  0.00    +0.000 C 
ATOM     13  C   UNL     1       3.693   3.580  20.694  0.00  0.00    +0.000 C 
ENDBRANCH   1   8
BRANCH   1  16
ATOM     14  C   UNL     1       6.616   4.060  15.620  0.00  0.00    +0.000 C 
ATOM     15  N   UNL     1       6.177   4.499  16.942  0.00  0.00    +0.000 N 
ATOM     16  C   UNL     1       4.800   4.448  17.166  0.00  0.00    +0.000 C 
ATOM     17  O   UNL     1       4.055   4.139  16.230  0.00  0.00    +0.000 OA
BRANCH  15  18
ATOM     18  C   UNL     1       7.178   4.876  17.942  0.00  0.00    +0.000 C 
BRANCH  18  19
ATOM     19  C   UNL     1       7.500   6.328  17.909  0.00  0.00    +0.000 A 
ATOM     20  C   UNL     1       7.079   7.276  16.946  0.00  0.00    +0.000 A 
ATOM     21  N   UNL     1       7.537   8.504  17.198  0.00  0.00    +0.000 NA
ATOM     22  N   UNL     1       8.263   8.349  18.318  0.00  0.00    +0.000 N 
ATOM     23  C   UNL     1       8.938   9.480  18.906  0.00  0.00    +0.000 C 
ATOM     24  C   UNL     1       8.273   7.067  18.784  0.00  0.00    +0.000 A 
ENDBRANCH  18  19
ENDBRANCH  15  18
ENDBRANCH   1  16
TORSDOF 5
ENDMDL
MODEL 8
REMARK VINA RESULT:      -7.2      0.855      1.489
REMARK  Name = 
REMARK  7 active torsions:
REMARK  status: ('A' for Active; 'I' for Inactive)
REMARK    1  A    between atoms: C_1  and  N_2
REMARK    2  A    between atoms: N_2  and  C_3
REMARK    3  A    between atoms: C_3  and  C_4
REMARK    4  A    between atoms: N_7  and  C_8
REMARK    5  A    between atoms: C_10  and  C_12
REMARK    6  A    between atoms: C_12  and  C_13
REMARK    7  A    between atoms: C_12  and  N_19
REMARK                            x       y       z     vdW  Elec       q    Type
REMARK                         _______ _______ _______ _____ _____    ______ ____
ROOT
ATOM      1  C   UNL     1       3.662   5.792  18.494  0.00  0.00    +0.000 C 
ENDROOT
BRANCH   1   2
ATOM      2  C   UNL     1       2.737   4.679  18.997  0.00  0.00    +0.000 A 
ATOM      3  C   UNL     1       2.660   4.345  20.360  0.00  0.00    +0.000 A 
ATOM      4  C   UNL     1       1.795   3.343  20.804  0.00  0.00    +0.000 A 
ATOM      5  C   UNL     1       0.996   2.659  19.893  0.00  0.00    +0.000 A 
ATOM      6  C   UNL     1       1.051   2.984  18.538  0.00  0.00    +0.000 A 
ATOM      7  C   UNL     1       1.910   3.993  18.093  0.00  0.00    +0.000 A 
ENDBRANCH   1   2
BRANCH   1   8
ATOM      8  N   UNL     1       3.163   7.165  18.872  0.00  0.00    +0.000 NA
ATOM      9  C   UNL     1       2.119   7.077  19.916  0.00  0.00    +0.000 C 
ATOM     10  C   UNL     1       1.601   8.423  20.446  0.00  0.00    +0.000 C 
ATOM     11  S   UNL     1       0.842   9.427  19.143  0.00  0.00    +0.000 S 
ATOM     12  C   UNL     1       2.260   9.397  18.012  0.00  0.00    +0.000 C 
ATOM     13  C   UNL     1       2.735   7.970  17.706  0.00  0.00    +0.000 C 
ENDBRANCH   1   8
BRANCH   1  16
ATOM     14  C   UNL     1       7.540   5.675  18.469  0.00  0.00    +0.000 C 
ATOM     15  N   UNL     1       6.177   5.871  17.984  0.00  0.00    +0.000 N 
ATOM     16  C   UNL     1       5.164   5.528  18.882  0.00  0.00    +0.000 C 
ATOM     17  O   UNL     1       5.473   5.004  19.957  0.00  0.00    +0.000 OA
BRANCH  15  18
ATOM     18  C   UNL     1       5.963   6.469  16.665  0.00  0.00    +0.000 C 
BRANCH  18  19
ATOM     19  C   UNL     1       5.949   5.457  15.575  0.00  0.00    +0.000 A 
ATOM     20  C   UNL     1       5.059   4.366  15.431  0.00  0.00    +0.000 A 
ATOM     21  N   UNL     1       5.306   3.640  14.341  0.00  0.00    +0.000 NA
ATOM     22  N   UNL     1       6.363   4.253  13.782  0.00  0.00    +0.000 N 
ATOM     23  C   UNL     1       6.938   3.740  12.562  0.00  0.00    +0.000 C 
ATOM     24  C   UNL     1       6.786   5.346  14.481  0.00  0.00    +0.000 A 
ENDBRANCH  18  19
ENDBRANCH  15  18
ENDBRANCH   1  16
TORSDOF 5
ENDMDL
MODEL 9
REMARK VINA RESULT:      -7.1      1.303      1.860
REMARK  Name = 
REMARK  7 active torsions:
REMARK  status: ('A' for Active; 'I' for Inactive)
REMARK    1  A    between atoms: C_1  and  N_2
REMARK    2  A    between atoms: N_2  and  C_3
REMARK    3  A    between atoms: C_3  and  C_4
REMARK    4  A    between atoms: N_7  and  C_8
REMARK    5  A    between atoms: C_10  and  C_12
REMARK    6  A    between atoms: C_12  and  C_13
REMARK    7  A    between atoms: C_12  and  N_19
REMARK                            x       y       z     vdW  Elec       q    Type
REMARK                         _______ _______ _______ _____ _____    ______ ____
ROOT
ATOM      1  C   UNL     1       3.219   5.565  17.922  0.00  0.00    +0.000 C 
ENDROOT
BRANCH   1   2
ATOM      2  C   UNL     1       2.699   4.147  18.177  0.00  0.00    +0.000 A 
ATOM      3  C   UNL     1       3.533   3.021  18.051  0.00  0.00    +0.000 A 
ATOM      4  C   UNL     1       3.047   1.738  18.309  0.00  0.00    +0.000 A 
ATOM      5  C   UNL     1       1.722   1.559  18.694  0.00  0.00    +0.000 A 
ATOM      6  C   UNL     1       0.884   2.664  18.835  0.00  0.00    +0.000 A 
ATOM      7  C   UNL     1       1.370   3.950  18.586  0.00  0.00    +0.000 A 
ENDBRANCH   1   2
BRANCH   1   8
ATOM      8  N   UNL     1       2.278   6.622  18.445  0.00  0.00    +0.000 NA
ATOM      9  C   UNL     1       2.397   7.870  17.659  0.00  0.00    +0.000 C 
ATOM     10  C   UNL     1       1.418   8.989  18.045  0.00  0.00    +0.000 C 
ATOM     11  S   UNL     1       1.630   9.524  19.764  0.00  0.00    +0.000 S 
ATOM     12  C   UNL     1       1.451   7.881  20.511  0.00  0.00    +0.000 C 
ATOM     13  C   UNL     1       2.412   6.852  19.901  0.00  0.00    +0.000 C 
ENDBRANCH   1   8
BRANCH   1  16
ATOM     14  C   UNL     1       6.995   6.445  18.072  0.00  0.00    +0.000 C 
ATOM     15  N   UNL     1       5.664   6.229  17.510  0.00  0.00    +0.000 N 
ATOM     16  C   UNL     1       4.707   5.740  18.402  0.00  0.00    +0.000 C 
ATOM     17  O   UNL     1       5.060   5.436  19.547  0.00  0.00    +0.000 OA
BRANCH  15  18
ATOM     18  C   UNL     1       5.404   6.602  16.119  0.00  0.00    +0.000 C 
BRANCH  18  19
ATOM     19  C   UNL     1       5.820   5.546  15.157  0.00  0.00    +0.000 A 
ATOM     20  C   UNL     1       7.117   5.007  14.987  0.00  0.00    +0.000 A 
ATOM     21  N   UNL     1       7.166   4.070  14.040  0.00  0.00    +0.000 NA
ATOM     22  N   UNL     1       5.901   4.008  13.589  0.00  0.00    +0.000 N 
ATOM     23  C   UNL     1       5.554   3.092  12.529  0.00  0.00    +0.000 C 
ATOM     24  C   UNL     1       5.057   4.870  14.224  0.00  0.00    +0.000 A 
ENDBRANCH  18  19
ENDBRANCH  15  18
ENDBRANCH   1  16
TORSDOF 5
ENDMDL
