MODEL 1
REMARK VINA RESULT:      -7.8      0.000      0.000
REMARK  Name = 
REMARK  5 active torsions:
REMARK  status: ('A' for Active; 'I' for Inactive)
REMARK    1  A    between atoms: C_2  and  C_3
REMARK    2  A    between atoms: C_3  and  C_4
REMARK    3  A    between atoms: C_13  and  C_15
REMARK    4  A    between atoms: N_19  and  C_20
REMARK    5  A    between atoms: C_20  and  C_21
REMARK                            x       y       z     vdW  Elec       q    Type
REMARK                         _______ _______ _______ _____ _____    ______ ____
ROOT
ATOM      1  C   UNL     1       5.932   4.773  16.580  0.00  0.00    +0.000 C 
ATOM      2  C   UNL     1       4.853   3.775  17.099  0.00  0.00    +0.000 C 
ATOM      3  C   UNL     1       4.361   4.095  18.519  0.00  0.00    +0.000 C 
ATOM      4  N   UNL     1       3.988   5.504  18.635  0.00  0.00    +0.000 N 
ATOM      5  C   UNL     1       2.678   5.858  18.971  0.00  0.00    +0.000 C 
ATOM      6  O   UNL     1       1.808   5.034  19.255  0.00  0.00    +0.000 OA
ATOM      7  C   UNL     1       5.060   6.442  18.273  0.00  0.00    +0.000 C 
ATOM      8  C   UNL     1       5.454   6.229  16.816  0.00  0.00    +0.000 C 
ENDROOT
BRANCH   1   9
ATOM      9  C   UNL     1       6.183   4.561  15.068  0.00  0.00    +0.000 A 
ATOM     10  C   UNL     1       5.329   3.782  14.261  0.00  0.00    +0.000 A 
ATOM     11  C   UNL     1       5.587   3.594  12.900  0.00  0.00    +0.000 A 
ATOM     12  C   UNL     1       6.703   4.177  12.310  0.00  0.00    +0.000 A 
ATOM     13  C   UNL     1       7.562   4.949  13.081  0.00  0.00    +0.000 A 
ATOM     14  C   UNL     1       7.308   5.139  14.443  0.00  0.00    +0.000 A 
ENDBRANCH   1   9
BRANCH   5  15
ATOM     15  C   UNL     1       2.377   7.349  18.951  0.00  0.00    +0.000 C 
ATOM     16  C   UNL     1       2.251   8.029  17.594  0.00  0.00    +0.000 C 
ATOM     17  C   UNL     1       2.217   9.540  17.861  0.00  0.00    +0.000 C 
ATOM     18  C   UNL     1       1.117   9.922  18.870  0.00  0.00    +0.000 C 
ATOM     19  N   UNL     1       1.232   9.127  20.112  0.00  0.00    +0.000 NA
ATOM     20  C   UNL     1       1.137   7.690  19.783  0.00  0.00    +0.000 C 
BRANCH  19  21
ATOM     21  C   UNL     1       0.213   9.488  21.124  0.00  0.00    +0.000 C 
BRANCH  21  22
ATOM     22  C   UNL     1       0.776   9.394  22.550  0.00  0.00    +0.000 C 
ATOM     23  N   UNL     1      -0.162   9.328  23.544  0.00  0.00    +0.000 N 
ATOM     24  O   UNL     1       1.970   9.438  22.807  0.00  0.00    +0.000 OA
ATOM     25  H   UNL     1      -1.107   9.073  23.283  0.00  0.00    +0.000 HD
ATOM     26  H   UNL     1       0.163   9.144  24.481  0.00  0.00    +0.000 HD
ENDBRANCH  21  22
ENDBRANCH  19  21
ENDBRANCH   5  15
BRANCH   1  28
ATOM     27  N   UNL     1       8.157   4.456  17.990  0.00  0.00    +0.000 NA
ATOM     28  C   UNL     1       7.171   4.575  17.386  0.00  0.00    +0.000 C 
ENDBRANCH   1  28
TORSDOF 5
ENDMDL
MODEL 2
REMARK VINA RESULT:      -7.7      0.853      1.289
REMARK  Name = 
REMARK  5 active torsions:
REMARK  status: ('A' for Active; 'I' for Inactive)
REMARK    1  A    between atoms: C_2  and  C_3
REMARK    2  A    between atoms: C_3  and  C_4
REMARK    3  A    between atoms: C_13  and  C_15
REMARK    4  A    between atoms: N_19  and  C_20
REMARK    5  A    between atoms: C_20  and  C_21
REMARK                            x       y       z     vdW  Elec       q    Type
REMARK                         _______ _______ _______ _____ _____    ______ ____
ROOT
ATOM      1  C   UNL     1       6.150   4.667  16.364  0.00  0.00    +0.000 C 
ATOM      2  C   UNL     1       5.094   3.624  16.838  0.00  0.00    +0.000 C 
ATOM      3  C   UNL     1       4.591   3.873  18.268  0.00  0.00    +0.000 C 
ATOM      4  N   UNL     1       4.184   5.268  18.440  0.00  0.00    +0.000 N 
ATOM      5  C   UNL     1       2.865   5.576  18.785  0.00  0.00    +0.000 C 
ATOM      6  O   UNL     1       2.014   4.721  19.032  0.00  0.00    +0.000 OA
ATOM      7  C   UNL     1       5.234   6.244  18.120  0.00  0.00    +0.000 C 
ATOM      8  C   UNL     1       5.637   6.100  16.657  0.00  0.00    +0.000 C 
ENDROOT
BRANCH   1   9
ATOM      9  C   UNL     1       6.411   4.523  14.846  0.00  0.00    +0.000 A 
ATOM     10  C   UNL     1       7.451   5.210  14.188  0.00  0.00    +0.000 A 
ATOM     11  C   UNL     1       7.656   5.074  12.812  0.00  0.00    +0.000 A 
ATOM     12  C   UNL     1       6.829   4.251  12.057  0.00  0.00    +0.000 A 
ATOM     13  C   UNL     1       5.795   3.562  12.679  0.00  0.00    +0.000 A 
ATOM     14  C   UNL     1       5.586   3.696  14.055  0.00  0.00    +0.000 A 
ENDBRANCH   1   9
BRANCH   5  15
ATOM     15  C   UNL     1       2.528   7.059  18.825  0.00  0.00    +0.000 C 
ATOM     16  C   UNL     1       2.108   7.726  17.520  0.00  0.00    +0.000 C 
ATOM     17  C   UNL     1       2.091   9.237  17.786  0.00  0.00    +0.000 C 
ATOM     18  C   UNL     1       1.213   9.600  18.999  0.00  0.00    +0.000 C 
ATOM     19  N   UNL     1       1.602   8.817  20.192  0.00  0.00    +0.000 NA
ATOM     20  C   UNL     1       1.478   7.376  19.893  0.00  0.00    +0.000 C 
BRANCH  19  21
ATOM     21  C   UNL     1       0.804   9.160  21.392  0.00  0.00    +0.000 C 
BRANCH  21  22
ATOM     22  C   UNL     1       0.524  10.668  21.473  0.00  0.00    +0.000 C 
ATOM     23  N   UNL     1      -0.799  11.016  21.467  0.00  0.00    +0.000 N 
ATOM     24  O   UNL     1       1.404  11.517  21.479  0.00  0.00    +0.000 OA
ATOM     25  H   UNL     1      -1.477  10.295  21.684  0.00  0.00    +0.000 HD
ATOM     26  H   UNL     1      -1.027  11.984  21.640  0.00  0.00    +0.000 HD
ENDBRANCH  21  22
ENDBRANCH  19  21
ENDBRANCH   5  15
BRANCH   1  28
ATOM     27  N   UNL     1       8.336   4.278  17.817  0.00  0.00    +0.000 NA
ATOM     28  C   UNL     1       7.392   4.466  17.166  0.00  0.00    +0.000 C 
ENDBRANCH   1  28
TORSDOF 5
ENDMDL
MODEL 3
REMARK VINA RESULT:      -7.2      2.028      3.255
REMARK  Name = 
REMARK  5 active torsions:
REMARK  status: ('A' for Active; 'I' for Inactive)
REMARK    1  A    between atoms: C_2  and  C_3
REMARK    2  A    between atoms: C_3  and  C_4
REMARK    3  A    between atoms: C_13  and  C_15
REMARK    4  A    between atoms: N_19  and  C_20
REMARK    5  A    between atoms: C_20  and  C_21
REMARK                            x       y       z     vdW  Elec       q    Type
REMARK                         _______ _______ _______ _____ _____    ______ ____
ROOT
ATOM      1  C   UNL     1       6.583   5.305  16.187  0.00  0.00    +0.000 C 
ATOM      2  C   UNL     1       7.254   4.228  17.092  0.00  0.00    +0.000 C 
ATOM      3  C   UNL     1       6.878   4.359  18.575  0.00  0.00    +0.000 C 
ATOM      4  N   UNL     1       5.428   4.466  18.736  0.00  0.00    +0.000 N 
ATOM      5  C   UNL     1       4.731   3.506  19.475  0.00  0.00    +0.000 C 
ATOM      6  O   UNL     1       5.285   2.586  20.080  0.00  0.00    +0.000 OA
ATOM      7  C   UNL     1       4.819   5.571  17.984  0.00  0.00    +0.000 C 
ATOM      8  C   UNL     1       5.065   5.371  16.493  0.00  0.00    +0.000 C 
ENDROOT
BRANCH   1   9
ATOM      9  C   UNL     1       6.784   4.958  14.692  0.00  0.00    +0.000 A 
ATOM     10  C   UNL     1       6.024   3.967  14.037  0.00  0.00    +0.000 A 
ATOM     11  C   UNL     1       6.236   3.662  12.689  0.00  0.00    +0.000 A 
ATOM     12  C   UNL     1       7.210   4.337  11.961  0.00  0.00    +0.000 A 
ATOM     13  C   UNL     1       7.974   5.318  12.581  0.00  0.00    +0.000 A 
ATOM     14  C   UNL     1       7.765   5.624  13.930  0.00  0.00    +0.000 A 
ENDBRANCH   1   9
BRANCH   5  15
ATOM     15  C   UNL     1       3.217   3.654  19.480  0.00  0.00    +0.000 C 
ATOM     16  C   UNL     1       2.381   2.385  19.585  0.00  0.00    +0.000 C 
ATOM     17  C   UNL     1       0.928   2.792  19.301  0.00  0.00    +0.000 C 
ATOM     18  C   UNL     1       0.462   3.940  20.216  0.00  0.00    +0.000 C 
ATOM     19  N   UNL     1       1.396   5.085  20.153  0.00  0.00    +0.000 NA
ATOM     20  C   UNL     1       2.745   4.638  20.555  0.00  0.00    +0.000 C 
BRANCH  19  21
ATOM     21  C   UNL     1       0.966   6.227  20.993  0.00  0.00    +0.000 C 
BRANCH  21  22
ATOM     22  C   UNL     1       1.680   7.526  20.589  0.00  0.00    +0.000 C 
ATOM     23  N   UNL     1       1.717   8.495  21.554  0.00  0.00    +0.000 N 
ATOM     24  O   UNL     1       2.133   7.725  19.471  0.00  0.00    +0.000 OA
ATOM     25  H   UNL     1       1.536   8.214  22.510  0.00  0.00    +0.000 HD
ATOM     26  H   UNL     1       2.280   9.313  21.372  0.00  0.00    +0.000 HD
ENDBRANCH  21  22
ENDBRANCH  19  21
ENDBRANCH   5  15
BRANCH   1  28
ATOM     27  N   UNL     1       7.658   7.645  16.824  0.00  0.00    +0.000 NA
ATOM     28  C   UNL     1       7.166   6.633  16.536  0.00  0.00    +0.000 C 
ENDBRANCH   1  28
TORSDOF 5
ENDMDL
MODEL 4
REMARK VINA RESULT:      -6.4      2.786      8.244
REMARK  Name = 
REMARK  5 active torsions:
REMARK  status: ('A' for Active; 'I' for Inactive)
REMARK    1  A    between atoms: C_2  and  C_3
REMARK    2  A    between atoms: C_3  and  C_4
REMARK    3  A    between atoms: C_13  and  C_15
REMARK    4  A    between atoms: N_19  and  C_20
REMARK    5  A    between atoms: C_20  and  C_21
REMARK                            x       y       z     vdW  Elec       q    Type
REMARK                         _______ _______ _______ _____ _____    ______ ____
ROOT
ATOM      1  C   UNL     1       1.234  11.341  19.069  0.00  0.00    +0.000 C 
ATOM      2  C   UNL     1       1.208  10.579  20.428  0.00  0.00    +0.000 C 
ATOM      3  C   UNL     1       0.716   9.129  20.304  0.00  0.00    +0.000 C 
ATOM      4  N   UNL     1       1.425   8.430  19.232  0.00  0.00    +0.000 N 
ATOM      5  C   UNL     1       2.189   7.296  19.520  0.00  0.00    +0.000 C 
ATOM      6  O   UNL     1       2.249   6.788  20.640  0.00  0.00    +0.000 OA
ATOM      7  C   UNL     1       1.329   9.086  17.921  0.00  0.00    +0.000 C 
ATOM      8  C   UNL     1       1.949  10.476  17.999  0.00  0.00    +0.000 C 
ENDROOT
BRANCH   1   9
ATOM      9  C   UNL     1       1.983  12.687  19.216  0.00  0.00    +0.000 A 
ATOM     10  C   UNL     1       1.997  13.417  20.421  0.00  0.00    +0.000 A 
ATOM     11  C   UNL     1       2.669  14.638  20.524  0.00  0.00    +0.000 A 
ATOM     12  C   UNL     1       3.343  15.163  19.426  0.00  0.00    +0.000 A 
ATOM     13  C   UNL     1       3.345  14.466  18.224  0.00  0.00    +0.000 A 
ATOM     14  C   UNL     1       2.672  13.244  18.119  0.00  0.00    +0.000 A 
ENDBRANCH   1   9
BRANCH   5  15
ATOM     15  C   UNL     1       2.971   6.720  18.349  0.00  0.00    +0.000 C 
ATOM     16  C   UNL     1       4.157   7.521  17.827  0.00  0.00    +0.000 C 
ATOM     17  C   UNL     1       4.586   6.860  16.509  0.00  0.00    +0.000 C 
ATOM     18  C   UNL     1       4.860   5.354  16.681  0.00  0.00    +0.000 C 
ATOM     19  N   UNL     1       3.710   4.671  17.311  0.00  0.00    +0.000 NA
ATOM     20  C   UNL     1       3.436   5.286  18.626  0.00  0.00    +0.000 C 
BRANCH  19  21
ATOM     21  C   UNL     1       3.917   3.213  17.464  0.00  0.00    +0.000 C 
BRANCH  21  22
ATOM     22  C   UNL     1       2.623   2.499  17.883  0.00  0.00    +0.000 C 
ATOM     23  N   UNL     1       2.799   1.321  18.557  0.00  0.00    +0.000 N 
ATOM     24  O   UNL     1       1.507   2.902  17.591  0.00  0.00    +0.000 OA
ATOM     25  H   UNL     1       3.710   1.143  18.964  0.00  0.00    +0.000 HD
ATOM     26  H   UNL     1       1.981   0.884  18.954  0.00  0.00    +0.000 HD
ENDBRANCH  21  22
ENDBRANCH  19  21
ENDBRANCH   5  15
BRANCH   1  28
ATOM     27  N   UNL     1      -1.257  11.700  18.226  0.00  0.00    +0.000 NA
ATOM     28  C   UNL     1      -0.175  11.531  18.617  0.00  0.00    +0.000 C 
ENDBRANCH   1  28
TORSDOF 5
ENDMDL
MODEL 5
REMARK VINA RESULT:      -6.2      2.853      8.208
REMARK  Name = 
REMARK  5 active torsions:
REMARK  status: ('A' for Active; 'I' for Inactive)
REMARK    1  A    between atoms: C_2  and  C_3
REMARK    2  A    between atoms: C_3  and  C_4
REMARK    3  A    between atoms: C_13  and  C_15
REMARK    4  A    between atoms: N_19  and  C_20
REMARK    5  A    between atoms: C_20  and  C_21
REMARK                            x       y       z     vdW  Elec       q    Type
REMARK                         _______ _______ _______ _____ _____    ______ ____
ROOT
ATOM      1  C   UNL     1       1.319  11.665  19.060  0.00  0.00    +0.000 C 
ATOM      2  C   UNL     1       1.192  10.962  20.445  0.00  0.00    +0.000 C 
ATOM      3  C   UNL     1       0.575   9.558  20.361  0.00  0.00    +0.000 C 
ATOM      4  N   UNL     1       1.243   8.758  19.335  0.00  0.00    +0.000 N 
ATOM      5  C   UNL     1       1.895   7.572  19.684  0.00  0.00    +0.000 C 
ATOM      6  O   UNL     1       1.883   7.104  20.824  0.00  0.00    +0.000 OA
ATOM      7  C   UNL     1       1.238   9.368  17.999  0.00  0.00    +0.000 C 
ATOM      8  C   UNL     1       1.979  10.700  18.043  0.00  0.00    +0.000 C 
ENDROOT
BRANCH   1   9
ATOM      9  C   UNL     1       2.182  12.944  19.178  0.00  0.00    +0.000 A 
ATOM     10  C   UNL     1       2.679  13.628  18.050  0.00  0.00    +0.000 A 
ATOM     11  C   UNL     1       3.469  14.773  18.185  0.00  0.00    +0.000 A 
ATOM     12  C   UNL     1       3.786  15.264  19.447  0.00  0.00    +0.000 A 
ATOM     13  C   UNL     1       3.311  14.609  20.576  0.00  0.00    +0.000 A 
ATOM     14  C   UNL     1       2.521  13.463  20.445  0.00  0.00    +0.000 A 
ENDBRANCH   1   9
BRANCH   5  15
ATOM     15  C   UNL     1       2.650   6.883  18.557  0.00  0.00    +0.000 C 
ATOM     16  C   UNL     1       3.942   7.530  18.071  0.00  0.00    +0.000 C 
ATOM     17  C   UNL     1       4.342   6.796  16.783  0.00  0.00    +0.000 C 
ATOM     18  C   UNL     1       4.430   5.272  16.992  0.00  0.00    +0.000 C 
ATOM     19  N   UNL     1       3.184   4.741  17.585  0.00  0.00    +0.000 NA
ATOM     20  C   UNL     1       2.933   5.412  18.877  0.00  0.00    +0.000 C 
BRANCH  19  21
ATOM     21  C   UNL     1       3.214   3.272  17.771  0.00  0.00    +0.000 C 
BRANCH  21  22
ATOM     22  C   UNL     1       3.709   2.890  19.175  0.00  0.00    +0.000 C 
ATOM     23  N   UNL     1       5.068   2.870  19.328  0.00  0.00    +0.000 N 
ATOM     24  O   UNL     1       2.962   2.562  20.086  0.00  0.00    +0.000 OA
ATOM     25  H   UNL     1       5.627   3.353  18.635  0.00  0.00    +0.000 HD
ATOM     26  H   UNL     1       5.431   2.743  20.261  0.00  0.00    +0.000 HD
ENDBRANCH  21  22
ENDBRANCH  19  21
ENDBRANCH   5  15
BRANCH   1  28
ATOM     27  N   UNL     1      -1.141  12.152  18.193  0.00  0.00    +0.000 NA
ATOM     28  C   UNL     1      -0.056  11.963  18.564  0.00  0.00    +0.000 C 
ENDBRANCH   1  28
TORSDOF 5
ENDMDL
MODEL 6
REMARK VINA RESULT:      -6.2      3.323      8.468
REMARK  Name = 
REMARK  5 active torsions:
REMARK  status: ('A' for Active; 'I' for Inactive)
REMARK    1  A    between atoms: C_2  and  C_3
REMARK    2  A    between atoms: C_3  and  C_4
REMARK    3  A    between atoms: C_13  and  C_15
REMARK    4  A    between atoms: N_19  and  C_20
REMARK    5  A    between atoms: C_20  and  C_21
REMARK                            x       y       z     vdW  Elec       q    Type
REMARK                         _______ _______ _______ _____ _____    ______ ____
ROOT
ATOM      1  C   UNL     1       0.008  10.456  19.176  0.00  0.00    +0.000 C 
ATOM      2  C   UNL     1       0.901  10.677  17.919  0.00  0.00    +0.000 C 
ATOM      3  C   UNL     1       2.332  10.144  18.087  0.00  0.00    +0.000 C 
ATOM      4  N   UNL     1       2.319   8.770  18.586  0.00  0.00    +0.000 N 
ATOM      5  C   UNL     1       2.888   7.743  17.827  0.00  0.00    +0.000 C 
ATOM      6  O   UNL     1       3.483   7.937  16.766  0.00  0.00    +0.000 OA
ATOM      7  C   UNL     1       1.587   8.594  19.847  0.00  0.00    +0.000 C 
ATOM      8  C   UNL     1       0.127   8.984  19.649  0.00  0.00    +0.000 C 
ENDROOT
BRANCH   1   9
ATOM      9  C   UNL     1      -1.473  10.764  18.850  0.00  0.00    +0.000 A 
ATOM     10  C   UNL     1      -2.168  11.842  19.436  0.00  0.00    +0.000 A 
ATOM     11  C   UNL     1      -3.511  12.090  19.136  0.00  0.00    +0.000 A 
ATOM     12  C   UNL     1      -4.194  11.270  18.244  0.00  0.00    +0.000 A 
ATOM     13  C   UNL     1      -3.534  10.201  17.652  0.00  0.00    +0.000 A 
ATOM     14  C   UNL     1      -2.192   9.949  17.951  0.00  0.00    +0.000 A 
ENDBRANCH   1   9
BRANCH   5  15
ATOM     15  C   UNL     1       2.716   6.340  18.390  0.00  0.00    +0.000 C 
ATOM     16  C   UNL     1       1.477   5.557  17.975  0.00  0.00    +0.000 C 
ATOM     17  C   UNL     1       1.420   4.315  18.876  0.00  0.00    +0.000 C 
ATOM     18  C   UNL     1       2.731   3.507  18.828  0.00  0.00    +0.000 C 
ATOM     19  N   UNL     1       3.899   4.367  19.118  0.00  0.00    +0.000 NA
ATOM     20  C   UNL     1       3.950   5.469  18.136  0.00  0.00    +0.000 C 
BRANCH  19  21
ATOM     21  C   UNL     1       5.179   3.622  19.117  0.00  0.00    +0.000 C 
BRANCH  21  22
ATOM     22  C   UNL     1       6.384   4.569  19.015  0.00  0.00    +0.000 C 
ATOM     23  N   UNL     1       7.204   4.356  17.941  0.00  0.00    +0.000 N 
ATOM     24  O   UNL     1       6.645   5.418  19.855  0.00  0.00    +0.000 OA
ATOM     25  H   UNL     1       6.839   3.809  17.171  0.00  0.00    +0.000 HD
ATOM     26  H   UNL     1       7.936   5.030  17.772  0.00  0.00    +0.000 HD
ENDBRANCH  21  22
ENDBRANCH  19  21
ENDBRANCH   5  15
BRANCH   1  28
ATOM     27  N   UNL     1       0.918  11.964  21.161  0.00  0.00    +0.000 NA
ATOM     28  C   UNL     1       0.530  11.320  20.274  0.00  0.00    +0.000 C 
ENDBRANCH   1  28
TORSDOF 5
ENDMDL
MODEL 7
REMARK VINA RESULT:      -6.1      5.890      9.150
REMARK  Name = 
REMARK  5 active torsions:
REMARK  status: ('A' for Active; 'I' for Inactive)
REMARK    1  A    between atoms: C_2  and  C_3
REMARK    2  A    between atoms: C_3  and  C_4
REMARK    3  A    between atoms: C_13  and  C_15
REMARK    4  A    between atoms: N_19  and  C_20
REMARK    5  A    between atoms: C_20  and  C_21
REMARK                            x       y       z     vdW  Elec       q    Type
REMARK                         _______ _______ _______ _____ _____    ______ ____
ROOT
ATOM      1  C   UNL     1      -0.332  10.995  18.996  0.00  0.00    +0.000 C 
ATOM      2  C   UNL     1       0.436  12.279  18.561  0.00  0.00    +0.000 C 
ATOM      3  C   UNL     1      -0.398  13.562  18.694  0.00  0.00    +0.000 C 
ATOM      4  N   UNL     1      -1.016  13.645  20.017  0.00  0.00    +0.000 N 
ATOM      5  C   UNL     1      -0.715  14.714  20.866  0.00  0.00    +0.000 C 
ATOM      6  O   UNL     1       0.003  15.658  20.535  0.00  0.00    +0.000 OA
ATOM      7  C   UNL     1      -1.852  12.488  20.364  0.00  0.00    +0.000 C 
ATOM      8  C   UNL     1      -0.997  11.226  20.377  0.00  0.00    +0.000 C 
ENDROOT
BRANCH   1   9
ATOM      9  C   UNL     1       0.636   9.791  19.095  0.00  0.00    +0.000 A 
ATOM     10  C   UNL     1       1.375   9.322  17.990  0.00  0.00    +0.000 A 
ATOM     11  C   UNL     1       2.232   8.224  18.102  0.00  0.00    +0.000 A 
ATOM     12  C   UNL     1       2.371   7.563  19.317  0.00  0.00    +0.000 A 
ATOM     13  C   UNL     1       1.654   8.003  20.423  0.00  0.00    +0.000 A 
ATOM     14  C   UNL     1       0.796   9.101  20.314  0.00  0.00    +0.000 A 
ENDBRANCH   1   9
BRANCH   5  15
ATOM     15  C   UNL     1      -1.327  14.637  22.257  0.00  0.00    +0.000 C 
ATOM     16  C   UNL     1      -0.672  15.453  23.365  0.00  0.00    +0.000 C 
ATOM     17  C   UNL     1      -1.307  14.992  24.684  0.00  0.00    +0.000 C 
ATOM     18  C   UNL     1      -2.845  15.086  24.647  0.00  0.00    +0.000 C 
ATOM     19  N   UNL     1      -3.394  14.376  23.472  0.00  0.00    +0.000 NA
ATOM     20  C   UNL     1      -2.825  14.956  22.239  0.00  0.00    +0.000 C 
BRANCH  19  21
ATOM     21  C   UNL     1      -4.874  14.411  23.417  0.00  0.00    +0.000 C 
BRANCH  21  22
ATOM     22  C   UNL     1      -5.470  12.998  23.329  0.00  0.00    +0.000 C 
ATOM     23  N   UNL     1      -5.791  12.425  24.530  0.00  0.00    +0.000 N 
ATOM     24  O   UNL     1      -5.599  12.385  22.279  0.00  0.00    +0.000 OA
ATOM     25  H   UNL     1      -5.878  13.035  25.334  0.00  0.00    +0.000 HD
ATOM     26  H   UNL     1      -6.295  11.551  24.510  0.00  0.00    +0.000 HD
ENDBRANCH  21  22
ENDBRANCH  19  21
ENDBRANCH   5  15
BRANCH   1  28
ATOM     27  N   UNL     1      -2.263  10.603  17.219  0.00  0.00    +0.000 NA
ATOM     28  C   UNL     1      -1.426  10.753  18.011  0.00  0.00    +0.000 C 
ENDBRANCH   1  28
TORSDOF 5
ENDMDL
MODEL 8
REMARK VINA RESULT:      -6.1      5.985      9.355
REMARK  Name = 
REMARK  5 active torsions:
REMARK  status: ('A' for Active; 'I' for Inactive)
REMARK    1  A    between atoms: C_2  and  C_3
REMARK    2  A    between atoms: C_3  and  C_4
REMARK    3  A    between atoms: C_13  and  C_15
REMARK    4  A    between atoms: N_19  and  C_20
REMARK    5  A    between atoms: C_20  and  C_21
REMARK                            x       y       z     vdW  Elec       q    Type
REMARK                         _______ _______ _______ _____ _____    ______ ____
ROOT
ATOM      1  C   UNL     1       0.415  11.105  19.329  0.00  0.00    +0.000 C 
ATOM      2  C   UNL     1      -0.023  11.446  20.786  0.00  0.00    +0.000 C 
ATOM      3  C   UNL     1      -0.930  12.682  20.875  0.00  0.00    +0.000 C 
ATOM      4  N   UNL     1      -2.032  12.588  19.917  0.00  0.00    +0.000 N 
ATOM      5  C   UNL     1      -3.355  12.582  20.369  0.00  0.00    +0.000 C 
ATOM      6  O   UNL     1      -3.666  12.729  21.552  0.00  0.00    +0.000 OA
ATOM      7  C   UNL     1      -1.604  12.403  18.525  0.00  0.00    +0.000 C 
ATOM      8  C   UNL     1      -0.824  11.099  18.399  0.00  0.00    +0.000 C 
ENDROOT
BRANCH   1   9
ATOM      9  C   UNL     1       1.094   9.715  19.279  0.00  0.00    +0.000 A 
ATOM     10  C   UNL     1       1.675   9.199  18.102  0.00  0.00    +0.000 A 
ATOM     11  C   UNL     1       2.268   7.934  18.079  0.00  0.00    +0.000 A 
ATOM     12  C   UNL     1       2.295   7.150  19.227  0.00  0.00    +0.000 A 
ATOM     13  C   UNL     1       1.729   7.633  20.401  0.00  0.00    +0.000 A 
ATOM     14  C   UNL     1       1.134   8.898  20.427  0.00  0.00    +0.000 A 
ENDBRANCH   1   9
BRANCH   5  15
ATOM     15  C   UNL     1      -4.412  12.367  19.296  0.00  0.00    +0.000 C 
ATOM     16  C   UNL     1      -4.921  10.947  19.078  0.00  0.00    +0.000 C 
ATOM     17  C   UNL     1      -5.756  10.974  17.791  0.00  0.00    +0.000 C 
ATOM     18  C   UNL     1      -6.861  12.047  17.842  0.00  0.00    +0.000 C 
ATOM     19  N   UNL     1      -6.302  13.372  18.184  0.00  0.00    +0.000 NA
ATOM     20  C   UNL     1      -5.617  13.292  19.490  0.00  0.00    +0.000 C 
BRANCH  19  21
ATOM     21  C   UNL     1      -7.326  14.441  18.210  0.00  0.00    +0.000 C 
BRANCH  21  22
ATOM     22  C   UNL     1      -6.968  15.590  17.255  0.00  0.00    +0.000 C 
ATOM     23  N   UNL     1      -6.963  15.263  15.926  0.00  0.00    +0.000 N 
ATOM     24  O   UNL     1      -6.645  16.706  17.635  0.00  0.00    +0.000 OA
ATOM     25  H   UNL     1      -7.442  14.415  15.648  0.00  0.00    +0.000 HD
ATOM     26  H   UNL     1      -6.852  16.015  15.261  0.00  0.00    +0.000 HD
ENDBRANCH  21  22
ENDBRANCH  19  21
ENDBRANCH   5  15
BRANCH   1  28
ATOM     27  N   UNL     1       2.034  13.011  18.442  0.00  0.00    +0.000 NA
ATOM     28  C   UNL     1       1.324  12.188  18.854  0.00  0.00    +0.000 C 
ENDBRANCH   1  28
TORSDOF 5
ENDMDL
MODEL 9
REMARK VINA RESULT:      -6.0      5.760      9.062
REMARK  Name = 
REMARK  5 active torsions:
REMARK  status: ('A' for Active; 'I' for Inactive)
REMARK    1  A    between atoms: C_2  and  C_3
REMARK    2  A    between atoms: C_3  and  C_4
REMARK    3  A    between atoms: C_13  and  C_15
REMARK    4  A    between atoms: N_19  and  C_20
REMARK    5  A    between atoms: C_20  and  C_21
REMARK                            x       y       z     vdW  Elec       q    Type
REMARK                         _______ _______ _______ _____ _____    ______ ____
ROOT
ATOM      1  C   UNL     1      -0.281  10.807  18.855  0.00  0.00    +0.000 C 
ATOM      2  C   UNL     1       0.507  12.103  18.496  0.00  0.00    +0.000 C 
ATOM      3  C   UNL     1      -0.347  13.377  18.581  0.00  0.00    +0.000 C 
ATOM      4  N   UNL     1      -1.064  13.438  19.854  0.00  0.00    +0.000 N 
ATOM      5  C   UNL     1      -0.838  14.499  20.736  0.00  0.00    +0.000 C 
ATOM      6  O   UNL     1      -0.106  15.453  20.472  0.00  0.00    +0.000 OA
ATOM      7  C   UNL     1      -1.913  12.270  20.123  0.00  0.00    +0.000 C 
ATOM      8  C   UNL     1      -1.050  11.015  20.185  0.00  0.00    +0.000 C 
ENDROOT
BRANCH   1   9
ATOM      9  C   UNL     1       0.688   9.610  19.012  0.00  0.00    +0.000 A 
ATOM     10  C   UNL     1       0.882   8.951  20.243  0.00  0.00    +0.000 A 
ATOM     11  C   UNL     1       1.774   7.881  20.361  0.00  0.00    +0.000 A 
ATOM     12  C   UNL     1       2.497   7.444  19.257  0.00  0.00    +0.000 A 
ATOM     13  C   UNL     1       2.326   8.076  18.031  0.00  0.00    +0.000 A 
ATOM     14  C   UNL     1       1.435   9.146  17.909  0.00  0.00    +0.000 A 
ENDBRANCH   1   9
BRANCH   5  15
ATOM     15  C   UNL     1      -1.552  14.399  22.076  0.00  0.00    +0.000 C 
ATOM     16  C   UNL     1      -0.957  15.160  23.254  0.00  0.00    +0.000 C 
ATOM     17  C   UNL     1      -1.701  14.679  24.508  0.00  0.00    +0.000 C 
ATOM     18  C   UNL     1      -3.228  14.823  24.362  0.00  0.00    +0.000 C 
ATOM     19  N   UNL     1      -3.711  14.167  23.128  0.00  0.00    +0.000 NA
ATOM     20  C   UNL     1      -3.035  14.766  21.959  0.00  0.00    +0.000 C 
BRANCH  19  21
ATOM     21  C   UNL     1      -5.180  14.251  22.966  0.00  0.00    +0.000 C 
BRANCH  21  22
ATOM     22  C   UNL     1      -5.909  13.275  23.902  0.00  0.00    +0.000 C 
ATOM     23  N   UNL     1      -7.017  13.781  24.525  0.00  0.00    +0.000 N 
ATOM     24  O   UNL     1      -5.510  12.143  24.137  0.00  0.00    +0.000 OA
ATOM     25  H   UNL     1      -7.430  14.622  24.140  0.00  0.00    +0.000 HD
ATOM     26  H   UNL     1      -7.591  13.138  25.051  0.00  0.00    +0.000 HD
ENDBRANCH  21  22
ENDBRANCH  19  21
ENDBRANCH   5  15
BRANCH   1  28
ATOM     27  N   UNL     1      -2.084  10.431  16.946  0.00  0.00    +0.000 NA
ATOM     28  C   UNL     1      -1.294  10.570  17.787  0.00  0.00    +0.000 C 
ENDBRANCH   1  28
TORSDOF 5
ENDMDL
