MODEL 1
REMARK VINA RESULT:      -8.8      0.000      0.000
REMARK  Name = 
REMARK  6 active torsions:
REMARK  status: ('A' for Active; 'I' for Inactive)
REMARK    1  A    between atoms: C_2  and  C_3
REMARK    2  A    between atoms: C_3  and  C_4
REMARK    3  A    between atoms: C_6  and  N_7
REMARK    4  A    between atoms: N_17  and  C_18
REMARK    5  A    between atoms: C_22  and  O_23
REMARK    6  A    between atoms: O_23  and  C_24
REMARK                            x       y       z     vdW  Elec       q    Type
REMARK                         _______ _______ _______ _____ _____    ______ ____
ROOT
ATOM      1  O   UNL     1       7.482   8.485  17.281  0.00  0.00    +0.000 OA
ATOM      2  C   UNL     1       8.085   8.042  18.255  0.00  0.00    +0.000 C 
ATOM      3  N   UNL     1       8.881   8.776  19.112  0.00  0.00    +0.000 N 
ATOM      4  H   UNL     1       9.241   8.281  19.928  0.00  0.00    +0.000 HD
ENDROOT
BRANCH   3   5
ATOM      5  C   UNL     1       9.144  10.162  19.043  0.00  0.00    +0.000 A 
ATOM      6  C   UNL     1       9.016  10.912  17.871  0.00  0.00    +0.000 A 
ATOM      7  C   UNL     1       9.251  12.287  17.881  0.00  0.00    +0.000 A 
ATOM      8  C   UNL     1       9.617  12.922  19.064  0.00  0.00    +0.000 A 
ATOM      9  C   UNL     1       9.782  12.183  20.238  0.00  0.00    +0.000 A 
ATOM     10  C   UNL     1       9.549  10.806  20.222  0.00  0.00    +0.000 A 
BRANCH   9  11
ATOM     11  O   UNL     1      10.128  12.917  21.339  0.00  0.00    +0.000 OA
BRANCH  11  12
ATOM     12  C   UNL     1       9.100  13.645  22.007  0.00  0.00    +0.000 C 
ATOM     13  C   UNL     1       8.629  12.939  23.275  0.00  0.00    +0.000 C 
ATOM     14  C   UNL     1       8.126  14.053  24.175  0.00  0.00    +0.000 C 
ATOM     15  C   UNL     1       8.962  15.277  23.828  0.00  0.00    +0.000 C 
ATOM     16  C   UNL     1       9.689  14.960  22.524  0.00  0.00    +0.000 C 
ENDBRANCH  11  12
ENDBRANCH   9  11
ENDBRANCH   3   5
BRANCH   2  17
ATOM     17  C   UNL     1       8.014   6.558  18.535  0.00  0.00    +0.000 C 
BRANCH  17  18
ATOM     18  C   UNL     1       7.021   5.744  17.751  0.00  0.00    +0.000 A 
ATOM     19  N   UNL     1       5.913   5.352  18.294  0.00  0.00    +0.000 NA
ATOM     20  C   UNL     1       5.080   4.508  17.586  0.00  0.00    +0.000 A 
ATOM     21  C   UNL     1       5.392   4.126  16.334  0.00  0.00    +0.000 A 
ATOM     22  C   UNL     1       6.623   4.605  15.706  0.00  0.00    +0.000 A 
ATOM     23  O   UNL     1       6.936   4.285  14.565  0.00  0.00    +0.000 OA
ATOM     24  N   UNL     1       7.392   5.410  16.480  0.00  0.00    +0.000 N 
ATOM     25  H   UNL     1       8.248   5.742  16.059  0.00  0.00    +0.000 HD
BRANCH  20  26
ATOM     26  N   UNL     1       3.903   4.046  18.180  0.00  0.00    +0.000 N 
ATOM     27  C   UNL     1       3.669   2.622  18.480  0.00  0.00    +0.000 C 
ATOM     28  C   UNL     1       2.406   2.114  17.775  0.00  0.00    +0.000 C 
ATOM     29  O   UNL     1       1.262   2.916  18.110  0.00  0.00    +0.000 OA
ATOM     30  C   UNL     1       1.485   4.280  17.719  0.00  0.00    +0.000 C 
ATOM     31  C   UNL     1       2.708   4.879  18.434  0.00  0.00    +0.000 C 
ENDBRANCH  20  26
ENDBRANCH  17  18
ENDBRANCH   2  17
TORSDOF 6
ENDMDL
MODEL 2
REMARK VINA RESULT:      -8.7      1.969      3.279
REMARK  Name = 
REMARK  6 active torsions:
REMARK  status: ('A' for Active; 'I' for Inactive)
REMARK    1  A    between atoms: C_2  and  C_3
REMARK    2  A    between atoms: C_3  and  C_4
REMARK    3  A    between atoms: C_6  and  N_7
REMARK    4  A    between atoms: N_17  and  C_18
REMARK    5  A    between atoms: C_22  and  O_23
REMARK    6  A    between atoms: O_23  and  C_24
REMARK                            x       y       z     vdW  Elec       q    Type
REMARK                         _______ _______ _______ _____ _____    ______ ____
ROOT
ATOM      1  O   UNL     1       7.487   9.117  17.546  0.00  0.00    +0.000 OA
ATOM      2  C   UNL     1       8.164   8.460  18.333  0.00  0.00    +0.000 C 
ATOM      3  N   UNL     1       9.043   8.973  19.265  0.00  0.00    +0.000 N 
ATOM      4  H   UNL     1       9.462   8.302  19.908  0.00  0.00    +0.000 HD
ENDROOT
BRANCH   3   5
ATOM      5  C   UNL     1       9.324  10.338  19.500  0.00  0.00    +0.000 A 
ATOM      6  C   UNL     1       9.266  10.929  20.765  0.00  0.00    +0.000 A 
ATOM      7  C   UNL     1       9.595  12.274  20.934  0.00  0.00    +0.000 A 
ATOM      8  C   UNL     1       9.984  13.038  19.838  0.00  0.00    +0.000 A 
ATOM      9  C   UNL     1      10.015  12.473  18.561  0.00  0.00    +0.000 A 
ATOM     10  C   UNL     1       9.681  11.126  18.397  0.00  0.00    +0.000 A 
BRANCH   9  11
ATOM     11  O   UNL     1      10.427  13.316  17.566  0.00  0.00    +0.000 OA
BRANCH  11  12
ATOM     12  C   UNL     1      10.977  14.577  17.942  0.00  0.00    +0.000 C 
ATOM     13  C   UNL     1      12.266  14.888  17.189  0.00  0.00    +0.000 C 
ATOM     14  C   UNL     1      12.333  16.404  17.142  0.00  0.00    +0.000 C 
ATOM     15  C   UNL     1      10.887  16.882  17.120  0.00  0.00    +0.000 C 
ATOM     16  C   UNL     1      10.020  15.683  17.491  0.00  0.00    +0.000 C 
ENDBRANCH  11  12
ENDBRANCH   9  11
ENDBRANCH   3   5
BRANCH   2  17
ATOM     17  C   UNL     1       8.090   6.951  18.263  0.00  0.00    +0.000 C 
BRANCH  17  18
ATOM     18  C   UNL     1       7.056   6.341  17.357  0.00  0.00    +0.000 A 
ATOM     19  N   UNL     1       5.871   6.064  17.799  0.00  0.00    +0.000 NA
ATOM     20  C   UNL     1       4.985   5.397  16.976  0.00  0.00    +0.000 A 
ATOM     21  C   UNL     1       5.329   5.071  15.716  0.00  0.00    +0.000 A 
ATOM     22  C   UNL     1       6.654   5.424  15.204  0.00  0.00    +0.000 A 
ATOM     23  O   UNL     1       6.999   5.152  14.060  0.00  0.00    +0.000 OA
ATOM     24  N   UNL     1       7.466   6.056  16.086  0.00  0.00    +0.000 N 
ATOM     25  H   UNL     1       8.385   6.300  15.745  0.00  0.00    +0.000 HD
BRANCH  20  26
ATOM     26  N   UNL     1       3.719   5.057  17.459  0.00  0.00    +0.000 N 
ATOM     27  C   UNL     1       2.833   6.031  18.122  0.00  0.00    +0.000 C 
ATOM     28  C   UNL     1       2.470   5.566  19.537  0.00  0.00    +0.000 C 
ATOM     29  O   UNL     1       1.888   4.252  19.522  0.00  0.00    +0.000 OA
ATOM     30  C   UNL     1       2.813   3.311  18.957  0.00  0.00    +0.000 C 
ATOM     31  C   UNL     1       3.182   3.680  17.510  0.00  0.00    +0.000 C 
ENDBRANCH  20  26
ENDBRANCH  17  18
ENDBRANCH   2  17
TORSDOF 6
ENDMDL
MODEL 3
REMARK VINA RESULT:      -8.5      0.894      1.415
REMARK  Name = 
REMARK  6 active torsions:
REMARK  status: ('A' for Active; 'I' for Inactive)
REMARK    1  A    between atoms: C_2  and  C_3
REMARK    2  A    between atoms: C_3  and  C_4
REMARK    3  A    between atoms: C_6  and  N_7
REMARK    4  A    between atoms: N_17  and  C_18
REMARK    5  A    between atoms: C_22  and  O_23
REMARK    6  A    between atoms: O_23  and  C_24
REMARK                            x       y       z     vdW  Elec       q    Type
REMARK                         _______ _______ _______ _____ _____    ______ ____
ROOT
ATOM      1  O   UNL     1       7.647   8.847  17.243  0.00  0.00    +0.000 OA
ATOM      2  C   UNL     1       8.145   8.307  18.227  0.00  0.00    +0.000 C 
ATOM      3  N   UNL     1       8.951   8.922  19.164  0.00  0.00    +0.000 N 
ATOM      4  H   UNL     1       9.212   8.360  19.973  0.00  0.00    +0.000 HD
ENDROOT
BRANCH   3   5
ATOM      5  C   UNL     1       9.344  10.280  19.180  0.00  0.00    +0.000 A 
ATOM      6  C   UNL     1       9.719  10.986  18.033  0.00  0.00    +0.000 A 
ATOM      7  C   UNL     1      10.056  12.337  18.113  0.00  0.00    +0.000 A 
ATOM      8  C   UNL     1      10.021  12.991  19.340  0.00  0.00    +0.000 A 
ATOM      9  C   UNL     1       9.682  12.294  20.501  0.00  0.00    +0.000 A 
ATOM     10  C   UNL     1       9.348  10.940  20.417  0.00  0.00    +0.000 A 
BRANCH   9  11
ATOM     11  O   UNL     1       9.667  13.046  21.644  0.00  0.00    +0.000 OA
BRANCH  11  12
ATOM     12  C   UNL     1       8.445  13.131  22.374  0.00  0.00    +0.000 C 
ATOM     13  C   UNL     1       8.606  13.915  23.672  0.00  0.00    +0.000 C 
ATOM     14  C   UNL     1       7.231  14.496  23.947  0.00  0.00    +0.000 C 
ATOM     15  C   UNL     1       6.595  14.722  22.582  0.00  0.00    +0.000 C 
ATOM     16  C   UNL     1       7.450  13.969  21.567  0.00  0.00    +0.000 C 
ENDBRANCH  11  12
ENDBRANCH   9  11
ENDBRANCH   3   5
BRANCH   2  17
ATOM     17  C   UNL     1       7.921   6.825  18.427  0.00  0.00    +0.000 C 
BRANCH  17  18
ATOM     18  C   UNL     1       6.990   6.122  17.477  0.00  0.00    +0.000 A 
ATOM     19  N   UNL     1       5.877   5.612  17.899  0.00  0.00    +0.000 NA
ATOM     20  C   UNL     1       5.105   4.872  17.025  0.00  0.00    +0.000 A 
ATOM     21  C   UNL     1       5.478   4.713  15.742  0.00  0.00    +0.000 A 
ATOM     22  C   UNL     1       6.714   5.328  15.257  0.00  0.00    +0.000 A 
ATOM     23  O   UNL     1       7.081   5.212  14.093  0.00  0.00    +0.000 OA
ATOM     24  N   UNL     1       7.422   6.016  16.186  0.00  0.00    +0.000 N 
ATOM     25  H   UNL     1       8.280   6.440  15.863  0.00  0.00    +0.000 HD
BRANCH  20  26
ATOM     26  N   UNL     1       3.924   4.281  17.483  0.00  0.00    +0.000 N 
ATOM     27  C   UNL     1       2.746   5.069  17.888  0.00  0.00    +0.000 C 
ATOM     28  C   UNL     1       2.357   4.766  19.340  0.00  0.00    +0.000 C 
ATOM     29  O   UNL     1       2.142   3.359  19.540  0.00  0.00    +0.000 OA
ATOM     30  C   UNL     1       3.337   2.629  19.226  0.00  0.00    +0.000 C 
ATOM     31  C   UNL     1       3.759   2.838  17.762  0.00  0.00    +0.000 C 
ENDBRANCH  20  26
ENDBRANCH  17  18
ENDBRANCH   2  17
TORSDOF 6
ENDMDL
MODEL 4
REMARK VINA RESULT:      -8.3      2.502      2.767
REMARK  Name = 
REMARK  6 active torsions:
REMARK  status: ('A' for Active; 'I' for Inactive)
REMARK    1  A    between atoms: C_2  and  C_3
REMARK    2  A    between atoms: C_3  and  C_4
REMARK    3  A    between atoms: C_6  and  N_7
REMARK    4  A    between atoms: N_17  and  C_18
REMARK    5  A    between atoms: C_22  and  O_23
REMARK    6  A    between atoms: O_23  and  C_24
REMARK                            x       y       z     vdW  Elec       q    Type
REMARK                         _______ _______ _______ _____ _____    ______ ____
ROOT
ATOM      1  O   UNL     1       7.790   8.445  16.925  0.00  0.00    +0.000 OA
ATOM      2  C   UNL     1       8.211   8.255  18.063  0.00  0.00    +0.000 C 
ATOM      3  N   UNL     1       8.925   9.160  18.822  0.00  0.00    +0.000 N 
ATOM      4  H   UNL     1       9.125   8.886  19.783  0.00  0.00    +0.000 HD
ENDROOT
BRANCH   3   5
ATOM      5  C   UNL     1       9.296  10.471  18.445  0.00  0.00    +0.000 A 
ATOM      6  C   UNL     1      10.624  10.897  18.349  0.00  0.00    +0.000 A 
ATOM      7  C   UNL     1      10.922  12.194  17.932  0.00  0.00    +0.000 A 
ATOM      8  C   UNL     1       9.895  13.074  17.607  0.00  0.00    +0.000 A 
ATOM      9  C   UNL     1       8.562  12.676  17.729  0.00  0.00    +0.000 A 
ATOM     10  C   UNL     1       8.268  11.378  18.151  0.00  0.00    +0.000 A 
BRANCH   9  11
ATOM     11  O   UNL     1       7.641  13.621  17.367  0.00  0.00    +0.000 OA
BRANCH  11  12
ATOM     12  C   UNL     1       7.222  14.560  18.355  0.00  0.00    +0.000 C 
ATOM     13  C   UNL     1       7.813  15.946  18.116  0.00  0.00    +0.000 C 
ATOM     14  C   UNL     1       6.812  16.906  18.732  0.00  0.00    +0.000 C 
ATOM     15  C   UNL     1       5.452  16.236  18.589  0.00  0.00    +0.000 C 
ATOM     16  C   UNL     1       5.714  14.781  18.211  0.00  0.00    +0.000 C 
ENDBRANCH  11  12
ENDBRANCH   9  11
ENDBRANCH   3   5
BRANCH   2  17
ATOM     17  C   UNL     1       7.990   6.899  18.696  0.00  0.00    +0.000 C 
BRANCH  17  18
ATOM     18  C   UNL     1       7.080   5.934  17.987  0.00  0.00    +0.000 A 
ATOM     19  N   UNL     1       6.057   5.423  18.595  0.00  0.00    +0.000 NA
ATOM     20  C   UNL     1       5.313   4.452  17.955  0.00  0.00    +0.000 A 
ATOM     21  C   UNL     1       5.617   4.066  16.702  0.00  0.00    +0.000 A 
ATOM     22  C   UNL     1       6.747   4.676  16.001  0.00  0.00    +0.000 A 
ATOM     23  O   UNL     1       7.049   4.356  14.857  0.00  0.00    +0.000 OA
ATOM     24  N   UNL     1       7.436   5.603  16.712  0.00  0.00    +0.000 N 
ATOM     25  H   UNL     1       8.222   6.027  16.239  0.00  0.00    +0.000 HD
BRANCH  20  26
ATOM     26  N   UNL     1       4.233   3.864  18.619  0.00  0.00    +0.000 N 
ATOM     27  C   UNL     1       3.661   2.567  18.214  0.00  0.00    +0.000 C 
ATOM     28  C   UNL     1       2.171   2.707  17.878  0.00  0.00    +0.000 C 
ATOM     29  O   UNL     1       1.440   3.285  18.971  0.00  0.00    +0.000 OA
ATOM     30  C   UNL     1       1.962   4.587  19.278  0.00  0.00    +0.000 C 
ATOM     31  C   UNL     1       3.444   4.520  19.684  0.00  0.00    +0.000 C 
ENDBRANCH  20  26
ENDBRANCH  17  18
ENDBRANCH   2  17
TORSDOF 6
ENDMDL
MODEL 5
REMARK VINA RESULT:      -8.3      6.361     10.201
REMARK  Name = 
REMARK  6 active torsions:
REMARK  status: ('A' for Active; 'I' for Inactive)
REMARK    1  A    between atoms: C_2  and  C_3
REMARK    2  A    between atoms: C_3  and  C_4
REMARK    3  A    between atoms: C_6  and  N_7
REMARK    4  A    between atoms: N_17  and  C_18
REMARK    5  A    between atoms: C_22  and  O_23
REMARK    6  A    between atoms: O_23  and  C_24
REMARK                            x       y       z     vdW  Elec       q    Type
REMARK                         _______ _______ _______ _____ _____    ______ ____
ROOT
ATOM      1  O   UNL     1       1.864   8.274  19.099  0.00  0.00    +0.000 OA
ATOM      2  C   UNL     1       1.581   8.104  20.282  0.00  0.00    +0.000 C 
ATOM      3  N   UNL     1       1.602   6.897  20.952  0.00  0.00    +0.000 N 
ATOM      4  H   UNL     1       1.429   6.934  21.956  0.00  0.00    +0.000 HD
ENDROOT
BRANCH   3   5
ATOM      5  C   UNL     1       1.961   5.640  20.415  0.00  0.00    +0.000 A 
ATOM      6  C   UNL     1       1.192   4.485  20.580  0.00  0.00    +0.000 A 
ATOM      7  C   UNL     1       1.583   3.283  19.989  0.00  0.00    +0.000 A 
ATOM      8  C   UNL     1       2.747   3.229  19.229  0.00  0.00    +0.000 A 
ATOM      9  C   UNL     1       3.546   4.365  19.081  0.00  0.00    +0.000 A 
ATOM     10  C   UNL     1       3.152   5.565  19.678  0.00  0.00    +0.000 A 
BRANCH   9  11
ATOM     11  O   UNL     1       4.656   4.193  18.300  0.00  0.00    +0.000 OA
BRANCH  11  12
ATOM     12  C   UNL     1       4.549   4.492  16.910  0.00  0.00    +0.000 C 
ATOM     13  C   UNL     1       4.999   5.915  16.593  0.00  0.00    +0.000 C 
ATOM     14  C   UNL     1       5.482   5.858  15.155  0.00  0.00    +0.000 C 
ATOM     15  C   UNL     1       6.022   4.448  14.955  0.00  0.00    +0.000 C 
ATOM     16  C   UNL     1       5.545   3.619  16.143  0.00  0.00    +0.000 C 
ENDBRANCH  11  12
ENDBRANCH   9  11
ENDBRANCH   3   5
BRANCH   2  17
ATOM     17  C   UNL     1       1.111   9.293  21.090  0.00  0.00    +0.000 C 
BRANCH  17  18
ATOM     18  C   UNL     1       0.244  10.311  20.400  0.00  0.00    +0.000 A 
ATOM     19  N   UNL     1      -0.716   9.937  19.615  0.00  0.00    +0.000 NA
ATOM     20  C   UNL     1      -1.415  10.895  18.906  0.00  0.00    +0.000 A 
ATOM     21  C   UNL     1      -1.133  12.202  19.055  0.00  0.00    +0.000 A 
ATOM     22  C   UNL     1      -0.078  12.625  19.976  0.00  0.00    +0.000 A 
ATOM     23  O   UNL     1       0.201  13.807  20.144  0.00  0.00    +0.000 OA
ATOM     24  N   UNL     1       0.572  11.619  20.612  0.00  0.00    +0.000 N 
ATOM     25  H   UNL     1       1.306  11.899  21.246  0.00  0.00    +0.000 HD
BRANCH  20  26
ATOM     26  N   UNL     1      -2.423  10.498  18.024  0.00  0.00    +0.000 N 
ATOM     27  C   UNL     1      -2.141   9.831  16.741  0.00  0.00    +0.000 C 
ATOM     28  C   UNL     1      -2.722  10.631  15.569  0.00  0.00    +0.000 C 
ATOM     29  O   UNL     1      -4.130  10.862  15.741  0.00  0.00    +0.000 OA
ATOM     30  C   UNL     1      -4.363  11.595  16.954  0.00  0.00    +0.000 C 
ATOM     31  C   UNL     1      -3.856  10.826  18.185  0.00  0.00    +0.000 C 
ENDBRANCH  20  26
ENDBRANCH  17  18
ENDBRANCH   2  17
TORSDOF 6
ENDMDL
MODEL 6
REMARK VINA RESULT:      -8.2      6.233     10.114
REMARK  Name = 
REMARK  6 active torsions:
REMARK  status: ('A' for Active; 'I' for Inactive)
REMARK    1  A    between atoms: C_2  and  C_3
REMARK    2  A    between atoms: C_3  and  C_4
REMARK    3  A    between atoms: C_6  and  N_7
REMARK    4  A    between atoms: N_17  and  C_18
REMARK    5  A    between atoms: C_22  and  O_23
REMARK    6  A    between atoms: O_23  and  C_24
REMARK                            x       y       z     vdW  Elec       q    Type
REMARK                         _______ _______ _______ _____ _____    ______ ____
ROOT
ATOM      1  O   UNL     1      -0.032   7.855  21.556  0.00  0.00    +0.000 OA
ATOM      2  C   UNL     1       0.871   8.509  21.041  0.00  0.00    +0.000 C 
ATOM      3  N   UNL     1       1.915   7.997  20.297  0.00  0.00    +0.000 N 
ATOM      4  H   UNL     1       2.534   8.678  19.860  0.00  0.00    +0.000 HD
ENDROOT
BRANCH   3   5
ATOM      5  C   UNL     1       2.138   6.639  19.977  0.00  0.00    +0.000 A 
ATOM      6  C   UNL     1       1.701   5.578  20.775  0.00  0.00    +0.000 A 
ATOM      7  C   UNL     1       1.919   4.258  20.380  0.00  0.00    +0.000 A 
ATOM      8  C   UNL     1       2.575   3.990  19.183  0.00  0.00    +0.000 A 
ATOM      9  C   UNL     1       3.049   5.037  18.389  0.00  0.00    +0.000 A 
ATOM     10  C   UNL     1       2.831   6.357  18.791  0.00  0.00    +0.000 A 
BRANCH   9  11
ATOM     11  O   UNL     1       3.664   4.650  17.230  0.00  0.00    +0.000 OA
BRANCH  11  12
ATOM     12  C   UNL     1       4.965   5.166  16.959  0.00  0.00    +0.000 C 
ATOM     13  C   UNL     1       6.028   4.543  17.859  0.00  0.00    +0.000 C 
ATOM     14  C   UNL     1       7.312   4.621  17.054  0.00  0.00    +0.000 C 
ATOM     15  C   UNL     1       6.893   4.522  15.593  0.00  0.00    +0.000 C 
ATOM     16  C   UNL     1       5.382   4.729  15.552  0.00  0.00    +0.000 C 
ENDBRANCH  11  12
ENDBRANCH   9  11
ENDBRANCH   3   5
BRANCH   2  17
ATOM     17  C   UNL     1       0.900  10.003  21.270  0.00  0.00    +0.000 C 
BRANCH  17  18
ATOM     18  C   UNL     1       0.178  10.878  20.282  0.00  0.00    +0.000 A 
ATOM     19  N   UNL     1      -0.814  10.414  19.591  0.00  0.00    +0.000 NA
ATOM     20  C   UNL     1      -1.376  11.207  18.609  0.00  0.00    +0.000 A 
ATOM     21  C   UNL     1      -0.931  12.459  18.397  0.00  0.00    +0.000 A 
ATOM     22  C   UNL     1       0.160  12.996  19.210  0.00  0.00    +0.000 A 
ATOM     23  O   UNL     1       0.587  14.135  19.051  0.00  0.00    +0.000 OA
ATOM     24  N   UNL     1       0.669  12.144  20.133  0.00  0.00    +0.000 N 
ATOM     25  H   UNL     1       1.427  12.502  20.696  0.00  0.00    +0.000 HD
BRANCH  20  26
ATOM     26  N   UNL     1      -2.418  10.699  17.829  0.00  0.00    +0.000 N 
ATOM     27  C   UNL     1      -2.185   9.924  16.598  0.00  0.00    +0.000 C 
ATOM     28  C   UNL     1      -2.860  10.593  15.394  0.00  0.00    +0.000 C 
ATOM     29  O   UNL     1      -4.263  10.797  15.628  0.00  0.00    +0.000 OA
ATOM     30  C   UNL     1      -4.453  11.633  16.779  0.00  0.00    +0.000 C 
ATOM     31  C   UNL     1      -3.851  10.998  18.044  0.00  0.00    +0.000 C 
ENDBRANCH  20  26
ENDBRANCH  17  18
ENDBRANCH   2  17
TORSDOF 6
ENDMDL
MODEL 7
REMARK VINA RESULT:      -8.2      2.351      3.449
REMARK  Name = 
REMARK  6 active torsions:
REMARK  status: ('A' for Active; 'I' for Inactive)
REMARK    1  A    between atoms: C_2  and  C_3
REMARK    2  A    between atoms: C_3  and  C_4
REMARK    3  A    between atoms: C_6  and  N_7
REMARK    4  A    between atoms: N_17  and  C_18
REMARK    5  A    between atoms: C_22  and  O_23
REMARK    6  A    between atoms: O_23  and  C_24
REMARK                            x       y       z     vdW  Elec       q    Type
REMARK                         _______ _______ _______ _____ _____    ______ ____
ROOT
ATOM      1  O   UNL     1       8.812   8.245  18.871  0.00  0.00    +0.000 OA
ATOM      2  C   UNL     1       8.219   8.996  18.101  0.00  0.00    +0.000 C 
ATOM      3  N   UNL     1       8.425  10.356  17.982  0.00  0.00    +0.000 N 
ATOM      4  H   UNL     1       7.918  10.826  17.233  0.00  0.00    +0.000 HD
ENDROOT
BRANCH   3   5
ATOM      5  C   UNL     1       9.355  11.137  18.706  0.00  0.00    +0.000 A 
ATOM      6  C   UNL     1       9.569  11.000  20.080  0.00  0.00    +0.000 A 
ATOM      7  C   UNL     1      10.532  11.775  20.727  0.00  0.00    +0.000 A 
ATOM      8  C   UNL     1      11.288  12.691  20.003  0.00  0.00    +0.000 A 
ATOM      9  C   UNL     1      11.065  12.865  18.636  0.00  0.00    +0.000 A 
ATOM     10  C   UNL     1      10.096  12.090  17.993  0.00  0.00    +0.000 A 
BRANCH   9  11
ATOM     11  O   UNL     1      11.879  13.782  18.029  0.00  0.00    +0.000 OA
BRANCH  11  12
ATOM     12  C   UNL     1      11.267  14.899  17.388  0.00  0.00    +0.000 C 
ATOM     13  C   UNL     1      10.231  15.576  18.280  0.00  0.00    +0.000 C 
ATOM     14  C   UNL     1      10.201  17.020  17.815  0.00  0.00    +0.000 C 
ATOM     15  C   UNL     1      11.607  17.323  17.314  0.00  0.00    +0.000 C 
ATOM     16  C   UNL     1      12.326  15.984  17.179  0.00  0.00    +0.000 C 
ENDBRANCH  11  12
ENDBRANCH   9  11
ENDBRANCH   3   5
BRANCH   2  17
ATOM     17  C   UNL     1       7.123   8.421  17.233  0.00  0.00    +0.000 C 
BRANCH  17  18
ATOM     18  C   UNL     1       6.727   6.988  17.461  0.00  0.00    +0.000 A 
ATOM     19  N   UNL     1       5.498   6.676  17.721  0.00  0.00    +0.000 NA
ATOM     20  C   UNL     1       5.190   5.368  18.043  0.00  0.00    +0.000 A 
ATOM     21  C   UNL     1       6.144   4.419  18.048  0.00  0.00    +0.000 A 
ATOM     22  C   UNL     1       7.525   4.766  17.710  0.00  0.00    +0.000 A 
ATOM     23  O   UNL     1       8.419   3.927  17.696  0.00  0.00    +0.000 OA
ATOM     24  N   UNL     1       7.742   6.075  17.431  0.00  0.00    +0.000 N 
ATOM     25  H   UNL     1       8.693   6.327  17.202  0.00  0.00    +0.000 HD
BRANCH  20  26
ATOM     26  N   UNL     1       3.874   5.031  18.367  0.00  0.00    +0.000 N 
ATOM     27  C   UNL     1       2.802   6.035  18.488  0.00  0.00    +0.000 C 
ATOM     28  C   UNL     1       2.167   5.992  19.883  0.00  0.00    +0.000 C 
ATOM     29  O   UNL     1       1.690   4.674  20.200  0.00  0.00    +0.000 OA
ATOM     30  C   UNL     1       2.776   3.736  20.164  0.00  0.00    +0.000 C 
ATOM     31  C   UNL     1       3.429   3.680  18.773  0.00  0.00    +0.000 C 
ENDBRANCH  20  26
ENDBRANCH  17  18
ENDBRANCH   2  17
TORSDOF 6
ENDMDL
MODEL 8
REMARK VINA RESULT:      -8.2      5.902     10.130
REMARK  Name = 
REMARK  6 active torsions:
REMARK  status: ('A' for Active; 'I' for Inactive)
REMARK    1  A    between atoms: C_2  and  C_3
REMARK    2  A    between atoms: C_3  and  C_4
REMARK    3  A    between atoms: C_6  and  N_7
REMARK    4  A    between atoms: N_17  and  C_18
REMARK    5  A    between atoms: C_22  and  O_23
REMARK    6  A    between atoms: O_23  and  C_24
REMARK                            x       y       z     vdW  Elec       q    Type
REMARK                         _______ _______ _______ _____ _____    ______ ____
ROOT
ATOM      1  O   UNL     1       2.186   7.780  19.371  0.00  0.00    +0.000 OA
ATOM      2  C   UNL     1       2.577   8.150  18.268  0.00  0.00    +0.000 C 
ATOM      3  N   UNL     1       3.471   7.476  17.460  0.00  0.00    +0.000 N 
ATOM      4  H   UNL     1       3.626   7.868  16.532  0.00  0.00    +0.000 HD
ENDROOT
BRANCH   3   5
ATOM      5  C   UNL     1       4.094   6.238  17.738  0.00  0.00    +0.000 A 
ATOM      6  C   UNL     1       5.438   6.117  18.101  0.00  0.00    +0.000 A 
ATOM      7  C   UNL     1       5.979   4.867  18.403  0.00  0.00    +0.000 A 
ATOM      8  C   UNL     1       5.180   3.730  18.343  0.00  0.00    +0.000 A 
ATOM      9  C   UNL     1       3.844   3.828  17.950  0.00  0.00    +0.000 A 
ATOM     10  C   UNL     1       3.307   5.081  17.646  0.00  0.00    +0.000 A 
BRANCH   9  11
ATOM     11  O   UNL     1       3.156   2.646  17.944  0.00  0.00    +0.000 OA
BRANCH  11  12
ATOM     12  C   UNL     1       2.425   2.291  19.116  0.00  0.00    +0.000 C 
ATOM     13  C   UNL     1       3.182   2.644  20.393  0.00  0.00    +0.000 C 
ATOM     14  C   UNL     1       2.101   2.871  21.434  0.00  0.00    +0.000 C 
ATOM     15  C   UNL     1       0.895   3.402  20.672  0.00  0.00    +0.000 C 
ATOM     16  C   UNL     1       1.167   3.160  19.191  0.00  0.00    +0.000 C 
ENDBRANCH  11  12
ENDBRANCH   9  11
ENDBRANCH   3   5
BRANCH   2  17
ATOM     17  C   UNL     1       2.097   9.485  17.743  0.00  0.00    +0.000 C 
BRANCH  17  18
ATOM     18  C   UNL     1       0.855  10.073  18.354  0.00  0.00    +0.000 A 
ATOM     19  N   UNL     1       0.907  10.686  19.494  0.00  0.00    +0.000 NA
ATOM     20  C   UNL     1      -0.269  11.109  20.082  0.00  0.00    +0.000 A 
ATOM     21  C   UNL     1      -1.451  10.926  19.466  0.00  0.00    +0.000 A 
ATOM     22  C   UNL     1      -1.502  10.273  18.157  0.00  0.00    +0.000 A 
ATOM     23  O   UNL     1      -2.560  10.096  17.562  0.00  0.00    +0.000 OA
ATOM     24  N   UNL     1      -0.306   9.869  17.665  0.00  0.00    +0.000 N 
ATOM     25  H   UNL     1      -0.330   9.412  16.764  0.00  0.00    +0.000 HD
BRANCH  20  26
ATOM     26  N   UNL     1      -0.227  11.733  21.331  0.00  0.00    +0.000 N 
ATOM     27  C   UNL     1      -0.775  11.110  22.550  0.00  0.00    +0.000 C 
ATOM     28  C   UNL     1      -1.850  12.001  23.184  0.00  0.00    +0.000 C 
ATOM     29  O   UNL     1      -1.347  13.320  23.450  0.00  0.00    +0.000 OA
ATOM     30  C   UNL     1      -0.908  13.934  22.228  0.00  0.00    +0.000 C 
ATOM     31  C   UNL     1       0.217  13.125  21.561  0.00  0.00    +0.000 C 
ENDBRANCH  20  26
ENDBRANCH  17  18
ENDBRANCH   2  17
TORSDOF 6
ENDMDL
MODEL 9
REMARK VINA RESULT:      -8.2      1.863      2.461
REMARK  Name = 
REMARK  6 active torsions:
REMARK  status: ('A' for Active; 'I' for Inactive)
REMARK    1  A    between atoms: C_2  and  C_3
REMARK    2  A    between atoms: C_3  and  C_4
REMARK    3  A    between atoms: C_6  and  N_7
REMARK    4  A    between atoms: N_17  and  C_18
REMARK    5  A    between atoms: C_22  and  O_23
REMARK    6  A    between atoms: O_23  and  C_24
REMARK                            x       y       z     vdW  Elec       q    Type
REMARK                         _______ _______ _______ _____ _____    ______ ____
ROOT
ATOM      1  O   UNL     1       7.860   8.914  17.078  0.00  0.00    +0.000 OA
ATOM      2  C   UNL     1       8.319   8.546  18.157  0.00  0.00    +0.000 C 
ATOM      3  N   UNL     1       9.097   9.309  19.004  0.00  0.00    +0.000 N 
ATOM      4  H   UNL     1       9.325   8.892  19.906  0.00  0.00    +0.000 HD
ENDROOT
BRANCH   3   5
ATOM      5  C   UNL     1       9.502  10.648  18.803  0.00  0.00    +0.000 A 
ATOM      6  C   UNL     1      10.457  11.030  17.857  0.00  0.00    +0.000 A 
ATOM      7  C   UNL     1      10.782  12.375  17.681  0.00  0.00    +0.000 A 
ATOM      8  C   UNL     1      10.153  13.349  18.451  0.00  0.00    +0.000 A 
ATOM      9  C   UNL     1       9.221  12.983  19.424  0.00  0.00    +0.000 A 
ATOM     10  C   UNL     1       8.902  11.634  19.599  0.00  0.00    +0.000 A 
BRANCH   9  11
ATOM     11  O   UNL     1       8.659  14.027  20.107  0.00  0.00    +0.000 OA
BRANCH  11  12
ATOM     12  C   UNL     1       7.784  14.899  19.395  0.00  0.00    +0.000 C 
ATOM     13  C   UNL     1       7.243  14.254  18.122  0.00  0.00    +0.000 C 
ATOM     14  C   UNL     1       5.905  14.929  17.884  0.00  0.00    +0.000 C 
ATOM     15  C   UNL     1       5.370  15.289  19.263  0.00  0.00    +0.000 C 
ATOM     16  C   UNL     1       6.530  15.133  20.242  0.00  0.00    +0.000 C 
ENDBRANCH  11  12
ENDBRANCH   9  11
ENDBRANCH   3   5
BRANCH   2  17
ATOM     17  C   UNL     1       8.073   7.121  18.598  0.00  0.00    +0.000 C 
BRANCH  17  18
ATOM     18  C   UNL     1       7.167   6.271  17.750  0.00  0.00    +0.000 A 
ATOM     19  N   UNL     1       6.155   5.658  18.275  0.00  0.00    +0.000 NA
ATOM     20  C   UNL     1       5.414   4.793  17.494  0.00  0.00    +0.000 A 
ATOM     21  C   UNL     1       5.711   4.616  16.193  0.00  0.00    +0.000 A 
ATOM     22  C   UNL     1       6.828   5.344  15.591  0.00  0.00    +0.000 A 
ATOM     23  O   UNL     1       7.123   5.215  14.408  0.00  0.00    +0.000 OA
ATOM     24  N   UNL     1       7.515   6.153  16.435  0.00  0.00    +0.000 N 
ATOM     25  H   UNL     1       8.292   6.656  16.031  0.00  0.00    +0.000 HD
BRANCH  20  26
ATOM     26  N   UNL     1       4.347   4.094  18.063  0.00  0.00    +0.000 N 
ATOM     27  C   UNL     1       3.150   3.706  17.294  0.00  0.00    +0.000 C 
ATOM     28  C   UNL     1       1.881   4.293  17.923  0.00  0.00    +0.000 C 
ATOM     29  O   UNL     1       1.761   3.919  19.306  0.00  0.00    +0.000 OA
ATOM     30  C   UNL     1       2.898   4.394  20.044  0.00  0.00    +0.000 C 
ATOM     31  C   UNL     1       4.210   3.799  19.505  0.00  0.00    +0.000 C 
ENDBRANCH  20  26
ENDBRANCH  17  18
ENDBRANCH   2  17
TORSDOF 6
ENDMDL
