MODEL 1
REMARK VINA RESULT:      -5.5      0.000      0.000
REMARK  Name = 
REMARK  8 active torsions:
REMARK  status: ('A' for Active; 'I' for Inactive)
REMARK    1  A    between atoms: O_1  and  C_2
REMARK    2  A    between atoms: C_2  and  C_3
REMARK    3  A    between atoms: C_3  and  O_4
REMARK    4  A    between atoms: C_3  and  C_5
REMARK    5  A    between atoms: CA_7  and  C_8
REMARK    6  A    between atoms: C_8  and  O_9
REMARK    7  A    between atoms: C_10  and  O_11
REMARK    8  A    between atoms: C_12  and  O_13
REMARK                            x       y       z     vdW  Elec       q    Type
REMARK                         _______ _______ _______ _____ _____    ______ ____
ROOT
ATOM      1  C   UNL     1       5.939   4.643  17.851  0.00  0.00    +0.000 C 
ATOM      2  N   UNL     1       5.742   3.578  18.879  0.00  0.00    +0.000 NA
ATOM      3  CA  UNL     1       4.348   3.717  19.381  0.00  0.00    +0.000 C 
ATOM      4  C   UNL     1       3.704   4.878  18.621  0.00  0.00    +0.000 C 
ATOM      5  C   UNL     1       4.913   5.722  18.221  0.00  0.00    +0.000 C 
ATOM      6  H   UNL     1       6.392   3.782  19.648  0.00  0.00    +0.000 HD
ENDROOT
BRANCH   4   7
ATOM      7  O   UNL     1       2.776   5.603  19.422  0.00  0.00    +0.000 OA
ATOM      8  H   UNL     1       2.472   6.380  18.922  0.00  0.00    +0.000 HD
ENDBRANCH   4   7
BRANCH   5   9
ATOM      9  O   UNL     1       4.613   6.616  17.159  0.00  0.00    +0.000 OA
ATOM     10  H   UNL     1       5.406   6.704  16.599  0.00  0.00    +0.000 HD
ENDBRANCH   5   9
BRANCH   1  11
ATOM     11  C   UNL     1       7.404   5.139  17.823  0.00  0.00    +0.000 C 
BRANCH  11  12
ATOM     12  O   UNL     1       8.303   4.019  17.778  0.00  0.00    +0.000 OA
ATOM     13  H   UNL     1       7.823   3.259  17.406  0.00  0.00    +0.000 HD
ENDBRANCH  11  12
BRANCH  11  14
ATOM     14  C   UNL     1       7.772   6.079  18.981  0.00  0.00    +0.000 C 
BRANCH  14  15
ATOM     15  O   UNL     1       7.831   5.382  20.216  0.00  0.00    +0.000 OA
ATOM     16  H   UNL     1       8.376   5.921  20.817  0.00  0.00    +0.000 HD
ENDBRANCH  14  15
ENDBRANCH  11  14
ENDBRANCH   1  11
BRANCH   3  17
ATOM     17  C   UNL     1       3.567   2.410  19.192  0.00  0.00    +0.000 C 
BRANCH  17  18
ATOM     18  O   UNL     1       4.194   1.614  18.192  0.00  0.00    +0.000 OA
ATOM     19  H   UNL     1       4.897   2.185  17.825  0.00  0.00    +0.000 HD
ENDBRANCH  17  18
ENDBRANCH   3  17
TORSDOF 8
ENDMDL
MODEL 2
REMARK VINA RESULT:      -5.5      2.717      4.420
REMARK  Name = 
REMARK  8 active torsions:
REMARK  status: ('A' for Active; 'I' for Inactive)
REMARK    1  A    between atoms: O_1  and  C_2
REMARK    2  A    between atoms: C_2  and  C_3
REMARK    3  A    between atoms: C_3  and  O_4
REMARK    4  A    between atoms: C_3  and  C_5
REMARK    5  A    between atoms: CA_7  and  C_8
REMARK    6  A    between atoms: C_8  and  O_9
REMARK    7  A    between atoms: C_10  and  O_11
REMARK    8  A    between atoms: C_12  and  O_13
REMARK                            x       y       z     vdW  Elec       q    Type
REMARK                         _______ _______ _______ _____ _____    ______ ____
ROOT
ATOM      1  C   UNL     1       5.711   3.986  17.097  0.00  0.00    +0.000 C 
ATOM      2  N   UNL     1       4.763   4.384  16.014  0.00  0.00    +0.000 NA
ATOM      3  CA  UNL     1       5.590   4.755  14.834  0.00  0.00    +0.000 C 
ATOM      4  C   UNL     1       7.055   4.554  15.222  0.00  0.00    +0.000 C 
ATOM      5  C   UNL     1       7.017   4.707  16.742  0.00  0.00    +0.000 C 
ATOM      6  H   UNL     1       4.267   5.222  16.346  0.00  0.00    +0.000 HD
ENDROOT
BRANCH   4   7
ATOM      7  O   UNL     1       7.917   5.502  14.602  0.00  0.00    +0.000 OA
ATOM      8  H   UNL     1       7.650   5.607  13.672  0.00  0.00    +0.000 HD
ENDBRANCH   4   7
BRANCH   5   9
ATOM      9  O   UNL     1       8.166   4.151  17.365  0.00  0.00    +0.000 OA
ATOM     10  H   UNL     1       8.926   4.733  17.182  0.00  0.00    +0.000 HD
ENDBRANCH   5   9
BRANCH   1  11
ATOM     11  C   UNL     1       5.150   4.332  18.497  0.00  0.00    +0.000 C 
BRANCH  11  12
ATOM     12  O   UNL     1       6.221   4.713  19.377  0.00  0.00    +0.000 OA
ATOM     13  H   UNL     1       6.807   3.945  19.491  0.00  0.00    +0.000 HD
ENDBRANCH  11  12
BRANCH  11  14
ATOM     14  C   UNL     1       4.304   3.217  19.129  0.00  0.00    +0.000 C 
BRANCH  14  15
ATOM     15  O   UNL     1       5.118   2.259  19.790  0.00  0.00    +0.000 OA
ATOM     16  H   UNL     1       5.613   2.738  20.479  0.00  0.00    +0.000 HD
ENDBRANCH  14  15
ENDBRANCH  11  14
ENDBRANCH   1  11
BRANCH   3  17
ATOM     17  C   UNL     1       5.204   3.912  13.612  0.00  0.00    +0.000 C 
BRANCH  17  18
ATOM     18  O   UNL     1       6.364   3.285  13.072  0.00  0.00    +0.000 OA
ATOM     19  H   UNL     1       6.166   2.329  13.104  0.00  0.00    +0.000 HD
ENDBRANCH  17  18
ENDBRANCH   3  17
TORSDOF 8
ENDMDL
MODEL 3
REMARK VINA RESULT:      -5.5      1.684      4.331
REMARK  Name = 
REMARK  8 active torsions:
REMARK  status: ('A' for Active; 'I' for Inactive)
REMARK    1  A    between atoms: O_1  and  C_2
REMARK    2  A    between atoms: C_2  and  C_3
REMARK    3  A    between atoms: C_3  and  O_4
REMARK    4  A    between atoms: C_3  and  C_5
REMARK    5  A    between atoms: CA_7  and  C_8
REMARK    6  A    between atoms: C_8  and  O_9
REMARK    7  A    between atoms: C_10  and  O_11
REMARK    8  A    between atoms: C_12  and  O_13
REMARK                            x       y       z     vdW  Elec       q    Type
REMARK                         _______ _______ _______ _____ _____    ______ ____
ROOT
ATOM      1  C   UNL     1       4.890   4.026  17.810  0.00  0.00    +0.000 C 
ATOM      2  N   UNL     1       6.006   4.047  18.802  0.00  0.00    +0.000 NA
ATOM      3  CA  UNL     1       7.192   4.612  18.103  0.00  0.00    +0.000 C 
ATOM      4  C   UNL     1       6.762   4.948  16.674  0.00  0.00    +0.000 C 
ATOM      5  C   UNL     1       5.593   3.989  16.448  0.00  0.00    +0.000 C 
ATOM      6  H   UNL     1       6.204   3.069  19.049  0.00  0.00    +0.000 HD
ENDROOT
BRANCH   4   7
ATOM      7  O   UNL     1       7.811   4.758  15.731  0.00  0.00    +0.000 OA
ATOM      8  H   UNL     1       8.015   3.808  15.677  0.00  0.00    +0.000 HD
ENDBRANCH   4   7
BRANCH   5   9
ATOM      9  O   UNL     1       4.769   4.397  15.365  0.00  0.00    +0.000 OA
ATOM     10  H   UNL     1       4.307   3.611  15.019  0.00  0.00    +0.000 HD
ENDBRANCH   5   9
BRANCH   1  11
ATOM     11  C   UNL     1       3.929   2.840  18.064  0.00  0.00    +0.000 C 
BRANCH  11  12
ATOM     12  O   UNL     1       2.628   3.135  17.529  0.00  0.00    +0.000 OA
ATOM     13  H   UNL     1       2.479   2.559  16.759  0.00  0.00    +0.000 HD
ENDBRANCH  11  12
BRANCH  11  14
ATOM     14  C   UNL     1       3.822   2.423  19.539  0.00  0.00    +0.000 C 
BRANCH  14  15
ATOM     15  O   UNL     1       4.975   1.709  19.961  0.00  0.00    +0.000 OA
ATOM     16  H   UNL     1       4.705   1.159  20.717  0.00  0.00    +0.000 HD
ENDBRANCH  14  15
ENDBRANCH  11  14
ENDBRANCH   1  11
BRANCH   3  17
ATOM     17  C   UNL     1       7.723   5.848  18.842  0.00  0.00    +0.000 C 
BRANCH  17  18
ATOM     18  O   UNL     1       7.887   5.549  20.225  0.00  0.00    +0.000 OA
ATOM     19  H   UNL     1       8.833   5.712  20.403  0.00  0.00    +0.000 HD
ENDBRANCH  17  18
ENDBRANCH   3  17
TORSDOF 8
ENDMDL
MODEL 4
REMARK VINA RESULT:      -5.4      2.557      3.797
REMARK  Name = 
REMARK  8 active torsions:
REMARK  status: ('A' for Active; 'I' for Inactive)
REMARK    1  A    between atoms: O_1  and  C_2
REMARK    2  A    between atoms: C_2  and  C_3
REMARK    3  A    between atoms: C_3  and  O_4
REMARK    4  A    between atoms: C_3  and  C_5
REMARK    5  A    between atoms: CA_7  and  C_8
REMARK    6  A    between atoms: C_8  and  O_9
REMARK    7  A    between atoms: C_10  and  O_11
REMARK    8  A    between atoms: C_12  and  O_13
REMARK                            x       y       z     vdW  Elec       q    Type
REMARK                         _______ _______ _______ _____ _____    ______ ____
ROOT
ATOM      1  C   UNL     1       6.173   4.995  16.334  0.00  0.00    +0.000 C 
ATOM      2  N   UNL     1       5.437   3.918  17.061  0.00  0.00    +0.000 NA
ATOM      3  CA  UNL     1       5.548   4.225  18.513  0.00  0.00    +0.000 C 
ATOM      4  C   UNL     1       6.351   5.520  18.644  0.00  0.00    +0.000 C 
ATOM      5  C   UNL     1       7.181   5.525  17.361  0.00  0.00    +0.000 C 
ATOM      6  H   UNL     1       5.933   3.037  16.871  0.00  0.00    +0.000 HD
ENDROOT
BRANCH   4   7
ATOM      7  O   UNL     1       7.161   5.542  19.815  0.00  0.00    +0.000 OA
ATOM      8  H   UNL     1       6.597   5.367  20.589  0.00  0.00    +0.000 HD
ENDBRANCH   4   7
BRANCH   5   9
ATOM      9  O   UNL     1       7.686   6.817  17.055  0.00  0.00    +0.000 OA
ATOM     10  H   UNL     1       6.942   7.446  17.059  0.00  0.00    +0.000 HD
ENDBRANCH   5   9
BRANCH   1  11
ATOM     11  C   UNL     1       6.812   4.462  15.029  0.00  0.00    +0.000 C 
BRANCH  11  12
ATOM     12  O   UNL     1       7.728   5.433  14.496  0.00  0.00    +0.000 OA
ATOM     13  H   UNL     1       7.338   6.317  14.618  0.00  0.00    +0.000 HD
ENDBRANCH  11  12
BRANCH  11  14
ATOM     14  C   UNL     1       5.794   4.038  13.959  0.00  0.00    +0.000 C 
BRANCH  14  15
ATOM     15  O   UNL     1       6.383   3.179  12.994  0.00  0.00    +0.000 OA
ATOM     16  H   UNL     1       5.935   2.318  13.072  0.00  0.00    +0.000 HD
ENDBRANCH  14  15
ENDBRANCH  11  14
ENDBRANCH   1  11
BRANCH   3  17
ATOM     17  C   UNL     1       4.159   4.350  19.151  0.00  0.00    +0.000 C 
BRANCH  17  18
ATOM     18  O   UNL     1       4.064   5.580  19.863  0.00  0.00    +0.000 OA
ATOM     19  H   UNL     1       3.428   6.115  19.350  0.00  0.00    +0.000 HD
ENDBRANCH  17  18
ENDBRANCH   3  17
TORSDOF 8
ENDMDL
MODEL 5
REMARK VINA RESULT:      -5.4      1.712      4.233
REMARK  Name = 
REMARK  8 active torsions:
REMARK  status: ('A' for Active; 'I' for Inactive)
REMARK    1  A    between atoms: O_1  and  C_2
REMARK    2  A    between atoms: C_2  and  C_3
REMARK    3  A    between atoms: C_3  and  O_4
REMARK    4  A    between atoms: C_3  and  C_5
REMARK    5  A    between atoms: CA_7  and  C_8
REMARK    6  A    between atoms: C_8  and  O_9
REMARK    7  A    between atoms: C_10  and  O_11
REMARK    8  A    between atoms: C_12  and  O_13
REMARK                            x       y       z     vdW  Elec       q    Type
REMARK                         _______ _______ _______ _____ _____    ______ ____
ROOT
ATOM      1  C   UNL     1       4.660   3.987  18.941  0.00  0.00    +0.000 C 
ATOM      2  N   UNL     1       6.131   3.895  18.700  0.00  0.00    +0.000 NA
ATOM      3  CA  UNL     1       6.422   4.720  17.496  0.00  0.00    +0.000 C 
ATOM      4  C   UNL     1       5.098   5.326  17.028  0.00  0.00    +0.000 C 
ATOM      5  C   UNL     1       4.071   4.331  17.567  0.00  0.00    +0.000 C 
ATOM      6  H   UNL     1       6.337   2.911  18.484  0.00  0.00    +0.000 HD
ENDROOT
BRANCH   4   7
ATOM      7  O   UNL     1       5.033   5.460  15.612  0.00  0.00    +0.000 OA
ATOM      8  H   UNL     1       4.496   6.242  15.396  0.00  0.00    +0.000 HD
ENDBRANCH   4   7
BRANCH   5   9
ATOM      9  O   UNL     1       2.766   4.887  17.626  0.00  0.00    +0.000 OA
ATOM     10  H   UNL     1       2.185   4.259  18.093  0.00  0.00    +0.000 HD
ENDBRANCH   5   9
BRANCH   1  11
ATOM     11  C   UNL     1       4.106   2.684  19.566  0.00  0.00    +0.000 C 
BRANCH  11  12
ATOM     12  O   UNL     1       5.164   1.960  20.215  0.00  0.00    +0.000 OA
ATOM     13  H   UNL     1       4.803   1.113  20.530  0.00  0.00    +0.000 HD
ENDBRANCH  11  12
BRANCH  11  14
ATOM     14  C   UNL     1       3.363   1.778  18.572  0.00  0.00    +0.000 C 
BRANCH  14  15
ATOM     15  O   UNL     1       4.107   0.604  18.284  0.00  0.00    +0.000 OA
ATOM     16  H   UNL     1       4.530   0.326  19.116  0.00  0.00    +0.000 HD
ENDBRANCH  14  15
ENDBRANCH  11  14
ENDBRANCH   1  11
BRANCH   3  17
ATOM     17  C   UNL     1       7.461   5.803  17.816  0.00  0.00    +0.000 C 
BRANCH  17  18
ATOM     18  O   UNL     1       7.608   6.675  16.699  0.00  0.00    +0.000 OA
ATOM     19  H   UNL     1       7.103   7.475  16.941  0.00  0.00    +0.000 HD
ENDBRANCH  17  18
ENDBRANCH   3  17
TORSDOF 8
ENDMDL
MODEL 6
REMARK VINA RESULT:      -5.4      1.443      3.994
REMARK  Name = 
REMARK  8 active torsions:
REMARK  status: ('A' for Active; 'I' for Inactive)
REMARK    1  A    between atoms: O_1  and  C_2
REMARK    2  A    between atoms: C_2  and  C_3
REMARK    3  A    between atoms: C_3  and  O_4
REMARK    4  A    between atoms: C_3  and  C_5
REMARK    5  A    between atoms: CA_7  and  C_8
REMARK    6  A    between atoms: C_8  and  O_9
REMARK    7  A    between atoms: C_10  and  O_11
REMARK    8  A    between atoms: C_12  and  O_13
REMARK                            x       y       z     vdW  Elec       q    Type
REMARK                         _______ _______ _______ _____ _____    ______ ____
ROOT
ATOM      1  C   UNL     1       4.905   4.343  18.567  0.00  0.00    +0.000 C 
ATOM      2  N   UNL     1       6.378   4.108  18.650  0.00  0.00    +0.000 NA
ATOM      3  CA  UNL     1       7.038   5.297  18.046  0.00  0.00    +0.000 C 
ATOM      4  C   UNL     1       5.932   6.261  17.614  0.00  0.00    +0.000 C 
ATOM      5  C   UNL     1       4.743   5.326  17.401  0.00  0.00    +0.000 C 
ATOM      6  H   UNL     1       6.582   3.286  18.067  0.00  0.00    +0.000 HD
ENDROOT
BRANCH   4   7
ATOM      7  O   UNL     1       6.271   6.985  16.436  0.00  0.00    +0.000 OA
ATOM      8  H   UNL     1       5.656   7.732  16.339  0.00  0.00    +0.000 HD
ENDBRANCH   4   7
BRANCH   5   9
ATOM      9  O   UNL     1       3.505   6.022  17.407  0.00  0.00    +0.000 OA
ATOM     10  H   UNL     1       3.198   6.094  18.329  0.00  0.00    +0.000 HD
ENDBRANCH   5   9
BRANCH   1  11
ATOM     11  C   UNL     1       4.129   3.015  18.396  0.00  0.00    +0.000 C 
BRANCH  11  12
ATOM     12  O   UNL     1       2.848   3.266  17.795  0.00  0.00    +0.000 OA
ATOM     13  H   UNL     1       2.332   2.442  17.825  0.00  0.00    +0.000 HD
ENDBRANCH  11  12
BRANCH  11  14
ATOM     14  C   UNL     1       3.968   2.210  19.694  0.00  0.00    +0.000 C 
BRANCH  14  15
ATOM     15  O   UNL     1       5.221   1.754  20.182  0.00  0.00    +0.000 OA
ATOM     16  H   UNL     1       5.040   1.243  20.991  0.00  0.00    +0.000 HD
ENDBRANCH  14  15
ENDBRANCH  11  14
ENDBRANCH   1  11
BRANCH   3  17
ATOM     17  C   UNL     1       8.004   5.950  19.044  0.00  0.00    +0.000 C 
BRANCH  17  18
ATOM     18  O   UNL     1       7.783   5.420  20.347  0.00  0.00    +0.000 OA
ATOM     19  H   UNL     1       8.268   6.021  20.945  0.00  0.00    +0.000 HD
ENDBRANCH  17  18
ENDBRANCH   3  17
TORSDOF 8
ENDMDL
MODEL 7
REMARK VINA RESULT:      -5.4      1.284      3.957
REMARK  Name = 
REMARK  8 active torsions:
REMARK  status: ('A' for Active; 'I' for Inactive)
REMARK    1  A    between atoms: O_1  and  C_2
REMARK    2  A    between atoms: C_2  and  C_3
REMARK    3  A    between atoms: C_3  and  O_4
REMARK    4  A    between atoms: C_3  and  C_5
REMARK    5  A    between atoms: CA_7  and  C_8
REMARK    6  A    between atoms: C_8  and  O_9
REMARK    7  A    between atoms: C_10  and  O_11
REMARK    8  A    between atoms: C_12  and  O_13
REMARK                            x       y       z     vdW  Elec       q    Type
REMARK                         _______ _______ _______ _____ _____    ______ ____
ROOT
ATOM      1  C   UNL     1       4.941   3.881  19.317  0.00  0.00    +0.000 C 
ATOM      2  N   UNL     1       5.701   3.589  18.065  0.00  0.00    +0.000 NA
ATOM      3  CA  UNL     1       5.693   4.837  17.256  0.00  0.00    +0.000 C 
ATOM      4  C   UNL     1       4.928   5.893  18.055  0.00  0.00    +0.000 C 
ATOM      5  C   UNL     1       4.015   5.042  18.936  0.00  0.00    +0.000 C 
ATOM      6  H   UNL     1       5.175   2.864  17.559  0.00  0.00    +0.000 HD
ENDROOT
BRANCH   4   7
ATOM      7  O   UNL     1       4.198   6.785  17.218  0.00  0.00    +0.000 OA
ATOM      8  H   UNL     1       3.411   6.324  16.879  0.00  0.00    +0.000 HD
ENDBRANCH   4   7
BRANCH   5   9
ATOM      9  O   UNL     1       3.518   5.769  20.051  0.00  0.00    +0.000 OA
ATOM     10  H   UNL     1       3.700   6.715  19.906  0.00  0.00    +0.000 HD
ENDBRANCH   5   9
BRANCH   1  11
ATOM     11  C   UNL     1       4.206   2.623  19.840  0.00  0.00    +0.000 C 
BRANCH  11  12
ATOM     12  O   UNL     1       5.150   1.704  20.415  0.00  0.00    +0.000 OA
ATOM     13  H   UNL     1       4.799   0.803  20.308  0.00  0.00    +0.000 HD
ENDBRANCH  11  12
BRANCH  11  14
ATOM     14  C   UNL     1       3.341   1.917  18.785  0.00  0.00    +0.000 C 
BRANCH  14  15
ATOM     15  O   UNL     1       3.988   0.763  18.270  0.00  0.00    +0.000 OA
ATOM     16  H   UNL     1       4.247   0.220  19.036  0.00  0.00    +0.000 HD
ENDBRANCH  14  15
ENDBRANCH  11  14
ENDBRANCH   1  11
BRANCH   3  17
ATOM     17  C   UNL     1       7.124   5.291  16.939  0.00  0.00    +0.000 C 
BRANCH  17  18
ATOM     18  O   UNL     1       8.032   4.219  17.170  0.00  0.00    +0.000 OA
ATOM     19  H   UNL     1       8.015   3.696  16.345  0.00  0.00    +0.000 HD
ENDBRANCH  17  18
ENDBRANCH   3  17
TORSDOF 8
ENDMDL
MODEL 8
REMARK VINA RESULT:      -5.4      1.974      4.273
REMARK  Name = 
REMARK  8 active torsions:
REMARK  status: ('A' for Active; 'I' for Inactive)
REMARK    1  A    between atoms: O_1  and  C_2
REMARK    2  A    between atoms: C_2  and  C_3
REMARK    3  A    between atoms: C_3  and  O_4
REMARK    4  A    between atoms: C_3  and  C_5
REMARK    5  A    between atoms: CA_7  and  C_8
REMARK    6  A    between atoms: C_8  and  O_9
REMARK    7  A    between atoms: C_10  and  O_11
REMARK    8  A    between atoms: C_12  and  O_13
REMARK                            x       y       z     vdW  Elec       q    Type
REMARK                         _______ _______ _______ _____ _____    ______ ____
ROOT
ATOM      1  C   UNL     1       5.272   4.379  18.206  0.00  0.00    +0.000 C 
ATOM      2  N   UNL     1       4.921   4.558  16.766  0.00  0.00    +0.000 NA
ATOM      3  CA  UNL     1       5.985   5.407  16.166  0.00  0.00    +0.000 C 
ATOM      4  C   UNL     1       6.995   5.722  17.271  0.00  0.00    +0.000 C 
ATOM      5  C   UNL     1       6.148   5.593  18.537  0.00  0.00    +0.000 C 
ATOM      6  H   UNL     1       4.032   5.073  16.738  0.00  0.00    +0.000 HD
ENDROOT
BRANCH   4   7
ATOM      7  O   UNL     1       7.569   7.016  17.130  0.00  0.00    +0.000 OA
ATOM      8  H   UNL     1       8.359   6.949  16.566  0.00  0.00    +0.000 HD
ENDBRANCH   4   7
BRANCH   5   9
ATOM      9  O   UNL     1       6.946   5.426  19.700  0.00  0.00    +0.000 OA
ATOM     10  H   UNL     1       6.472   4.836  20.315  0.00  0.00    +0.000 HD
ENDBRANCH   5   9
BRANCH   1  11
ATOM     11  C   UNL     1       4.006   4.247  19.086  0.00  0.00    +0.000 C 
BRANCH  11  12
ATOM     12  O   UNL     1       3.901   5.373  19.973  0.00  0.00    +0.000 OA
ATOM     13  H   UNL     1       3.119   5.891  19.715  0.00  0.00    +0.000 HD
ENDBRANCH  11  12
BRANCH  11  14
ATOM     14  C   UNL     1       3.923   2.930  19.874  0.00  0.00    +0.000 C 
BRANCH  14  15
ATOM     15  O   UNL     1       5.143   2.207  19.805  0.00  0.00    +0.000 OA
ATOM     16  H   UNL     1       5.861   2.865  19.805  0.00  0.00    +0.000 HD
ENDBRANCH  14  15
ENDBRANCH  11  14
ENDBRANCH   1  11
BRANCH   3  17
ATOM     17  C   UNL     1       6.646   4.696  14.978  0.00  0.00    +0.000 C 
BRANCH  17  18
ATOM     18  O   UNL     1       7.782   5.436  14.544  0.00  0.00    +0.000 OA
ATOM     19  H   UNL     1       8.421   4.758  14.248  0.00  0.00    +0.000 HD
ENDBRANCH  17  18
ENDBRANCH   3  17
TORSDOF 8
ENDMDL
MODEL 9
REMARK VINA RESULT:      -5.3      2.095      3.053
REMARK  Name = 
REMARK  8 active torsions:
REMARK  status: ('A' for Active; 'I' for Inactive)
REMARK    1  A    between atoms: O_1  and  C_2
REMARK    2  A    between atoms: C_2  and  C_3
REMARK    3  A    between atoms: C_3  and  O_4
REMARK    4  A    between atoms: C_3  and  C_5
REMARK    5  A    between atoms: CA_7  and  C_8
REMARK    6  A    between atoms: C_8  and  O_9
REMARK    7  A    between atoms: C_10  and  O_11
REMARK    8  A    between atoms: C_12  and  O_13
REMARK                            x       y       z     vdW  Elec       q    Type
REMARK                         _______ _______ _______ _____ _____    ______ ____
ROOT
ATOM      1  C   UNL     1       5.033   5.048  17.417  0.00  0.00    +0.000 C 
ATOM      2  N   UNL     1       4.218   4.016  16.709  0.00  0.00    +0.000 NA
ATOM      3  CA  UNL     1       3.914   2.951  17.703  0.00  0.00    +0.000 C 
ATOM      4  C   UNL     1       4.549   3.372  19.030  0.00  0.00    +0.000 C 
ATOM      5  C   UNL     1       5.686   4.286  18.576  0.00  0.00    +0.000 C 
ATOM      6  H   UNL     1       4.814   3.619  15.972  0.00  0.00    +0.000 HD
ENDROOT
BRANCH   4   7
ATOM      7  O   UNL     1       5.013   2.260  19.787  0.00  0.00    +0.000 OA
ATOM      8  H   UNL     1       4.655   2.324  20.690  0.00  0.00    +0.000 HD
ENDBRANCH   4   7
BRANCH   5   9
ATOM      9  O   UNL     1       6.150   5.124  19.625  0.00  0.00    +0.000 OA
ATOM     10  H   UNL     1       5.462   5.789  19.813  0.00  0.00    +0.000 HD
ENDBRANCH   5   9
BRANCH   1  11
ATOM     11  C   UNL     1       6.035   5.734  16.458  0.00  0.00    +0.000 C 
BRANCH  11  12
ATOM     12  O   UNL     1       5.338   6.623  15.569  0.00  0.00    +0.000 OA
ATOM     13  H   UNL     1       5.103   7.426  16.066  0.00  0.00    +0.000 HD
ENDBRANCH  11  12
BRANCH  11  14
ATOM     14  C   UNL     1       6.913   4.756  15.663  0.00  0.00    +0.000 C 
BRANCH  14  15
ATOM     15  O   UNL     1       7.701   5.434  14.696  0.00  0.00    +0.000 OA
ATOM     16  H   UNL     1       8.469   4.865  14.509  0.00  0.00    +0.000 HD
ENDBRANCH  14  15
ENDBRANCH  11  14
ENDBRANCH   1  11
BRANCH   3  17
ATOM     17  C   UNL     1       2.400   2.745  17.836  0.00  0.00    +0.000 C 
BRANCH  17  18
ATOM     18  O   UNL     1       2.138   1.588  18.625  0.00  0.00    +0.000 OA
ATOM     19  H   UNL     1       2.977   1.413  19.094  0.00  0.00    +0.000 HD
ENDBRANCH  17  18
ENDBRANCH   3  17
TORSDOF 8
ENDMDL
