MODEL 1
REMARK VINA RESULT:      -7.7      0.000      0.000
REMARK  Name = 
REMARK  7 active torsions:
REMARK  status: ('A' for Active; 'I' for Inactive)
REMARK    1  A    between atoms: C_1  and  N_2
REMARK    2  A    between atoms: N_7  and  C_8
REMARK    3  A    between atoms: C_8  and  C_9
REMARK    4  A    between atoms: C_9  and  S_10
REMARK    5  A    between atoms: S_10  and  C_11
REMARK    6  A    between atoms: N_13  and  C_14
REMARK    7  A    between atoms: C_14  and  C_15
REMARK                            x       y       z     vdW  Elec       q    Type
REMARK                         _______ _______ _______ _____ _____    ______ ____
ROOT
ATOM      1  C   UNL     1       3.373   6.429  18.001  0.00  0.00    +0.000 A 
ATOM      2  C   UNL     1       4.689   6.425  17.603  0.00  0.00    +0.000 A 
ATOM      3  N   UNL     1       5.068   5.116  17.425  0.00  0.00    +0.000 N 
ATOM      4  C   UNL     1       3.989   4.277  17.629  0.00  0.00    +0.000 A 
ATOM      5  C   UNL     1       3.873   2.879  17.528  0.00  0.00    +0.000 A 
ATOM      6  C   UNL     1       2.628   2.300  17.793  0.00  0.00    +0.000 A 
ATOM      7  C   UNL     1       1.539   3.083  18.158  0.00  0.00    +0.000 A 
ATOM      8  C   UNL     1       1.664   4.471  18.269  0.00  0.00    +0.000 A 
ATOM      9  C   UNL     1       2.905   5.086  17.998  0.00  0.00    +0.000 A 
ENDROOT
BRANCH   1  10
ATOM     10  S   UNL     1       2.432   7.855  18.381  0.00  0.00    +0.000 S 
BRANCH  10  11
ATOM     11  C   UNL     1       1.869   7.484  20.083  0.00  0.00    +0.000 C 
BRANCH  11  12
ATOM     12  C   UNL     1       1.383   8.739  20.806  0.00  0.00    +0.000 C 
BRANCH  12  19
ATOM     13  C   UNL     1      -1.028  11.596  18.422  0.00  0.00    +0.000 C 
ATOM     14  N   UNL     1      -0.989  11.345  19.838  0.00  0.00    +0.000 N 
ATOM     15  C   UNL     1      -1.802  12.097  20.769  0.00  0.00    +0.000 C 
ATOM     16  C   UNL     1      -0.935  12.104  22.021  0.00  0.00    +0.000 C 
ATOM     17  C   UNL     1      -0.146  10.795  21.963  0.00  0.00    +0.000 C 
ATOM     18  C   UNL     1      -0.110  10.500  20.470  0.00  0.00    +0.000 C 
ATOM     19  N   UNL     1       0.607   9.594  19.896  0.00  0.00    +0.000 NA
ENDBRANCH  12  19
ENDBRANCH  11  12
ENDBRANCH  10  11
ENDBRANCH   1  10
BRANCH   3  20
ATOM     20  C   UNL     1       6.418   4.697  17.058  0.00  0.00    +0.000 C 
BRANCH  20  21
ATOM     21  C   UNL     1       6.560   4.564  15.585  0.00  0.00    +0.000 A 
ATOM     22  C   UNL     1       5.928   3.806  14.617  0.00  0.00    +0.000 A 
ATOM     23  C   UNL     1       6.543   4.133  13.384  0.00  0.00    +0.000 A 
ATOM     24  C   UNL     1       7.493   5.083  13.671  0.00  0.00    +0.000 A 
ATOM     25  O   UNL     1       7.509   5.354  15.001  0.00  0.00    +0.000 OA
ENDBRANCH  20  21
ENDBRANCH   3  20
TORSDOF 6
ENDMDL
MODEL 2
REMARK VINA RESULT:      -7.6      1.002      1.403
REMARK  Name = 
REMARK  7 active torsions:
REMARK  status: ('A' for Active; 'I' for Inactive)
REMARK    1  A    between atoms: C_1  and  N_2
REMARK    2  A    between atoms: N_7  and  C_8
REMARK    3  A    between atoms: C_8  and  C_9
REMARK    4  A    between atoms: C_9  and  S_10
REMARK    5  A    between atoms: S_10  and  C_11
REMARK    6  A    between atoms: N_13  and  C_14
REMARK    7  A    between atoms: C_14  and  C_15
REMARK                            x       y       z     vdW  Elec       q    Type
REMARK                         _______ _______ _______ _____ _____    ______ ____
ROOT
ATOM      1  C   UNL     1       3.318   6.605  17.875  0.00  0.00    +0.000 A 
ATOM      2  C   UNL     1       4.640   6.571  17.502  0.00  0.00    +0.000 A 
ATOM      3  N   UNL     1       5.014   5.252  17.405  0.00  0.00    +0.000 N 
ATOM      4  C   UNL     1       3.926   4.432  17.637  0.00  0.00    +0.000 A 
ATOM      5  C   UNL     1       3.803   3.031  17.614  0.00  0.00    +0.000 A 
ATOM      6  C   UNL     1       2.550   2.475  17.889  0.00  0.00    +0.000 A 
ATOM      7  C   UNL     1       1.460   3.283  18.190  0.00  0.00    +0.000 A 
ATOM      8  C   UNL     1       1.592   4.674  18.224  0.00  0.00    +0.000 A 
ATOM      9  C   UNL     1       2.842   5.266  17.940  0.00  0.00    +0.000 A 
ENDROOT
BRANCH   1  10
ATOM     10  S   UNL     1       2.380   8.055  18.157  0.00  0.00    +0.000 S 
BRANCH  10  11
ATOM     11  C   UNL     1       2.024   7.924  19.948  0.00  0.00    +0.000 C 
BRANCH  11  12
ATOM     12  C   UNL     1       0.757   8.686  20.332  0.00  0.00    +0.000 C 
BRANCH  12  19
ATOM     13  C   UNL     1       1.213  13.092  20.522  0.00  0.00    +0.000 C 
ATOM     14  N   UNL     1       0.473  12.257  19.614  0.00  0.00    +0.000 N 
ATOM     15  C   UNL     1      -0.327  12.816  18.545  0.00  0.00    +0.000 C 
ATOM     16  C   UNL     1      -1.445  11.790  18.411  0.00  0.00    +0.000 C 
ATOM     17  C   UNL     1      -0.809  10.457  18.811  0.00  0.00    +0.000 C 
ATOM     18  C   UNL     1       0.323  10.897  19.729  0.00  0.00    +0.000 C 
ATOM     19  N   UNL     1       1.037  10.122  20.472  0.00  0.00    +0.000 NA
ENDBRANCH  12  19
ENDBRANCH  11  12
ENDBRANCH  10  11
ENDBRANCH   1  10
BRANCH   3  20
ATOM     20  C   UNL     1       6.367   4.806  17.087  0.00  0.00    +0.000 C 
BRANCH  20  21
ATOM     21  C   UNL     1       6.541   4.608  15.624  0.00  0.00    +0.000 A 
ATOM     22  C   UNL     1       5.924   3.815  14.675  0.00  0.00    +0.000 A 
ATOM     23  C   UNL     1       6.568   4.084  13.444  0.00  0.00    +0.000 A 
ATOM     24  C   UNL     1       7.520   5.038  13.711  0.00  0.00    +0.000 A 
ATOM     25  O   UNL     1       7.509   5.366  15.028  0.00  0.00    +0.000 OA
ENDBRANCH  20  21
ENDBRANCH   3  20
TORSDOF 6
ENDMDL
MODEL 3
REMARK VINA RESULT:      -7.6      1.509      1.709
REMARK  Name = 
REMARK  7 active torsions:
REMARK  status: ('A' for Active; 'I' for Inactive)
REMARK    1  A    between atoms: C_1  and  N_2
REMARK    2  A    between atoms: N_7  and  C_8
REMARK    3  A    between atoms: C_8  and  C_9
REMARK    4  A    between atoms: C_9  and  S_10
REMARK    5  A    between atoms: S_10  and  C_11
REMARK    6  A    between atoms: N_13  and  C_14
REMARK    7  A    between atoms: C_14  and  C_15
REMARK                            x       y       z     vdW  Elec       q    Type
REMARK                         _______ _______ _______ _____ _____    ______ ____
ROOT
ATOM      1  C   UNL     1       3.102   5.915  19.058  0.00  0.00    +0.000 A 
ATOM      2  C   UNL     1       4.409   5.969  18.637  0.00  0.00    +0.000 A 
ATOM      3  N   UNL     1       4.776   4.705  18.244  0.00  0.00    +0.000 N 
ATOM      4  C   UNL     1       3.696   3.847  18.335  0.00  0.00    +0.000 A 
ATOM      5  C   UNL     1       3.569   2.484  18.016  0.00  0.00    +0.000 A 
ATOM      6  C   UNL     1       2.327   1.874  18.211  0.00  0.00    +0.000 A 
ATOM      7  C   UNL     1       1.250   2.591  18.720  0.00  0.00    +0.000 A 
ATOM      8  C   UNL     1       1.386   3.943  19.047  0.00  0.00    +0.000 A 
ATOM      9  C   UNL     1       2.626   4.590  18.851  0.00  0.00    +0.000 A 
ENDROOT
BRANCH   1  10
ATOM     10  S   UNL     1       2.178   7.264  19.680  0.00  0.00    +0.000 S 
BRANCH  10  11
ATOM     11  C   UNL     1       2.209   8.421  18.262  0.00  0.00    +0.000 C 
BRANCH  11  12
ATOM     12  C   UNL     1       1.393   9.682  18.540  0.00  0.00    +0.000 C 
BRANCH  12  19
ATOM     13  C   UNL     1      -2.525  10.002  16.490  0.00  0.00    +0.000 C 
ATOM     14  N   UNL     1      -2.064  10.551  17.737  0.00  0.00    +0.000 N 
ATOM     15  C   UNL     1      -2.907  11.393  18.557  0.00  0.00    +0.000 C 
ATOM     16  C   UNL     1      -1.892  12.311  19.225  0.00  0.00    +0.000 C 
ATOM     17  C   UNL     1      -0.620  11.470  19.348  0.00  0.00    +0.000 C 
ATOM     18  C   UNL     1      -0.779  10.468  18.214  0.00  0.00    +0.000 C 
ATOM     19  N   UNL     1       0.131   9.660  17.787  0.00  0.00    +0.000 NA
ENDBRANCH  12  19
ENDBRANCH  11  12
ENDBRANCH  10  11
ENDBRANCH   1  10
BRANCH   3  20
ATOM     20  C   UNL     1       6.115   4.346  17.787  0.00  0.00    +0.000 C 
BRANCH  20  21
ATOM     21  C   UNL     1       6.220   4.425  16.306  0.00  0.00    +0.000 A 
ATOM     22  C   UNL     1       5.353   4.170  15.261  0.00  0.00    +0.000 A 
ATOM     23  C   UNL     1       6.072   4.429  14.069  0.00  0.00    +0.000 A 
ATOM     24  C   UNL     1       7.321   4.848  14.459  0.00  0.00    +0.000 A 
ATOM     25  O   UNL     1       7.420   4.853  15.813  0.00  0.00    +0.000 OA
ENDBRANCH  20  21
ENDBRANCH   3  20
TORSDOF 6
ENDMDL
MODEL 4
REMARK VINA RESULT:      -7.5      1.847      2.082
REMARK  Name = 
REMARK  7 active torsions:
REMARK  status: ('A' for Active; 'I' for Inactive)
REMARK    1  A    between atoms: C_1  and  N_2
REMARK    2  A    between atoms: N_7  and  C_8
REMARK    3  A    between atoms: C_8  and  C_9
REMARK    4  A    between atoms: C_9  and  S_10
REMARK    5  A    between atoms: S_10  and  C_11
REMARK    6  A    between atoms: N_13  and  C_14
REMARK    7  A    between atoms: C_14  and  C_15
REMARK                            x       y       z     vdW  Elec       q    Type
REMARK                         _______ _______ _______ _____ _____    ______ ____
ROOT
ATOM      1  C   UNL     1       2.825   6.252  19.569  0.00  0.00    +0.000 A 
ATOM      2  C   UNL     1       4.077   6.135  19.016  0.00  0.00    +0.000 A 
ATOM      3  N   UNL     1       4.408   4.802  19.003  0.00  0.00    +0.000 N 
ATOM      4  C   UNL     1       3.349   4.046  19.472  0.00  0.00    +0.000 A 
ATOM      5  C   UNL     1       3.197   2.655  19.612  0.00  0.00    +0.000 A 
ATOM      6  C   UNL     1       1.988   2.172  20.120  0.00  0.00    +0.000 A 
ATOM      7  C   UNL     1       0.969   3.043  20.490  0.00  0.00    +0.000 A 
ATOM      8  C   UNL     1       1.131   4.425  20.360  0.00  0.00    +0.000 A 
ATOM      9  C   UNL     1       2.337   4.943  19.840  0.00  0.00    +0.000 A 
ENDROOT
BRANCH   1  10
ATOM     10  S   UNL     1       1.966   7.754  19.832  0.00  0.00    +0.000 S 
BRANCH  10  11
ATOM     11  C   UNL     1       2.012   8.504  18.163  0.00  0.00    +0.000 C 
BRANCH  11  12
ATOM     12  C   UNL     1       1.417   9.911  18.157  0.00  0.00    +0.000 C 
BRANCH  12  19
ATOM     13  C   UNL     1      -2.982  10.189  17.685  0.00  0.00    +0.000 C 
ATOM     14  N   UNL     1      -2.070  10.946  18.499  0.00  0.00    +0.000 N 
ATOM     15  C   UNL     1      -2.522  12.033  19.340  0.00  0.00    +0.000 C 
ATOM     16  C   UNL     1      -1.315  12.962  19.341  0.00  0.00    +0.000 C 
ATOM     17  C   UNL     1      -0.105  12.038  19.187  0.00  0.00    +0.000 C 
ATOM     18  C   UNL     1      -0.702  10.833  18.473  0.00  0.00    +0.000 C 
ATOM     19  N   UNL     1      -0.037   9.859  17.952  0.00  0.00    +0.000 NA
ENDBRANCH  12  19
ENDBRANCH  11  12
ENDBRANCH  10  11
ENDBRANCH   1  10
BRANCH   3  20
ATOM     20  C   UNL     1       5.691   4.280  18.542  0.00  0.00    +0.000 C 
BRANCH  20  21
ATOM     21  C   UNL     1       5.803   4.353  17.062  0.00  0.00    +0.000 A 
ATOM     22  C   UNL     1       4.913   4.194  16.016  0.00  0.00    +0.000 A 
ATOM     23  C   UNL     1       5.655   4.379  14.824  0.00  0.00    +0.000 A 
ATOM     24  C   UNL     1       6.942   4.662  15.215  0.00  0.00    +0.000 A 
ATOM     25  O   UNL     1       7.041   4.652  16.569  0.00  0.00    +0.000 OA
ENDBRANCH  20  21
ENDBRANCH   3  20
TORSDOF 6
ENDMDL
MODEL 5
REMARK VINA RESULT:      -7.5      1.332      1.938
REMARK  Name = 
REMARK  7 active torsions:
REMARK  status: ('A' for Active; 'I' for Inactive)
REMARK    1  A    between atoms: C_1  and  N_2
REMARK    2  A    between atoms: N_7  and  C_8
REMARK    3  A    between atoms: C_8  and  C_9
REMARK    4  A    between atoms: C_9  and  S_10
REMARK    5  A    between atoms: S_10  and  C_11
REMARK    6  A    between atoms: N_13  and  C_14
REMARK    7  A    between atoms: C_14  and  C_15
REMARK                            x       y       z     vdW  Elec       q    Type
REMARK                         _______ _______ _______ _____ _____    ______ ____
ROOT
ATOM      1  C   UNL     1       3.102   5.928  19.054  0.00  0.00    +0.000 A 
ATOM      2  C   UNL     1       4.426   5.927  18.688  0.00  0.00    +0.000 A 
ATOM      3  N   UNL     1       4.780   4.632  18.394  0.00  0.00    +0.000 N 
ATOM      4  C   UNL     1       3.676   3.805  18.493  0.00  0.00    +0.000 A 
ATOM      5  C   UNL     1       3.530   2.426  18.257  0.00  0.00    +0.000 A 
ATOM      6  C   UNL     1       2.266   1.857  18.437  0.00  0.00    +0.000 A 
ATOM      7  C   UNL     1       1.187   2.629  18.850  0.00  0.00    +0.000 A 
ATOM      8  C   UNL     1       1.341   3.997  19.095  0.00  0.00    +0.000 A 
ATOM      9  C   UNL     1       2.603   4.603  18.912  0.00  0.00    +0.000 A 
ENDROOT
BRANCH   1  10
ATOM     10  S   UNL     1       2.185   7.334  19.546  0.00  0.00    +0.000 S 
BRANCH  10  11
ATOM     11  C   UNL     1       2.404   8.443  18.107  0.00  0.00    +0.000 C 
BRANCH  11  12
ATOM     12  C   UNL     1       1.177   9.323  17.875  0.00  0.00    +0.000 C 
BRANCH  12  19
ATOM     13  C   UNL     1      -0.527  11.288  21.466  0.00  0.00    +0.000 C 
ATOM     14  N   UNL     1      -0.940  11.317  20.088  0.00  0.00    +0.000 N 
ATOM     15  C   UNL     1      -2.109  12.051  19.658  0.00  0.00    +0.000 C 
ATOM     16  C   UNL     1      -2.592  11.222  18.474  0.00  0.00    +0.000 C 
ATOM     17  C   UNL     1      -1.324  10.606  17.880  0.00  0.00    +0.000 C 
ATOM     18  C   UNL     1      -0.385  10.569  19.078  0.00  0.00    +0.000 C 
ATOM     19  N   UNL     1       0.750   9.959  19.129  0.00  0.00    +0.000 NA
ENDBRANCH  12  19
ENDBRANCH  11  12
ENDBRANCH  10  11
ENDBRANCH   1  10
BRANCH   3  20
ATOM     20  C   UNL     1       6.128   4.215  18.021  0.00  0.00    +0.000 C 
BRANCH  20  21
ATOM     21  C   UNL     1       6.369   4.409  16.567  0.00  0.00    +0.000 A 
ATOM     22  C   UNL     1       7.067   5.337  15.818  0.00  0.00    +0.000 A 
ATOM     23  C   UNL     1       6.897   4.970  14.461  0.00  0.00    +0.000 A 
ATOM     24  C   UNL     1       6.127   3.832  14.466  0.00  0.00    +0.000 A 
ATOM     25  O   UNL     1       5.805   3.481  15.738  0.00  0.00    +0.000 OA
ENDBRANCH  20  21
ENDBRANCH   3  20
TORSDOF 6
ENDMDL
MODEL 6
REMARK VINA RESULT:      -7.4      1.695      2.009
REMARK  Name = 
REMARK  7 active torsions:
REMARK  status: ('A' for Active; 'I' for Inactive)
REMARK    1  A    between atoms: C_1  and  N_2
REMARK    2  A    between atoms: N_7  and  C_8
REMARK    3  A    between atoms: C_8  and  C_9
REMARK    4  A    between atoms: C_9  and  S_10
REMARK    5  A    between atoms: S_10  and  C_11
REMARK    6  A    between atoms: N_13  and  C_14
REMARK    7  A    between atoms: C_14  and  C_15
REMARK                            x       y       z     vdW  Elec       q    Type
REMARK                         _______ _______ _______ _____ _____    ______ ____
ROOT
ATOM      1  C   UNL     1       3.168   5.981  18.955  0.00  0.00    +0.000 A 
ATOM      2  C   UNL     1       4.464   6.031  18.500  0.00  0.00    +0.000 A 
ATOM      3  N   UNL     1       4.853   4.748  18.200  0.00  0.00    +0.000 N 
ATOM      4  C   UNL     1       3.795   3.876  18.384  0.00  0.00    +0.000 A 
ATOM      5  C   UNL     1       3.694   2.489  18.177  0.00  0.00    +0.000 A 
ATOM      6  C   UNL     1       2.471   1.869  18.449  0.00  0.00    +0.000 A 
ATOM      7  C   UNL     1       1.389   2.601  18.925  0.00  0.00    +0.000 A 
ATOM      8  C   UNL     1       1.500   3.978  19.141  0.00  0.00    +0.000 A 
ATOM      9  C   UNL     1       2.719   4.634  18.865  0.00  0.00    +0.000 A 
ENDROOT
BRANCH   1  10
ATOM     10  S   UNL     1       2.226   7.355  19.490  0.00  0.00    +0.000 S 
BRANCH  10  11
ATOM     11  C   UNL     1       2.477   8.536  18.114  0.00  0.00    +0.000 C 
BRANCH  11  12
ATOM     12  C   UNL     1       1.230   9.381  17.856  0.00  0.00    +0.000 C 
BRANCH  12  19
ATOM     13  C   UNL     1       0.010  11.697  21.434  0.00  0.00    +0.000 C 
ATOM     14  N   UNL     1       1.024  11.951  20.445  0.00  0.00    +0.000 N 
ATOM     15  C   UNL     1       1.844  13.141  20.483  0.00  0.00    +0.000 C 
ATOM     16  C   UNL     1       2.122  13.388  19.006  0.00  0.00    +0.000 C 
ATOM     17  C   UNL     1       2.120  11.998  18.366  0.00  0.00    +0.000 C 
ATOM     18  C   UNL     1       1.231  11.203  19.312  0.00  0.00    +0.000 C 
ATOM     19  N   UNL     1       0.769  10.018  19.098  0.00  0.00    +0.000 NA
ENDBRANCH  12  19
ENDBRANCH  11  12
ENDBRANCH  10  11
ENDBRANCH   1  10
BRANCH   3  20
ATOM     20  C   UNL     1       6.189   4.383  17.741  0.00  0.00    +0.000 C 
BRANCH  20  21
ATOM     21  C   UNL     1       6.272   4.391  16.257  0.00  0.00    +0.000 A 
ATOM     22  C   UNL     1       5.484   3.882  15.242  0.00  0.00    +0.000 A 
ATOM     23  C   UNL     1       6.125   4.221  14.026  0.00  0.00    +0.000 A 
ATOM     24  C   UNL     1       7.248   4.933  14.371  0.00  0.00    +0.000 A 
ATOM     25  O   UNL     1       7.344   5.045  15.721  0.00  0.00    +0.000 OA
ENDBRANCH  20  21
ENDBRANCH   3  20
TORSDOF 6
ENDMDL
MODEL 7
REMARK VINA RESULT:      -7.4      1.551      1.697
REMARK  Name = 
REMARK  7 active torsions:
REMARK  status: ('A' for Active; 'I' for Inactive)
REMARK    1  A    between atoms: C_1  and  N_2
REMARK    2  A    between atoms: N_7  and  C_8
REMARK    3  A    between atoms: C_8  and  C_9
REMARK    4  A    between atoms: C_9  and  S_10
REMARK    5  A    between atoms: S_10  and  C_11
REMARK    6  A    between atoms: N_13  and  C_14
REMARK    7  A    between atoms: C_14  and  C_15
REMARK                            x       y       z     vdW  Elec       q    Type
REMARK                         _______ _______ _______ _____ _____    ______ ____
ROOT
ATOM      1  C   UNL     1       2.796   6.444  19.303  0.00  0.00    +0.000 A 
ATOM      2  C   UNL     1       4.035   6.297  18.727  0.00  0.00    +0.000 A 
ATOM      3  N   UNL     1       4.456   5.011  18.962  0.00  0.00    +0.000 N 
ATOM      4  C   UNL     1       3.469   4.300  19.618  0.00  0.00    +0.000 A 
ATOM      5  C   UNL     1       3.418   2.958  20.036  0.00  0.00    +0.000 A 
ATOM      6  C   UNL     1       2.262   2.513  20.684  0.00  0.00    +0.000 A 
ATOM      7  C   UNL     1       1.198   3.375  20.921  0.00  0.00    +0.000 A 
ATOM      8  C   UNL     1       1.260   4.712  20.514  0.00  0.00    +0.000 A 
ATOM      9  C   UNL     1       2.410   5.188  19.848  0.00  0.00    +0.000 A 
ENDROOT
BRANCH   1  10
ATOM     10  S   UNL     1       1.844   7.913  19.304  0.00  0.00    +0.000 S 
BRANCH  10  11
ATOM     11  C   UNL     1       1.588   8.188  21.095  0.00  0.00    +0.000 C 
BRANCH  11  12
ATOM     12  C   UNL     1       0.156   8.623  21.403  0.00  0.00    +0.000 C 
BRANCH  12  19
ATOM     13  C   UNL     1      -1.017  12.362  19.329  0.00  0.00    +0.000 C 
ATOM     14  N   UNL     1      -1.234  11.924  20.682  0.00  0.00    +0.000 N 
ATOM     15  C   UNL     1      -1.915  12.755  21.652  0.00  0.00    +0.000 C 
ATOM     16  C   UNL     1      -1.251  12.335  22.957  0.00  0.00    +0.000 C 
ATOM     17  C   UNL     1      -0.864  10.869  22.750  0.00  0.00    +0.000 C 
ATOM     18  C   UNL     1      -0.720  10.778  21.238  0.00  0.00    +0.000 C 
ATOM     19  N   UNL     1      -0.221   9.784  20.585  0.00  0.00    +0.000 NA
ENDBRANCH  12  19
ENDBRANCH  11  12
ENDBRANCH  10  11
ENDBRANCH   1  10
BRANCH   3  20
ATOM     20  C   UNL     1       5.757   4.487  18.554  0.00  0.00    +0.000 C 
BRANCH  20  21
ATOM     21  C   UNL     1       5.879   4.436  17.074  0.00  0.00    +0.000 A 
ATOM     22  C   UNL     1       5.037   4.053  16.047  0.00  0.00    +0.000 A 
ATOM     23  C   UNL     1       5.762   4.231  14.844  0.00  0.00    +0.000 A 
ATOM     24  C   UNL     1       6.988   4.732  15.207  0.00  0.00    +0.000 A 
ATOM     25  O   UNL     1       7.068   4.863  16.556  0.00  0.00    +0.000 OA
ENDBRANCH  20  21
ENDBRANCH   3  20
TORSDOF 6
ENDMDL
MODEL 8
REMARK VINA RESULT:      -7.4      1.638      2.097
REMARK  Name = 
REMARK  7 active torsions:
REMARK  status: ('A' for Active; 'I' for Inactive)
REMARK    1  A    between atoms: C_1  and  N_2
REMARK    2  A    between atoms: N_7  and  C_8
REMARK    3  A    between atoms: C_8  and  C_9
REMARK    4  A    between atoms: C_9  and  S_10
REMARK    5  A    between atoms: S_10  and  C_11
REMARK    6  A    between atoms: N_13  and  C_14
REMARK    7  A    between atoms: C_14  and  C_15
REMARK                            x       y       z     vdW  Elec       q    Type
REMARK                         _______ _______ _______ _____ _____    ______ ____
ROOT
ATOM      1  C   UNL     1       2.834   6.199  19.541  0.00  0.00    +0.000 A 
ATOM      2  C   UNL     1       4.093   6.103  19.001  0.00  0.00    +0.000 A 
ATOM      3  N   UNL     1       4.426   4.771  18.946  0.00  0.00    +0.000 N 
ATOM      4  C   UNL     1       3.363   3.998  19.375  0.00  0.00    +0.000 A 
ATOM      5  C   UNL     1       3.211   2.603  19.465  0.00  0.00    +0.000 A 
ATOM      6  C   UNL     1       1.995   2.102  19.939  0.00  0.00    +0.000 A 
ATOM      7  C   UNL     1       0.971   2.958  20.325  0.00  0.00    +0.000 A 
ATOM      8  C   UNL     1       1.132   4.344  20.246  0.00  0.00    +0.000 A 
ATOM      9  C   UNL     1       2.344   4.881  19.760  0.00  0.00    +0.000 A 
ENDROOT
BRANCH   1  10
ATOM     10  S   UNL     1       1.969   7.690  19.844  0.00  0.00    +0.000 S 
BRANCH  10  11
ATOM     11  C   UNL     1       2.171   8.566  18.250  0.00  0.00    +0.000 C 
BRANCH  11  12
ATOM     12  C   UNL     1       1.027   9.545  17.991  0.00  0.00    +0.000 C 
BRANCH  12  19
ATOM     13  C   UNL     1       0.330  12.573  21.155  0.00  0.00    +0.000 C 
ATOM     14  N   UNL     1      -0.444  12.225  19.993  0.00  0.00    +0.000 N 
ATOM     15  C   UNL     1      -1.702  12.874  19.693  0.00  0.00    +0.000 C 
ATOM     16  C   UNL     1      -2.473  11.768  18.983  0.00  0.00    +0.000 C 
ATOM     17  C   UNL     1      -1.404  10.928  18.283  0.00  0.00    +0.000 C 
ATOM     18  C   UNL     1      -0.172  11.183  19.141  0.00  0.00    +0.000 C 
ATOM     19  N   UNL     1       0.946  10.544  19.066  0.00  0.00    +0.000 NA
ENDBRANCH  12  19
ENDBRANCH  11  12
ENDBRANCH  10  11
ENDBRANCH   1  10
BRANCH   3  20
ATOM     20  C   UNL     1       5.716   4.267  18.485  0.00  0.00    +0.000 C 
BRANCH  20  21
ATOM     21  C   UNL     1       5.832   4.354  17.005  0.00  0.00    +0.000 A 
ATOM     22  C   UNL     1       4.933   4.269  15.958  0.00  0.00    +0.000 A 
ATOM     23  C   UNL     1       5.685   4.424  14.769  0.00  0.00    +0.000 A 
ATOM     24  C   UNL     1       6.988   4.616  15.162  0.00  0.00    +0.000 A 
ATOM     25  O   UNL     1       7.087   4.580  16.516  0.00  0.00    +0.000 OA
ENDBRANCH  20  21
ENDBRANCH   3  20
TORSDOF 6
ENDMDL
MODEL 9
REMARK VINA RESULT:      -7.4      2.341      4.509
REMARK  Name = 
REMARK  7 active torsions:
REMARK  status: ('A' for Active; 'I' for Inactive)
REMARK    1  A    between atoms: C_1  and  N_2
REMARK    2  A    between atoms: N_7  and  C_8
REMARK    3  A    between atoms: C_8  and  C_9
REMARK    4  A    between atoms: C_9  and  S_10
REMARK    5  A    between atoms: S_10  and  C_11
REMARK    6  A    between atoms: N_13  and  C_14
REMARK    7  A    between atoms: C_14  and  C_15
REMARK                            x       y       z     vdW  Elec       q    Type
REMARK                         _______ _______ _______ _____ _____    ______ ____
ROOT
ATOM      1  C   UNL     1       3.418   6.775  17.735  0.00  0.00    +0.000 A 
ATOM      2  C   UNL     1       2.690   5.649  18.034  0.00  0.00    +0.000 A 
ATOM      3  N   UNL     1       3.530   4.567  17.932  0.00  0.00    +0.000 N 
ATOM      4  C   UNL     1       4.815   4.989  17.644  0.00  0.00    +0.000 A 
ATOM      5  C   UNL     1       6.010   4.267  17.482  0.00  0.00    +0.000 A 
ATOM      6  C   UNL     1       7.178   4.980  17.196  0.00  0.00    +0.000 A 
ATOM      7  C   UNL     1       7.155   6.364  17.061  0.00  0.00    +0.000 A 
ATOM      8  C   UNL     1       5.961   7.075  17.211  0.00  0.00    +0.000 A 
ATOM      9  C   UNL     1       4.767   6.383  17.511  0.00  0.00    +0.000 A 
ENDROOT
BRANCH   1  10
ATOM     10  S   UNL     1       2.793   8.409  17.700  0.00  0.00    +0.000 S 
BRANCH  10  11
ATOM     11  C   UNL     1       1.762   8.445  19.211  0.00  0.00    +0.000 C 
BRANCH  11  12
ATOM     12  C   UNL     1       0.974   9.749  19.331  0.00  0.00    +0.000 C 
BRANCH  12  19
ATOM     13  C   UNL     1      -2.288  10.367  16.394  0.00  0.00    +0.000 C 
ATOM     14  N   UNL     1      -2.180  10.743  17.778  0.00  0.00    +0.000 N 
ATOM     15  C   UNL     1      -3.228  11.477  18.452  0.00  0.00    +0.000 C 
ATOM     16  C   UNL     1      -2.444  12.292  19.474  0.00  0.00    +0.000 C 
ATOM     17  C   UNL     1      -1.225  11.432  19.813  0.00  0.00    +0.000 C 
ATOM     18  C   UNL     1      -1.059  10.588  18.557  0.00  0.00    +0.000 C 
ATOM     19  N   UNL     1      -0.049   9.836  18.280  0.00  0.00    +0.000 NA
ENDBRANCH  12  19
ENDBRANCH  11  12
ENDBRANCH  10  11
ENDBRANCH   1  10
BRANCH   3  20
ATOM     20  C   UNL     1       3.109   3.182  18.120  0.00  0.00    +0.000 C 
BRANCH  20  21
ATOM     21  C   UNL     1       2.483   2.983  19.453  0.00  0.00    +0.000 A 
ATOM     22  C   UNL     1       1.180   2.892  19.906  0.00  0.00    +0.000 A 
ATOM     23  C   UNL     1       1.252   2.714  21.308  0.00  0.00    +0.000 A 
ATOM     24  C   UNL     1       2.589   2.684  21.621  0.00  0.00    +0.000 A 
ATOM     25  O   UNL     1       3.344   2.843  20.504  0.00  0.00    +0.000 OA
ENDBRANCH  20  21
ENDBRANCH   3  20
TORSDOF 6
ENDMDL
