MODEL 1
REMARK VINA RESULT:      -7.1      0.000      0.000
REMARK  Name = 
REMARK  5 active torsions:
REMARK  status: ('A' for Active; 'I' for Inactive)
REMARK    1  A    between atoms: C_1  and  C_2
REMARK    2  A    between atoms: C_2  and  O_3
REMARK    3  A    between atoms: O_3  and  C_4
REMARK    4  A    between atoms: N_8  and  C_9
REMARK    5  A    between atoms: C_12  and  C_13
REMARK                            x       y       z     vdW  Elec       q    Type
REMARK                         _______ _______ _______ _____ _____    ______ ____
ROOT
ATOM      1  C   UNL     1       5.303   5.753  17.605  0.00  0.00    +0.000 A 
ATOM      2  C   UNL     1       5.609   5.058  18.772  0.00  0.00    +0.000 A 
ATOM      3  C   UNL     1       4.637   4.847  19.756  0.00  0.00    +0.000 A 
ATOM      4  C   UNL     1       3.329   5.334  19.613  0.00  0.00    +0.000 A 
ATOM      5  C   UNL     1       3.016   6.002  18.427  0.00  0.00    +0.000 A 
ATOM      6  C   UNL     1       3.990   6.214  17.448  0.00  0.00    +0.000 A 
ENDROOT
BRANCH   1  11
ATOM      7  C   UNL     1       6.607   3.902  13.011  0.00  0.00    +0.000 A 
ATOM      8  C   UNL     1       5.579   3.671  13.890  0.00  0.00    +0.000 A 
ATOM      9  N   UNL     1       5.441   4.319  15.056  0.00  0.00    +0.000 NA
ATOM     10  C   UNL     1       6.361   5.238  15.381  0.00  0.00    +0.000 A 
ATOM     11  N   UNL     1       6.275   5.883  16.609  0.00  0.00    +0.000 N 
ATOM     12  N   UNL     1       7.405   5.542  14.599  0.00  0.00    +0.000 NA
ATOM     13  C   UNL     1       7.493   4.873  13.420  0.00  0.00    +0.000 A 
ATOM     14  H   UNL     1       7.133   6.357  16.833  0.00  0.00    +0.000 HD
BRANCH   7  15
ATOM     15  O   UNL     1       6.820   3.280  11.823  0.00  0.00    +0.000 OA
BRANCH  15  17
ATOM     16  C   UNL     1       6.488   1.027  11.092  0.00  0.00    +0.000 C 
ATOM     17  C   UNL     1       5.814   2.334  11.449  0.00  0.00    +0.000 C 
ENDBRANCH  15  17
ENDBRANCH   7  15
ENDBRANCH   1  11
BRANCH   4  18
ATOM     18  C   UNL     1       2.255   5.173  20.689  0.00  0.00    +0.000 C 
ATOM     19  C   UNL     1       2.634   4.100  21.731  0.00  0.00    +0.000 C 
ATOM     20  C   UNL     1       2.517   2.695  21.144  0.00  0.00    +0.000 C 
ATOM     21  C   UNL     1       1.151   2.455  20.502  0.00  0.00    +0.000 C 
ATOM     22  N   UNL     1       0.760   3.504  19.563  0.00  0.00    +0.000 NA
ATOM     23  C   UNL     1       0.838   4.840  20.165  0.00  0.00    +0.000 C 
ATOM     24  H   UNL     1      -0.182   3.330  19.215  0.00  0.00    +0.000 HD
ENDBRANCH   4  18
TORSDOF 4
ENDMDL
MODEL 2
REMARK VINA RESULT:      -7.0      6.046      8.703
REMARK  Name = 
REMARK  5 active torsions:
REMARK  status: ('A' for Active; 'I' for Inactive)
REMARK    1  A    between atoms: C_1  and  C_2
REMARK    2  A    between atoms: C_2  and  O_3
REMARK    3  A    between atoms: O_3  and  C_4
REMARK    4  A    between atoms: N_8  and  C_9
REMARK    5  A    between atoms: C_12  and  C_13
REMARK                            x       y       z     vdW  Elec       q    Type
REMARK                         _______ _______ _______ _____ _____    ______ ____
ROOT
ATOM      1  C   UNL     1       1.539   8.875  19.304  0.00  0.00    +0.000 A 
ATOM      2  C   UNL     1       2.143   8.178  18.259  0.00  0.00    +0.000 A 
ATOM      3  C   UNL     1       2.581   6.862  18.435  0.00  0.00    +0.000 A 
ATOM      4  C   UNL     1       2.445   6.200  19.664  0.00  0.00    +0.000 A 
ATOM      5  C   UNL     1       1.810   6.888  20.701  0.00  0.00    +0.000 A 
ATOM      6  C   UNL     1       1.376   8.204  20.522  0.00  0.00    +0.000 A 
ENDROOT
BRANCH   1  11
ATOM      7  C   UNL     1      -2.659  11.327  17.698  0.00  0.00    +0.000 A 
ATOM      8  C   UNL     1      -2.321  10.012  17.882  0.00  0.00    +0.000 A 
ATOM      9  N   UNL     1      -1.129   9.612  18.349  0.00  0.00    +0.000 NA
ATOM     10  C   UNL     1      -0.219  10.549  18.645  0.00  0.00    +0.000 A 
ATOM     11  N   UNL     1       1.044  10.161  19.075  0.00  0.00    +0.000 N 
ATOM     12  N   UNL     1      -0.443  11.863  18.501  0.00  0.00    +0.000 NA
ATOM     13  C   UNL     1      -1.670  12.221  18.043  0.00  0.00    +0.000 A 
ATOM     14  H   UNL     1       1.696  10.927  19.032  0.00  0.00    +0.000 HD
BRANCH   7  15
ATOM     15  O   UNL     1      -3.836  11.808  17.219  0.00  0.00    +0.000 OA
BRANCH  15  17
ATOM     16  C   UNL     1      -6.176  12.141  17.590  0.00  0.00    +0.000 C 
ATOM     17  C   UNL     1      -5.006  11.199  17.774  0.00  0.00    +0.000 C 
ENDBRANCH  15  17
ENDBRANCH   7  15
ENDBRANCH   1  11
BRANCH   4  18
ATOM     18  C   UNL     1       2.962   4.783  19.913  0.00  0.00    +0.000 C 
ATOM     19  C   UNL     1       3.001   3.945  18.618  0.00  0.00    +0.000 C 
ATOM     20  C   UNL     1       1.594   3.551  18.173  0.00  0.00    +0.000 C 
ATOM     21  C   UNL     1       0.804   2.884  19.299  0.00  0.00    +0.000 C 
ATOM     22  N   UNL     1       0.820   3.644  20.547  0.00  0.00    +0.000 NA
ATOM     23  C   UNL     1       2.185   3.971  20.976  0.00  0.00    +0.000 C 
ATOM     24  H   UNL     1       0.336   3.127  21.279  0.00  0.00    +0.000 HD
ENDBRANCH   4  18
TORSDOF 4
ENDMDL
MODEL 3
REMARK VINA RESULT:      -6.9      4.414      5.849
REMARK  Name = 
REMARK  5 active torsions:
REMARK  status: ('A' for Active; 'I' for Inactive)
REMARK    1  A    between atoms: C_1  and  C_2
REMARK    2  A    between atoms: C_2  and  O_3
REMARK    3  A    between atoms: O_3  and  C_4
REMARK    4  A    between atoms: N_8  and  C_9
REMARK    5  A    between atoms: C_12  and  C_13
REMARK                            x       y       z     vdW  Elec       q    Type
REMARK                         _______ _______ _______ _____ _____    ______ ____
ROOT
ATOM      1  C   UNL     1       2.399   7.437  19.125  0.00  0.00    +0.000 A 
ATOM      2  C   UNL     1       1.822   7.818  20.335  0.00  0.00    +0.000 A 
ATOM      3  C   UNL     1       1.046   8.978  20.425  0.00  0.00    +0.000 A 
ATOM      4  C   UNL     1       0.831   9.806  19.313  0.00  0.00    +0.000 A 
ATOM      5  C   UNL     1       1.383   9.405  18.094  0.00  0.00    +0.000 A 
ATOM      6  C   UNL     1       2.160   8.247  18.009  0.00  0.00    +0.000 A 
ENDROOT
BRANCH   1  11
ATOM      7  C   UNL     1       6.291   5.223  16.641  0.00  0.00    +0.000 A 
ATOM      8  C   UNL     1       5.703   6.461  16.607  0.00  0.00    +0.000 A 
ATOM      9  N   UNL     1       4.679   6.817  17.397  0.00  0.00    +0.000 NA
ATOM     10  C   UNL     1       4.203   5.912  18.261  0.00  0.00    +0.000 A 
ATOM     11  N   UNL     1       3.106   6.234  19.051  0.00  0.00    +0.000 N 
ATOM     12  N   UNL     1       4.701   4.673  18.377  0.00  0.00    +0.000 NA
ATOM     13  C   UNL     1       5.748   4.364  17.570  0.00  0.00    +0.000 A 
ATOM     14  H   UNL     1       2.703   5.413  19.470  0.00  0.00    +0.000 HD
BRANCH   7  15
ATOM     15  O   UNL     1       7.318   4.786  15.867  0.00  0.00    +0.000 OA
BRANCH  15  17
ATOM     16  C   UNL     1       6.204   3.884  13.951  0.00  0.00    +0.000 C 
ATOM     17  C   UNL     1       7.132   4.967  14.460  0.00  0.00    +0.000 C 
ENDBRANCH  15  17
ENDBRANCH   7  15
ENDBRANCH   1  11
BRANCH   4  18
ATOM     18  C   UNL     1       0.037  11.111  19.383  0.00  0.00    +0.000 C 
ATOM     19  C   UNL     1       0.692  12.232  18.549  0.00  0.00    +0.000 C 
ATOM     20  C   UNL     1       1.959  12.753  19.223  0.00  0.00    +0.000 C 
ATOM     21  C   UNL     1       1.711  13.151  20.678  0.00  0.00    +0.000 C 
ATOM     22  N   UNL     1       1.032  12.116  21.454  0.00  0.00    +0.000 NA
ATOM     23  C   UNL     1      -0.206  11.664  20.807  0.00  0.00    +0.000 C 
ATOM     24  H   UNL     1       0.833  12.455  22.393  0.00  0.00    +0.000 HD
ENDBRANCH   4  18
TORSDOF 4
ENDMDL
MODEL 4
REMARK VINA RESULT:      -6.8      0.251      1.021
REMARK  Name = 
REMARK  5 active torsions:
REMARK  status: ('A' for Active; 'I' for Inactive)
REMARK    1  A    between atoms: C_1  and  C_2
REMARK    2  A    between atoms: C_2  and  O_3
REMARK    3  A    between atoms: O_3  and  C_4
REMARK    4  A    between atoms: N_8  and  C_9
REMARK    5  A    between atoms: C_12  and  C_13
REMARK                            x       y       z     vdW  Elec       q    Type
REMARK                         _______ _______ _______ _____ _____    ______ ____
ROOT
ATOM      1  C   UNL     1       5.139   5.584  17.673  0.00  0.00    +0.000 A 
ATOM      2  C   UNL     1       4.032   6.430  17.689  0.00  0.00    +0.000 A 
ATOM      3  C   UNL     1       3.059   6.317  18.687  0.00  0.00    +0.000 A 
ATOM      4  C   UNL     1       3.150   5.347  19.696  0.00  0.00    +0.000 A 
ATOM      5  C   UNL     1       4.277   4.522  19.697  0.00  0.00    +0.000 A 
ATOM      6  C   UNL     1       5.246   4.635  18.697  0.00  0.00    +0.000 A 
ENDROOT
BRANCH   1  11
ATOM      7  C   UNL     1       6.575   3.954  13.036  0.00  0.00    +0.000 A 
ATOM      8  C   UNL     1       5.531   3.671  13.878  0.00  0.00    +0.000 A 
ATOM      9  N   UNL     1       5.357   4.265  15.068  0.00  0.00    +0.000 NA
ATOM     10  C   UNL     1       6.255   5.181  15.454  0.00  0.00    +0.000 A 
ATOM     11  N   UNL     1       6.131   5.771  16.707  0.00  0.00    +0.000 N 
ATOM     12  N   UNL     1       7.312   5.533  14.711  0.00  0.00    +0.000 NA
ATOM     13  C   UNL     1       7.437   4.918  13.507  0.00  0.00    +0.000 A 
ATOM     14  H   UNL     1       6.977   6.246  16.972  0.00  0.00    +0.000 HD
BRANCH   7  15
ATOM     15  O   UNL     1       6.824   3.387  11.827  0.00  0.00    +0.000 OA
BRANCH  15  17
ATOM     16  C   UNL     1       6.702   1.136  11.027  0.00  0.00    +0.000 C 
ATOM     17  C   UNL     1       5.909   2.356  11.444  0.00  0.00    +0.000 C 
ENDBRANCH  15  17
ENDBRANCH   7  15
ENDBRANCH   1  11
BRANCH   4  18
ATOM     18  C   UNL     1       2.080   5.154  20.771  0.00  0.00    +0.000 C 
ATOM     19  C   UNL     1       2.527   4.157  21.860  0.00  0.00    +0.000 C 
ATOM     20  C   UNL     1       2.517   2.724  21.334  0.00  0.00    +0.000 C 
ATOM     21  C   UNL     1       1.177   2.358  20.695  0.00  0.00    +0.000 C 
ATOM     22  N   UNL     1       0.719   3.335  19.710  0.00  0.00    +0.000 NA
ATOM     23  C   UNL     1       0.696   4.698  20.254  0.00  0.00    +0.000 C 
ATOM     24  H   UNL     1      -0.204   3.079  19.364  0.00  0.00    +0.000 HD
ENDBRANCH   4  18
TORSDOF 4
ENDMDL
MODEL 5
REMARK VINA RESULT:      -6.8      6.511      9.336
REMARK  Name = 
REMARK  5 active torsions:
REMARK  status: ('A' for Active; 'I' for Inactive)
REMARK    1  A    between atoms: C_1  and  C_2
REMARK    2  A    between atoms: C_2  and  O_3
REMARK    3  A    between atoms: O_3  and  C_4
REMARK    4  A    between atoms: N_8  and  C_9
REMARK    5  A    between atoms: C_12  and  C_13
REMARK                            x       y       z     vdW  Elec       q    Type
REMARK                         _______ _______ _______ _____ _____    ______ ____
ROOT
ATOM      1  C   UNL     1       1.004   9.466  19.214  0.00  0.00    +0.000 A 
ATOM      2  C   UNL     1       1.590   9.076  18.011  0.00  0.00    +0.000 A 
ATOM      3  C   UNL     1       2.338   7.897  17.928  0.00  0.00    +0.000 A 
ATOM      4  C   UNL     1       2.539   7.074  19.046  0.00  0.00    +0.000 A 
ATOM      5  C   UNL     1       1.923   7.450  20.243  0.00  0.00    +0.000 A 
ATOM      6  C   UNL     1       1.179   8.629  20.323  0.00  0.00    +0.000 A 
ENDROOT
BRANCH   1  11
ATOM      7  C   UNL     1      -3.602  11.171  17.764  0.00  0.00    +0.000 A 
ATOM      8  C   UNL     1      -2.939   9.975  17.663  0.00  0.00    +0.000 A 
ATOM      9  N   UNL     1      -1.710   9.765  18.157  0.00  0.00    +0.000 NA
ATOM     10  C   UNL     1      -1.096  10.781  18.777  0.00  0.00    +0.000 A 
ATOM     11  N   UNL     1       0.201  10.609  19.247  0.00  0.00    +0.000 N 
ATOM     12  N   UNL     1      -1.649  11.992  18.931  0.00  0.00    +0.000 NA
ATOM     13  C   UNL     1      -2.902  12.152  18.431  0.00  0.00    +0.000 A 
ATOM     14  H   UNL     1       0.629  11.492  19.468  0.00  0.00    +0.000 HD
BRANCH   7  15
ATOM     15  O   UNL     1      -4.837  11.463  17.280  0.00  0.00    +0.000 OA
BRANCH  15  17
ATOM     16  C   UNL     1      -6.508  13.173  17.199  0.00  0.00    +0.000 C 
ATOM     17  C   UNL     1      -5.610  12.349  18.096  0.00  0.00    +0.000 C 
ENDBRANCH  15  17
ENDBRANCH   7  15
ENDBRANCH   1  11
BRANCH   4  18
ATOM     18  C   UNL     1       3.396   5.808  19.010  0.00  0.00    +0.000 C 
ATOM     19  C   UNL     1       3.235   5.037  17.683  0.00  0.00    +0.000 C 
ATOM     20  C   UNL     1       1.877   4.341  17.612  0.00  0.00    +0.000 C 
ATOM     21  C   UNL     1       1.610   3.479  18.846  0.00  0.00    +0.000 C 
ATOM     22  N   UNL     1       1.826   4.188  20.105  0.00  0.00    +0.000 NA
ATOM     23  C   UNL     1       3.154   4.811  20.167  0.00  0.00    +0.000 C 
ATOM     24  H   UNL     1       1.699   3.554  20.892  0.00  0.00    +0.000 HD
ENDBRANCH   4  18
TORSDOF 4
ENDMDL
MODEL 6
REMARK VINA RESULT:      -6.8      6.812      9.168
REMARK  Name = 
REMARK  5 active torsions:
REMARK  status: ('A' for Active; 'I' for Inactive)
REMARK    1  A    between atoms: C_1  and  C_2
REMARK    2  A    between atoms: C_2  and  O_3
REMARK    3  A    between atoms: O_3  and  C_4
REMARK    4  A    between atoms: N_8  and  C_9
REMARK    5  A    between atoms: C_12  and  C_13
REMARK                            x       y       z     vdW  Elec       q    Type
REMARK                         _______ _______ _______ _____ _____    ______ ____
ROOT
ATOM      1  C   UNL     1       0.972   9.739  19.019  0.00  0.00    +0.000 A 
ATOM      2  C   UNL     1       1.580   9.191  17.891  0.00  0.00    +0.000 A 
ATOM      3  C   UNL     1       2.263   7.972  17.967  0.00  0.00    +0.000 A 
ATOM      4  C   UNL     1       2.374   7.265  19.173  0.00  0.00    +0.000 A 
ATOM      5  C   UNL     1       1.735   7.800  20.295  0.00  0.00    +0.000 A 
ATOM      6  C   UNL     1       1.057   9.019  20.217  0.00  0.00    +0.000 A 
ENDROOT
BRANCH   1  11
ATOM      7  C   UNL     1       1.536  14.828  18.943  0.00  0.00    +0.000 A 
ATOM      8  C   UNL     1       2.391  13.763  19.067  0.00  0.00    +0.000 A 
ATOM      9  N   UNL     1       1.991  12.483  19.033  0.00  0.00    +0.000 NA
ATOM     10  C   UNL     1       0.684  12.234  18.875  0.00  0.00    +0.000 A 
ATOM     11  N   UNL     1       0.235  10.919  18.895  0.00  0.00    +0.000 N 
ATOM     12  N   UNL     1      -0.238  13.197  18.746  0.00  0.00    +0.000 NA
ATOM     13  C   UNL     1       0.216  14.476  18.768  0.00  0.00    +0.000 A 
ATOM     14  H   UNL     1      -0.764  10.876  19.009  0.00  0.00    +0.000 HD
BRANCH   7  15
ATOM     15  O   UNL     1       1.863  16.145  18.979  0.00  0.00    +0.000 OA
BRANCH  15  17
ATOM     16  C   UNL     1       3.017  16.922  17.033  0.00  0.00    +0.000 C 
ATOM     17  C   UNL     1       3.161  16.459  18.467  0.00  0.00    +0.000 C 
ENDBRANCH  15  17
ENDBRANCH   7  15
ENDBRANCH   1  11
BRANCH   4  18
ATOM     18  C   UNL     1       3.158   5.960  19.310  0.00  0.00    +0.000 C 
ATOM     19  C   UNL     1       3.162   5.147  17.998  0.00  0.00    +0.000 C 
ATOM     20  C   UNL     1       1.797   4.514  17.737  0.00  0.00    +0.000 C 
ATOM     21  C   UNL     1       1.298   3.713  18.941  0.00  0.00    +0.000 C 
ATOM     22  N   UNL     1       1.355   4.459  20.196  0.00  0.00    +0.000 NA
ATOM     23  C   UNL     1       2.689   5.020  20.445  0.00  0.00    +0.000 C 
ATOM     24  H   UNL     1       1.075   3.862  20.972  0.00  0.00    +0.000 HD
ENDBRANCH   4  18
TORSDOF 4
ENDMDL
MODEL 7
REMARK VINA RESULT:      -6.8      5.692      8.969
REMARK  Name = 
REMARK  5 active torsions:
REMARK  status: ('A' for Active; 'I' for Inactive)
REMARK    1  A    between atoms: C_1  and  C_2
REMARK    2  A    between atoms: C_2  and  O_3
REMARK    3  A    between atoms: O_3  and  C_4
REMARK    4  A    between atoms: N_8  and  C_9
REMARK    5  A    between atoms: C_12  and  C_13
REMARK                            x       y       z     vdW  Elec       q    Type
REMARK                         _______ _______ _______ _____ _____    ______ ____
ROOT
ATOM      1  C   UNL     1       1.920   7.211  20.384  0.00  0.00    +0.000 A 
ATOM      2  C   UNL     1       2.457   7.436  19.118  0.00  0.00    +0.000 A 
ATOM      3  C   UNL     1       2.614   6.384  18.210  0.00  0.00    +0.000 A 
ATOM      4  C   UNL     1       2.253   5.069  18.538  0.00  0.00    +0.000 A 
ATOM      5  C   UNL     1       1.684   4.851  19.795  0.00  0.00    +0.000 A 
ATOM      6  C   UNL     1       1.532   5.903  20.702  0.00  0.00    +0.000 A 
ENDROOT
BRANCH   1  11
ATOM      7  C   UNL     1      -0.868  11.483  20.826  0.00  0.00    +0.000 A 
ATOM      8  C   UNL     1      -0.777  10.482  19.894  0.00  0.00    +0.000 A 
ATOM      9  N   UNL     1       0.039   9.425  20.020  0.00  0.00    +0.000 NA
ATOM     10  C   UNL     1       0.810   9.347  21.113  0.00  0.00    +0.000 A 
ATOM     11  N   UNL     1       1.706   8.293  21.241  0.00  0.00    +0.000 N 
ATOM     12  N   UNL     1       0.802  10.270  22.085  0.00  0.00    +0.000 NA
ATOM     13  C   UNL     1      -0.052  11.313  21.922  0.00  0.00    +0.000 A 
ATOM     14  H   UNL     1       2.380   8.474  21.966  0.00  0.00    +0.000 HD
BRANCH   7  15
ATOM     15  O   UNL     1      -1.657  12.587  20.763  0.00  0.00    +0.000 OA
BRANCH  15  17
ATOM     16  C   UNL     1      -4.028  12.809  20.535  0.00  0.00    +0.000 C 
ATOM     17  C   UNL     1      -2.729  12.509  19.819  0.00  0.00    +0.000 C 
ENDBRANCH  15  17
ENDBRANCH   7  15
ENDBRANCH   1  11
BRANCH   4  18
ATOM     18  C   UNL     1       2.461   3.884  17.595  0.00  0.00    +0.000 C 
ATOM     19  C   UNL     1       1.747   2.612  18.098  0.00  0.00    +0.000 C 
ATOM     20  C   UNL     1       2.468   2.014  19.304  0.00  0.00    +0.000 C 
ATOM     21  C   UNL     1       3.958   1.802  19.032  0.00  0.00    +0.000 C 
ATOM     22  N   UNL     1       4.623   2.986  18.494  0.00  0.00    +0.000 NA
ATOM     23  C   UNL     1       3.935   3.515  17.309  0.00  0.00    +0.000 C 
ATOM     24  H   UNL     1       5.593   2.773  18.270  0.00  0.00    +0.000 HD
ENDBRANCH   4  18
TORSDOF 4
ENDMDL
MODEL 8
REMARK VINA RESULT:      -6.8      6.030      8.656
REMARK  Name = 
REMARK  5 active torsions:
REMARK  status: ('A' for Active; 'I' for Inactive)
REMARK    1  A    between atoms: C_1  and  C_2
REMARK    2  A    between atoms: C_2  and  O_3
REMARK    3  A    between atoms: O_3  and  C_4
REMARK    4  A    between atoms: N_8  and  C_9
REMARK    5  A    between atoms: C_12  and  C_13
REMARK                            x       y       z     vdW  Elec       q    Type
REMARK                         _______ _______ _______ _____ _____    ______ ____
ROOT
ATOM      1  C   UNL     1       1.556   8.764  19.209  0.00  0.00    +0.000 A 
ATOM      2  C   UNL     1       1.382   8.154  20.449  0.00  0.00    +0.000 A 
ATOM      3  C   UNL     1       1.868   6.864  20.687  0.00  0.00    +0.000 A 
ATOM      4  C   UNL     1       2.532   6.133  19.691  0.00  0.00    +0.000 A 
ATOM      5  C   UNL     1       2.735   6.760  18.459  0.00  0.00    +0.000 A 
ATOM      6  C   UNL     1       2.245   8.047  18.223  0.00  0.00    +0.000 A 
ENDROOT
BRANCH   1  11
ATOM      7  C   UNL     1      -2.591  11.483  17.930  0.00  0.00    +0.000 A 
ATOM      8  C   UNL     1      -2.321  10.147  18.081  0.00  0.00    +0.000 A 
ATOM      9  N   UNL     1      -1.125   9.671  18.457  0.00  0.00    +0.000 NA
ATOM     10  C   UNL     1      -0.140  10.549  18.691  0.00  0.00    +0.000 A 
ATOM     11  N   UNL     1       1.125  10.081  19.026  0.00  0.00    +0.000 N 
ATOM     12  N   UNL     1      -0.293  11.875  18.573  0.00  0.00    +0.000 NA
ATOM     13  C   UNL     1      -1.526  12.311  18.208  0.00  0.00    +0.000 A 
ATOM     14  H   UNL     1       1.817  10.806  18.940  0.00  0.00    +0.000 HD
BRANCH   7  15
ATOM     15  O   UNL     1      -3.768  12.039  17.542  0.00  0.00    +0.000 OA
BRANCH  15  17
ATOM     16  C   UNL     1      -6.134  11.749  17.743  0.00  0.00    +0.000 C 
ATOM     17  C   UNL     1      -4.830  11.107  17.320  0.00  0.00    +0.000 C 
ENDBRANCH  15  17
ENDBRANCH   7  15
ENDBRANCH   1  11
BRANCH   4  18
ATOM     18  C   UNL     1       3.029   4.702  19.894  0.00  0.00    +0.000 C 
ATOM     19  C   UNL     1       3.035   3.899  18.575  0.00  0.00    +0.000 C 
ATOM     20  C   UNL     1       1.615   3.541  18.141  0.00  0.00    +0.000 C 
ATOM     21  C   UNL     1       0.830   2.856  19.260  0.00  0.00    +0.000 C 
ATOM     22  N   UNL     1       0.877   3.581  20.528  0.00  0.00    +0.000 NA
ATOM     23  C   UNL     1       2.253   3.874  20.945  0.00  0.00    +0.000 C 
ATOM     24  H   UNL     1       0.396   3.052  21.253  0.00  0.00    +0.000 HD
ENDBRANCH   4  18
TORSDOF 4
ENDMDL
MODEL 9
REMARK VINA RESULT:      -6.8      5.799      9.110
REMARK  Name = 
REMARK  5 active torsions:
REMARK  status: ('A' for Active; 'I' for Inactive)
REMARK    1  A    between atoms: C_1  and  C_2
REMARK    2  A    between atoms: C_2  and  O_3
REMARK    3  A    between atoms: O_3  and  C_4
REMARK    4  A    between atoms: N_8  and  C_9
REMARK    5  A    between atoms: C_12  and  C_13
REMARK                            x       y       z     vdW  Elec       q    Type
REMARK                         _______ _______ _______ _____ _____    ______ ____
ROOT
ATOM      1  C   UNL     1       1.834   7.406  20.252  0.00  0.00    +0.000 A 
ATOM      2  C   UNL     1       1.533   6.112  20.671  0.00  0.00    +0.000 A 
ATOM      3  C   UNL     1       1.795   5.013  19.846  0.00  0.00    +0.000 A 
ATOM      4  C   UNL     1       2.355   5.169  18.570  0.00  0.00    +0.000 A 
ATOM      5  C   UNL     1       2.688   6.465  18.166  0.00  0.00    +0.000 A 
ATOM      6  C   UNL     1       2.421   7.560  18.990  0.00  0.00    +0.000 A 
ENDROOT
BRANCH   1  11
ATOM      7  C   UNL     1      -0.876  11.723  20.742  0.00  0.00    +0.000 A 
ATOM      8  C   UNL     1      -0.792  10.738  19.792  0.00  0.00    +0.000 A 
ATOM      9  N   UNL     1       0.002   9.663  19.907  0.00  0.00    +0.000 NA
ATOM     10  C   UNL     1       0.756   9.549  21.008  0.00  0.00    +0.000 A 
ATOM     11  N   UNL     1       1.630   8.476  21.128  0.00  0.00    +0.000 N 
ATOM     12  N   UNL     1       0.753  10.452  21.998  0.00  0.00    +0.000 NA
ATOM     13  C   UNL     1      -0.080  11.514  21.846  0.00  0.00    +0.000 A 
ATOM     14  H   UNL     1       2.298   8.628  21.865  0.00  0.00    +0.000 HD
BRANCH   7  15
ATOM     15  O   UNL     1      -1.643  12.842  20.691  0.00  0.00    +0.000 OA
BRANCH  15  17
ATOM     16  C   UNL     1      -3.551  13.010  22.124  0.00  0.00    +0.000 C 
ATOM     17  C   UNL     1      -3.054  12.611  20.752  0.00  0.00    +0.000 C 
ENDBRANCH  15  17
ENDBRANCH   7  15
ENDBRANCH   1  11
BRANCH   4  18
ATOM     18  C   UNL     1       2.605   4.000  17.617  0.00  0.00    +0.000 C 
ATOM     19  C   UNL     1       1.832   2.733  18.039  0.00  0.00    +0.000 C 
ATOM     20  C   UNL     1       2.454   2.095  19.279  0.00  0.00    +0.000 C 
ATOM     21  C   UNL     1       3.955   1.856  19.107  0.00  0.00    +0.000 C 
ATOM     22  N   UNL     1       4.680   3.037  18.644  0.00  0.00    +0.000 NA
ATOM     23  C   UNL     1       4.088   3.605  17.427  0.00  0.00    +0.000 C 
ATOM     24  H   UNL     1       5.659   2.807  18.484  0.00  0.00    +0.000 HD
ENDBRANCH   4  18
TORSDOF 4
ENDMDL
