MODEL 1
REMARK VINA RESULT:      -7.6      0.000      0.000
REMARK  Name = 
REMARK  6 active torsions:
REMARK  status: ('A' for Active; 'I' for Inactive)
REMARK    1  A    between atoms: C_1  and  O_2
REMARK    2  A    between atoms: O_2  and  C_3
REMARK    3  A    between atoms: C_6  and  N_7
REMARK    4  A    between atoms: N_7  and  C_8
REMARK    5  A    between atoms: C_11  and  C_12
REMARK    6  A    between atoms: C_12  and  O_14
REMARK                            x       y       z     vdW  Elec       q    Type
REMARK                         _______ _______ _______ _____ _____    ______ ____
ROOT
ATOM      1  C   UNL     1       5.384   5.136  17.404  0.00  0.00    +0.000 A 
ATOM      2  C   UNL     1       5.547   6.518  17.355  0.00  0.00    +0.000 A 
ATOM      3  C   UNL     1       4.456   7.355  17.545  0.00  0.00    +0.000 A 
ATOM      4  C   UNL     1       3.173   6.846  17.810  0.00  0.00    +0.000 A 
ATOM      5  C   UNL     1       2.972   5.431  17.795  0.00  0.00    +0.000 A 
ATOM      6  C   UNL     1       1.704   4.818  17.970  0.00  0.00    +0.000 A 
ATOM      7  C   UNL     1       1.541   3.431  17.974  0.00  0.00    +0.000 A 
ATOM      8  C   UNL     1       2.641   2.608  17.798  0.00  0.00    +0.000 A 
ATOM      9  C   UNL     1       3.899   3.176  17.610  0.00  0.00    +0.000 A 
ATOM     10  C   UNL     1       4.095   4.576  17.600  0.00  0.00    +0.000 A 
ENDROOT
BRANCH   1  12
ATOM     11  C   UNL     1       7.675   4.625  17.782  0.00  0.00    +0.000 C 
ATOM     12  O   UNL     1       6.427   4.260  17.201  0.00  0.00    +0.000 OA
ENDBRANCH   1  12
BRANCH   4  13
ATOM     13  N   UNL     1       2.098   7.767  17.968  0.00  0.00    +0.000 N 
ATOM     14  H   UNL     1       1.268   7.464  17.465  0.00  0.00    +0.000 HD
BRANCH  13  15
ATOM     15  C   UNL     1       1.676   8.382  19.174  0.00  0.00    +0.000 A 
ATOM     16  C   UNL     1       1.046   9.629  19.107  0.00  0.00    +0.000 A 
ATOM     17  C   UNL     1       0.534  10.234  20.260  0.00  0.00    +0.000 A 
ATOM     18  C   UNL     1       0.629   9.586  21.497  0.00  0.00    +0.000 A 
ATOM     19  C   UNL     1       1.231   8.324  21.571  0.00  0.00    +0.000 A 
ATOM     20  C   UNL     1       1.741   7.728  20.413  0.00  0.00    +0.000 A 
BRANCH  18  21
ATOM     21  C   UNL     1       0.008  10.243  22.677  0.00  0.00    +0.000 C 
ATOM     22  O   UNL     1      -0.308  11.422  22.679  0.00  0.00    +0.000 OA
BRANCH  21  23
ATOM     23  O   UNL     1      -0.149   9.446  23.752  0.00  0.00    +0.000 OA
ATOM     24  H   UNL     1       0.036   8.501  23.606  0.00  0.00    +0.000 HD
ENDBRANCH  21  23
ENDBRANCH  18  21
ENDBRANCH  13  15
ENDBRANCH   4  13
TORSDOF 5
ENDMDL
MODEL 2
REMARK VINA RESULT:      -7.6      2.461      7.527
REMARK  Name = 
REMARK  6 active torsions:
REMARK  status: ('A' for Active; 'I' for Inactive)
REMARK    1  A    between atoms: C_1  and  O_2
REMARK    2  A    between atoms: O_2  and  C_3
REMARK    3  A    between atoms: C_6  and  N_7
REMARK    4  A    between atoms: N_7  and  C_8
REMARK    5  A    between atoms: C_11  and  C_12
REMARK    6  A    between atoms: C_12  and  O_14
REMARK                            x       y       z     vdW  Elec       q    Type
REMARK                         _______ _______ _______ _____ _____    ______ ____
ROOT
ATOM      1  C   UNL     1      -0.260  10.940  19.318  0.00  0.00    +0.000 A 
ATOM      2  C   UNL     1       0.536  10.348  18.341  0.00  0.00    +0.000 A 
ATOM      3  C   UNL     1       1.353   9.274  18.665  0.00  0.00    +0.000 A 
ATOM      4  C   UNL     1       1.389   8.740  19.964  0.00  0.00    +0.000 A 
ATOM      5  C   UNL     1       0.632   9.377  20.997  0.00  0.00    +0.000 A 
ATOM      6  C   UNL     1       0.663   8.968  22.356  0.00  0.00    +0.000 A 
ATOM      7  C   UNL     1      -0.106   9.595  23.339  0.00  0.00    +0.000 A 
ATOM      8  C   UNL     1      -0.927  10.657  22.998  0.00  0.00    +0.000 A 
ATOM      9  C   UNL     1      -0.971  11.094  21.676  0.00  0.00    +0.000 A 
ATOM     10  C   UNL     1      -0.205  10.479  20.659  0.00  0.00    +0.000 A 
ENDROOT
BRANCH   1  12
ATOM     11  C   UNL     1      -0.468  13.103  18.354  0.00  0.00    +0.000 C 
ATOM     12  O   UNL     1      -1.072  12.022  19.056  0.00  0.00    +0.000 OA
ENDBRANCH   1  12
BRANCH   4  13
ATOM     13  N   UNL     1       2.271   7.652  20.227  0.00  0.00    +0.000 N 
ATOM     14  H   UNL     1       2.549   7.623  21.204  0.00  0.00    +0.000 HD
BRANCH  13  15
ATOM     15  C   UNL     1       2.132   6.316  19.772  0.00  0.00    +0.000 A 
ATOM     16  C   UNL     1       2.676   5.970  18.531  0.00  0.00    +0.000 A 
ATOM     17  C   UNL     1       2.642   4.646  18.080  0.00  0.00    +0.000 A 
ATOM     18  C   UNL     1       2.078   3.644  18.880  0.00  0.00    +0.000 A 
ATOM     19  C   UNL     1       1.558   3.975  20.136  0.00  0.00    +0.000 A 
ATOM     20  C   UNL     1       1.596   5.302  20.577  0.00  0.00    +0.000 A 
BRANCH  18  21
ATOM     21  C   UNL     1       2.130   2.245  18.381  0.00  0.00    +0.000 C 
ATOM     22  O   UNL     1       3.084   1.806  17.759  0.00  0.00    +0.000 OA
BRANCH  21  23
ATOM     23  O   UNL     1       1.030   1.510  18.641  0.00  0.00    +0.000 OA
ATOM     24  H   UNL     1       0.538   1.758  19.444  0.00  0.00    +0.000 HD
ENDBRANCH  21  23
ENDBRANCH  18  21
ENDBRANCH  13  15
ENDBRANCH   4  13
TORSDOF 5
ENDMDL
MODEL 3
REMARK VINA RESULT:      -7.4      2.153      3.497
REMARK  Name = 
REMARK  6 active torsions:
REMARK  status: ('A' for Active; 'I' for Inactive)
REMARK    1  A    between atoms: C_1  and  O_2
REMARK    2  A    between atoms: O_2  and  C_3
REMARK    3  A    between atoms: C_6  and  N_7
REMARK    4  A    between atoms: N_7  and  C_8
REMARK    5  A    between atoms: C_11  and  C_12
REMARK    6  A    between atoms: C_12  and  O_14
REMARK                            x       y       z     vdW  Elec       q    Type
REMARK                         _______ _______ _______ _____ _____    ______ ____
ROOT
ATOM      1  C   UNL     1       2.622   3.537  18.372  0.00  0.00    +0.000 A 
ATOM      2  C   UNL     1       1.838   3.829  19.485  0.00  0.00    +0.000 A 
ATOM      3  C   UNL     1       1.814   5.118  20.000  0.00  0.00    +0.000 A 
ATOM      4  C   UNL     1       2.551   6.161  19.415  0.00  0.00    +0.000 A 
ATOM      5  C   UNL     1       3.416   5.866  18.315  0.00  0.00    +0.000 A 
ATOM      6  C   UNL     1       4.263   6.828  17.705  0.00  0.00    +0.000 A 
ATOM      7  C   UNL     1       5.081   6.516  16.616  0.00  0.00    +0.000 A 
ATOM      8  C   UNL     1       5.084   5.229  16.103  0.00  0.00    +0.000 A 
ATOM      9  C   UNL     1       4.275   4.257  16.687  0.00  0.00    +0.000 A 
ATOM     10  C   UNL     1       3.437   4.542  17.790  0.00  0.00    +0.000 A 
ENDROOT
BRANCH   1  12
ATOM     11  C   UNL     1       3.532   1.346  18.525  0.00  0.00    +0.000 C 
ATOM     12  O   UNL     1       2.701   2.272  17.834  0.00  0.00    +0.000 OA
ENDBRANCH   1  12
BRANCH   4  13
ATOM     13  N   UNL     1       2.496   7.452  20.016  0.00  0.00    +0.000 N 
ATOM     14  H   UNL     1       3.418   7.875  20.082  0.00  0.00    +0.000 HD
BRANCH  13  15
ATOM     15  C   UNL     1       1.564   8.482  19.732  0.00  0.00    +0.000 A 
ATOM     16  C   UNL     1       1.446   8.937  18.415  0.00  0.00    +0.000 A 
ATOM     17  C   UNL     1       0.479   9.888  18.072  0.00  0.00    +0.000 A 
ATOM     18  C   UNL     1      -0.399  10.383  19.044  0.00  0.00    +0.000 A 
ATOM     19  C   UNL     1      -0.310   9.912  20.358  0.00  0.00    +0.000 A 
ATOM     20  C   UNL     1       0.662   8.962  20.692  0.00  0.00    +0.000 A 
BRANCH  18  21
ATOM     21  C   UNL     1      -1.450  11.340  18.609  0.00  0.00    +0.000 C 
ATOM     22  O   UNL     1      -2.281  11.795  19.378  0.00  0.00    +0.000 OA
BRANCH  21  23
ATOM     23  O   UNL     1      -1.431  11.642  17.295  0.00  0.00    +0.000 OA
ATOM     24  H   UNL     1      -2.105  11.196  16.751  0.00  0.00    +0.000 HD
ENDBRANCH  21  23
ENDBRANCH  18  21
ENDBRANCH  13  15
ENDBRANCH   4  13
TORSDOF 5
ENDMDL
MODEL 4
REMARK VINA RESULT:      -7.4      2.091      3.495
REMARK  Name = 
REMARK  6 active torsions:
REMARK  status: ('A' for Active; 'I' for Inactive)
REMARK    1  A    between atoms: C_1  and  O_2
REMARK    2  A    between atoms: O_2  and  C_3
REMARK    3  A    between atoms: C_6  and  N_7
REMARK    4  A    between atoms: N_7  and  C_8
REMARK    5  A    between atoms: C_11  and  C_12
REMARK    6  A    between atoms: C_12  and  O_14
REMARK                            x       y       z     vdW  Elec       q    Type
REMARK                         _______ _______ _______ _____ _____    ______ ____
ROOT
ATOM      1  C   UNL     1       2.741   3.427  18.325  0.00  0.00    +0.000 A 
ATOM      2  C   UNL     1       1.956   3.718  19.438  0.00  0.00    +0.000 A 
ATOM      3  C   UNL     1       1.899   5.015  19.930  0.00  0.00    +0.000 A 
ATOM      4  C   UNL     1       2.601   6.068  19.320  0.00  0.00    +0.000 A 
ATOM      5  C   UNL     1       3.467   5.777  18.219  0.00  0.00    +0.000 A 
ATOM      6  C   UNL     1       4.282   6.751  17.585  0.00  0.00    +0.000 A 
ATOM      7  C   UNL     1       5.100   6.443  16.496  0.00  0.00    +0.000 A 
ATOM      8  C   UNL     1       5.137   5.147  16.007  0.00  0.00    +0.000 A 
ATOM      9  C   UNL     1       4.360   4.163  16.614  0.00  0.00    +0.000 A 
ATOM     10  C   UNL     1       3.522   4.444  17.718  0.00  0.00    +0.000 A 
ENDROOT
BRANCH   1  12
ATOM     11  C   UNL     1       3.654   1.245  18.554  0.00  0.00    +0.000 C 
ATOM     12  O   UNL     1       2.852   2.155  17.810  0.00  0.00    +0.000 OA
ENDBRANCH   1  12
BRANCH   4  13
ATOM     13  N   UNL     1       2.513   7.367  19.897  0.00  0.00    +0.000 N 
ATOM     14  H   UNL     1       3.428   7.803  19.981  0.00  0.00    +0.000 HD
BRANCH  13  15
ATOM     15  C   UNL     1       1.576   8.380  19.571  0.00  0.00    +0.000 A 
ATOM     16  C   UNL     1       0.823   8.953  20.600  0.00  0.00    +0.000 A 
ATOM     17  C   UNL     1      -0.050  10.016  20.340  0.00  0.00    +0.000 A 
ATOM     18  C   UNL     1      -0.164  10.533  19.044  0.00  0.00    +0.000 A 
ATOM     19  C   UNL     1       0.608   9.986  18.013  0.00  0.00    +0.000 A 
ATOM     20  C   UNL     1       1.476   8.923  18.282  0.00  0.00    +0.000 A 
BRANCH  18  21
ATOM     21  C   UNL     1      -1.054  11.706  18.839  0.00  0.00    +0.000 C 
ATOM     22  O   UNL     1      -2.026  11.923  19.545  0.00  0.00    +0.000 OA
BRANCH  21  23
ATOM     23  O   UNL     1      -0.724  12.491  17.794  0.00  0.00    +0.000 OA
ATOM     24  H   UNL     1      -1.430  12.642  17.141  0.00  0.00    +0.000 HD
ENDBRANCH  21  23
ENDBRANCH  18  21
ENDBRANCH  13  15
ENDBRANCH   4  13
TORSDOF 5
ENDMDL
MODEL 5
REMARK VINA RESULT:      -7.4      1.959      2.541
REMARK  Name = 
REMARK  6 active torsions:
REMARK  status: ('A' for Active; 'I' for Inactive)
REMARK    1  A    between atoms: C_1  and  O_2
REMARK    2  A    between atoms: O_2  and  C_3
REMARK    3  A    between atoms: C_6  and  N_7
REMARK    4  A    between atoms: N_7  and  C_8
REMARK    5  A    between atoms: C_11  and  C_12
REMARK    6  A    between atoms: C_12  and  O_14
REMARK                            x       y       z     vdW  Elec       q    Type
REMARK                         _______ _______ _______ _____ _____    ______ ____
ROOT
ATOM      1  C   UNL     1       3.863   4.603  17.284  0.00  0.00    +0.000 A 
ATOM      2  C   UNL     1       4.305   5.919  17.387  0.00  0.00    +0.000 A 
ATOM      3  C   UNL     1       3.786   6.754  18.368  0.00  0.00    +0.000 A 
ATOM      4  C   UNL     1       2.827   6.301  19.290  0.00  0.00    +0.000 A 
ATOM      5  C   UNL     1       2.310   4.974  19.158  0.00  0.00    +0.000 A 
ATOM      6  C   UNL     1       1.283   4.448  19.984  0.00  0.00    +0.000 A 
ATOM      7  C   UNL     1       0.814   3.140  19.847  0.00  0.00    +0.000 A 
ATOM      8  C   UNL     1       1.351   2.314  18.873  0.00  0.00    +0.000 A 
ATOM      9  C   UNL     1       2.351   2.803  18.035  0.00  0.00    +0.000 A 
ATOM     10  C   UNL     1       2.846   4.122  18.149  0.00  0.00    +0.000 A 
ENDROOT
BRANCH   1  12
ATOM     11  C   UNL     1       5.406   4.214  15.519  0.00  0.00    +0.000 C 
ATOM     12  O   UNL     1       4.327   3.740  16.317  0.00  0.00    +0.000 OA
ENDBRANCH   1  12
BRANCH   4  13
ATOM     13  N   UNL     1       2.323   7.223  20.252  0.00  0.00    +0.000 N 
ATOM     14  H   UNL     1       3.040   7.500  20.917  0.00  0.00    +0.000 HD
BRANCH  13  15
ATOM     15  C   UNL     1       1.502   8.351  20.000  0.00  0.00    +0.000 A 
ATOM     16  C   UNL     1       1.471   8.882  18.707  0.00  0.00    +0.000 A 
ATOM     17  C   UNL     1       0.610   9.938  18.389  0.00  0.00    +0.000 A 
ATOM     18  C   UNL     1      -0.249  10.464  19.362  0.00  0.00    +0.000 A 
ATOM     19  C   UNL     1      -0.247   9.920  20.651  0.00  0.00    +0.000 A 
ATOM     20  C   UNL     1       0.618   8.865  20.959  0.00  0.00    +0.000 A 
BRANCH  18  21
ATOM     21  C   UNL     1      -1.190  11.540  18.950  0.00  0.00    +0.000 C 
ATOM     22  O   UNL     1      -2.174  11.835  19.608  0.00  0.00    +0.000 OA
BRANCH  21  23
ATOM     23  O   UNL     1      -0.887  12.139  17.782  0.00  0.00    +0.000 OA
ATOM     24  H   UNL     1      -1.290  11.743  16.988  0.00  0.00    +0.000 HD
ENDBRANCH  21  23
ENDBRANCH  18  21
ENDBRANCH  13  15
ENDBRANCH   4  13
TORSDOF 5
ENDMDL
MODEL 6
REMARK VINA RESULT:      -7.3      1.760      2.405
REMARK  Name = 
REMARK  6 active torsions:
REMARK  status: ('A' for Active; 'I' for Inactive)
REMARK    1  A    between atoms: C_1  and  O_2
REMARK    2  A    between atoms: O_2  and  C_3
REMARK    3  A    between atoms: C_6  and  N_7
REMARK    4  A    between atoms: N_7  and  C_8
REMARK    5  A    between atoms: C_11  and  C_12
REMARK    6  A    between atoms: C_12  and  O_14
REMARK                            x       y       z     vdW  Elec       q    Type
REMARK                         _______ _______ _______ _____ _____    ______ ____
ROOT
ATOM      1  C   UNL     1       4.512   4.306  17.133  0.00  0.00    +0.000 A 
ATOM      2  C   UNL     1       4.990   5.597  17.336  0.00  0.00    +0.000 A 
ATOM      3  C   UNL     1       4.391   6.420  18.281  0.00  0.00    +0.000 A 
ATOM      4  C   UNL     1       3.313   5.979  19.067  0.00  0.00    +0.000 A 
ATOM      5  C   UNL     1       2.764   4.681  18.825  0.00  0.00    +0.000 A 
ATOM      6  C   UNL     1       1.627   4.172  19.505  0.00  0.00    +0.000 A 
ATOM      7  C   UNL     1       1.127   2.890  19.264  0.00  0.00    +0.000 A 
ATOM      8  C   UNL     1       1.744   2.075  18.329  0.00  0.00    +0.000 A 
ATOM      9  C   UNL     1       2.854   2.548  17.633  0.00  0.00    +0.000 A 
ATOM     10  C   UNL     1       3.383   3.840  17.854  0.00  0.00    +0.000 A 
ENDROOT
BRANCH   1  12
ATOM     11  C   UNL     1       6.098   3.993  15.390  0.00  0.00    +0.000 C 
ATOM     12  O   UNL     1       5.054   3.456  16.194  0.00  0.00    +0.000 OA
ENDBRANCH   1  12
BRANCH   4  13
ATOM     13  N   UNL     1       2.735   6.889  19.998  0.00  0.00    +0.000 N 
ATOM     14  H   UNL     1       3.421   7.227  20.668  0.00  0.00    +0.000 HD
BRANCH  13  15
ATOM     15  C   UNL     1       1.849   7.956  19.705  0.00  0.00    +0.000 A 
ATOM     16  C   UNL     1       1.105   8.517  20.748  0.00  0.00    +0.000 A 
ATOM     17  C   UNL     1       0.285   9.628  20.524  0.00  0.00    +0.000 A 
ATOM     18  C   UNL     1       0.216  10.207  19.251  0.00  0.00    +0.000 A 
ATOM     19  C   UNL     1       0.979   9.673  18.207  0.00  0.00    +0.000 A 
ATOM     20  C   UNL     1       1.795   8.561  18.441  0.00  0.00    +0.000 A 
BRANCH  18  21
ATOM     21  C   UNL     1      -0.618  11.427  19.086  0.00  0.00    +0.000 C 
ATOM     22  O   UNL     1      -1.335  11.856  19.977  0.00  0.00    +0.000 OA
BRANCH  21  23
ATOM     23  O   UNL     1      -0.546  12.002  17.870  0.00  0.00    +0.000 OA
ATOM     24  H   UNL     1       0.200  11.716  17.313  0.00  0.00    +0.000 HD
ENDBRANCH  21  23
ENDBRANCH  18  21
ENDBRANCH  13  15
ENDBRANCH   4  13
TORSDOF 5
ENDMDL
MODEL 7
REMARK VINA RESULT:      -7.2      3.220      7.755
REMARK  Name = 
REMARK  6 active torsions:
REMARK  status: ('A' for Active; 'I' for Inactive)
REMARK    1  A    between atoms: C_1  and  O_2
REMARK    2  A    between atoms: O_2  and  C_3
REMARK    3  A    between atoms: C_6  and  N_7
REMARK    4  A    between atoms: N_7  and  C_8
REMARK    5  A    between atoms: C_11  and  C_12
REMARK    6  A    between atoms: C_12  and  O_14
REMARK                            x       y       z     vdW  Elec       q    Type
REMARK                         _______ _______ _______ _____ _____    ______ ____
ROOT
ATOM      1  C   UNL     1       2.506   6.493  19.585  0.00  0.00    +0.000 A 
ATOM      2  C   UNL     1       3.192   6.869  18.433  0.00  0.00    +0.000 A 
ATOM      3  C   UNL     1       3.928   5.929  17.723  0.00  0.00    +0.000 A 
ATOM      4  C   UNL     1       3.989   4.584  18.123  0.00  0.00    +0.000 A 
ATOM      5  C   UNL     1       3.350   4.193  19.341  0.00  0.00    +0.000 A 
ATOM      6  C   UNL     1       3.420   2.880  19.876  0.00  0.00    +0.000 A 
ATOM      7  C   UNL     1       2.765   2.522  21.057  0.00  0.00    +0.000 A 
ATOM      8  C   UNL     1       2.023   3.466  21.747  0.00  0.00    +0.000 A 
ATOM      9  C   UNL     1       1.944   4.768  21.258  0.00  0.00    +0.000 A 
ATOM     10  C   UNL     1       2.596   5.161  20.066  0.00  0.00    +0.000 A 
ENDROOT
BRANCH   1  12
ATOM     11  C   UNL     1       1.438   8.613  19.700  0.00  0.00    +0.000 C 
ATOM     12  O   UNL     1       1.780   7.387  20.339  0.00  0.00    +0.000 OA
ENDBRANCH   1  12
BRANCH   4  13
ATOM     13  N   UNL     1       4.786   3.684  17.358  0.00  0.00    +0.000 N 
ATOM     14  H   UNL     1       4.268   2.845  17.108  0.00  0.00    +0.000 HD
BRANCH  13  15
ATOM     15  C   UNL     1       5.634   4.013  16.272  0.00  0.00    +0.000 A 
ATOM     16  C   UNL     1       5.183   3.772  14.970  0.00  0.00    +0.000 A 
ATOM     17  C   UNL     1       5.947   4.161  13.865  0.00  0.00    +0.000 A 
ATOM     18  C   UNL     1       7.170   4.818  14.050  0.00  0.00    +0.000 A 
ATOM     19  C   UNL     1       7.617   5.091  15.348  0.00  0.00    +0.000 A 
ATOM     20  C   UNL     1       6.846   4.697  16.446  0.00  0.00    +0.000 A 
BRANCH  18  21
ATOM     21  C   UNL     1       7.907   5.269  12.840  0.00  0.00    +0.000 C 
ATOM     22  O   UNL     1       7.579   4.940  11.712  0.00  0.00    +0.000 OA
BRANCH  21  23
ATOM     23  O   UNL     1       8.983   6.042  13.089  0.00  0.00    +0.000 OA
ATOM     24  H   UNL     1       9.798   5.566  13.329  0.00  0.00    +0.000 HD
ENDBRANCH  21  23
ENDBRANCH  18  21
ENDBRANCH  13  15
ENDBRANCH   4  13
TORSDOF 5
ENDMDL
MODEL 8
REMARK VINA RESULT:      -7.2      3.113      7.735
REMARK  Name = 
REMARK  6 active torsions:
REMARK  status: ('A' for Active; 'I' for Inactive)
REMARK    1  A    between atoms: C_1  and  O_2
REMARK    2  A    between atoms: O_2  and  C_3
REMARK    3  A    between atoms: C_6  and  N_7
REMARK    4  A    between atoms: N_7  and  C_8
REMARK    5  A    between atoms: C_11  and  C_12
REMARK    6  A    between atoms: C_12  and  O_14
REMARK                            x       y       z     vdW  Elec       q    Type
REMARK                         _______ _______ _______ _____ _____    ______ ____
ROOT
ATOM      1  C   UNL     1       2.303   6.236  19.919  0.00  0.00    +0.000 A 
ATOM      2  C   UNL     1       3.258   6.806  19.082  0.00  0.00    +0.000 A 
ATOM      3  C   UNL     1       4.117   5.995  18.352  0.00  0.00    +0.000 A 
ATOM      4  C   UNL     1       4.040   4.594  18.414  0.00  0.00    +0.000 A 
ATOM      5  C   UNL     1       3.113   3.990  19.320  0.00  0.00    +0.000 A 
ATOM      6  C   UNL     1       3.012   2.588  19.519  0.00  0.00    +0.000 A 
ATOM      7  C   UNL     1       2.080   2.025  20.394  0.00  0.00    +0.000 A 
ATOM      8  C   UNL     1       1.220   2.846  21.105  0.00  0.00    +0.000 A 
ATOM      9  C   UNL     1       1.300   4.227  20.945  0.00  0.00    +0.000 A 
ATOM     10  C   UNL     1       2.233   4.826  20.067  0.00  0.00    +0.000 A 
ENDROOT
BRANCH   1  12
ATOM     11  C   UNL     1       1.381   8.380  20.371  0.00  0.00    +0.000 C 
ATOM     12  O   UNL     1       1.441   6.993  20.682  0.00  0.00    +0.000 OA
ENDBRANCH   1  12
BRANCH   4  13
ATOM     13  N   UNL     1       4.972   3.828  17.656  0.00  0.00    +0.000 N 
ATOM     14  H   UNL     1       4.677   2.859  17.567  0.00  0.00    +0.000 HD
BRANCH  13  15
ATOM     15  C   UNL     1       5.593   4.208  16.439  0.00  0.00    +0.000 A 
ATOM     16  C   UNL     1       6.885   4.742  16.484  0.00  0.00    +0.000 A 
ATOM     17  C   UNL     1       7.572   5.049  15.304  0.00  0.00    +0.000 A 
ATOM     18  C   UNL     1       6.979   4.805  14.059  0.00  0.00    +0.000 A 
ATOM     19  C   UNL     1       5.698   4.243  14.003  0.00  0.00    +0.000 A 
ATOM     20  C   UNL     1       5.019   3.942  15.188  0.00  0.00    +0.000 A 
BRANCH  18  21
ATOM     21  C   UNL     1       7.781   5.087  12.840  0.00  0.00    +0.000 C 
ATOM     22  O   UNL     1       7.560   4.543  11.770  0.00  0.00    +0.000 OA
BRANCH  21  23
ATOM     23  O   UNL     1       8.788   5.965  13.016  0.00  0.00    +0.000 OA
ATOM     24  H   UNL     1       9.379   6.087  12.251  0.00  0.00    +0.000 HD
ENDBRANCH  21  23
ENDBRANCH  18  21
ENDBRANCH  13  15
ENDBRANCH   4  13
TORSDOF 5
ENDMDL
MODEL 9
REMARK VINA RESULT:      -7.2      0.993      2.697
REMARK  Name = 
REMARK  6 active torsions:
REMARK  status: ('A' for Active; 'I' for Inactive)
REMARK    1  A    between atoms: C_1  and  O_2
REMARK    2  A    between atoms: O_2  and  C_3
REMARK    3  A    between atoms: C_6  and  N_7
REMARK    4  A    between atoms: N_7  and  C_8
REMARK    5  A    between atoms: C_11  and  C_12
REMARK    6  A    between atoms: C_12  and  O_14
REMARK                            x       y       z     vdW  Elec       q    Type
REMARK                         _______ _______ _______ _____ _____    ______ ____
ROOT
ATOM      1  C   UNL     1       3.514   3.730  17.615  0.00  0.00    +0.000 A 
ATOM      2  C   UNL     1       2.222   4.098  17.979  0.00  0.00    +0.000 A 
ATOM      3  C   UNL     1       1.888   5.440  18.102  0.00  0.00    +0.000 A 
ATOM      4  C   UNL     1       2.821   6.459  17.847  0.00  0.00    +0.000 A 
ATOM      5  C   UNL     1       4.171   6.101  17.540  0.00  0.00    +0.000 A 
ATOM      6  C   UNL     1       5.208   7.051  17.346  0.00  0.00    +0.000 A 
ATOM      7  C   UNL     1       6.514   6.673  17.023  0.00  0.00    +0.000 A 
ATOM      8  C   UNL     1       6.829   5.330  16.890  0.00  0.00    +0.000 A 
ATOM      9  C   UNL     1       5.838   4.371  17.087  0.00  0.00    +0.000 A 
ATOM     10  C   UNL     1       4.508   4.722  17.415  0.00  0.00    +0.000 A 
ENDROOT
BRANCH   1  12
ATOM     11  C   UNL     1       3.446   1.533  18.518  0.00  0.00    +0.000 C 
ATOM     12  O   UNL     1       3.905   2.415  17.500  0.00  0.00    +0.000 OA
ENDBRANCH   1  12
BRANCH   4  13
ATOM     13  N   UNL     1       2.412   7.813  18.019  0.00  0.00    +0.000 N 
ATOM     14  H   UNL     1       1.902   8.156  17.209  0.00  0.00    +0.000 HD
BRANCH  13  15
ATOM     15  C   UNL     1       1.826   8.383  19.177  0.00  0.00    +0.000 A 
ATOM     16  C   UNL     1       1.076   9.555  19.042  0.00  0.00    +0.000 A 
ATOM     17  C   UNL     1       0.406  10.105  20.140  0.00  0.00    +0.000 A 
ATOM     18  C   UNL     1       0.463   9.475  21.389  0.00  0.00    +0.000 A 
ATOM     19  C   UNL     1       1.187   8.285  21.528  0.00  0.00    +0.000 A 
ATOM     20  C   UNL     1       1.855   7.743  20.425  0.00  0.00    +0.000 A 
BRANCH  18  21
ATOM     21  C   UNL     1      -0.322  10.066  22.504  0.00  0.00    +0.000 C 
ATOM     22  O   UNL     1      -1.093  10.999  22.340  0.00  0.00    +0.000 OA
BRANCH  21  23
ATOM     23  O   UNL     1      -0.094   9.514  23.712  0.00  0.00    +0.000 OA
ATOM     24  H   UNL     1       0.533   8.769  23.723  0.00  0.00    +0.000 HD
ENDBRANCH  21  23
ENDBRANCH  18  21
ENDBRANCH  13  15
ENDBRANCH   4  13
TORSDOF 5
ENDMDL
