MODEL 1
REMARK VINA RESULT:      -7.7      0.000      0.000
REMARK  Name = 
REMARK  4 active torsions:
REMARK  status: ('A' for Active; 'I' for Inactive)
REMARK    1  A    between atoms: C_1  and  C_2
REMARK    2  A    between atoms: C_2  and  N_3
REMARK    3  A    between atoms: C_6  and  C_7
REMARK    4  A    between atoms: C_12  and  C_13
REMARK                            x       y       z     vdW  Elec       q    Type
REMARK                         _______ _______ _______ _____ _____    ______ ____
ROOT
ATOM      1  C   UNL     1       1.882   8.593  18.597  0.00  0.00    +0.000 C 
ATOM      2  O   UNL     1       2.206   8.834  17.437  0.00  0.00    +0.000 OA
ATOM      3  N   UNL     1       2.222   7.480  19.327  0.00  0.00    +0.000 N 
ATOM      4  C   UNL     1       3.014   6.499  18.806  0.00  0.00    +0.000 A 
ATOM      5  N   UNL     1       3.706   6.506  17.697  0.00  0.00    +0.000 NA
ATOM      6  C   UNL     1       4.409   5.323  17.557  0.00  0.00    +0.000 A 
ATOM      7  C   UNL     1       4.137   4.386  18.539  0.00  0.00    +0.000 A 
ATOM      8  S   UNL     1       3.099   5.069  19.732  0.00  0.00    +0.000 S 
ATOM      9  H   UNL     1       1.813   7.371  20.246  0.00  0.00    +0.000 HD
ENDROOT
BRANCH   6  10
ATOM     10  C   UNL     1       5.349   5.104  16.456  0.00  0.00    +0.000 A 
ATOM     11  C   UNL     1       4.881   4.541  15.251  0.00  0.00    +0.000 A 
ATOM     12  C   UNL     1       5.757   4.266  14.198  0.00  0.00    +0.000 A 
ATOM     13 CL   UNL     1       5.159   3.539  12.757  0.00  0.00    +0.000 Cl
ATOM     14  C   UNL     1       7.112   4.559  14.309  0.00  0.00    +0.000 A 
ATOM     15  C   UNL     1       7.591   5.135  15.484  0.00  0.00    +0.000 A 
ATOM     16  C   UNL     1       6.723   5.403  16.555  0.00  0.00    +0.000 A 
ATOM     17 CL   UNL     1       7.465   6.040  17.984  0.00  0.00    +0.000 Cl
ENDBRANCH   6  10
BRANCH   1  21
ATOM     18  N   UNL     1      -0.033  10.525  20.893  0.00  0.00    +0.000 N 
ATOM     19  C   UNL     1      -0.450  11.154  19.756  0.00  0.00    +0.000 A 
ATOM     20  C   UNL     1       0.206  10.532  18.723  0.00  0.00    +0.000 A 
ATOM     21  C   UNL     1       0.998   9.521  19.325  0.00  0.00    +0.000 A 
ATOM     22  N   UNL     1       0.824   9.500  20.668  0.00  0.00    +0.000 NA
BRANCH  18  24
ATOM     23  C   UNL     1      -0.290   9.707  23.210  0.00  0.00    +0.000 C 
ATOM     24  C   UNL     1      -0.453  10.864  22.240  0.00  0.00    +0.000 C 
ENDBRANCH  18  24
ENDBRANCH   1  21
TORSDOF 3
ENDMDL
MODEL 2
REMARK VINA RESULT:      -7.7      1.137      1.298
REMARK  Name = 
REMARK  4 active torsions:
REMARK  status: ('A' for Active; 'I' for Inactive)
REMARK    1  A    between atoms: C_1  and  C_2
REMARK    2  A    between atoms: C_2  and  N_3
REMARK    3  A    between atoms: C_6  and  C_7
REMARK    4  A    between atoms: C_12  and  C_13
REMARK                            x       y       z     vdW  Elec       q    Type
REMARK                         _______ _______ _______ _____ _____    ______ ____
ROOT
ATOM      1  C   UNL     1       1.606   8.519  19.635  0.00  0.00    +0.000 C 
ATOM      2  O   UNL     1       2.104   8.833  18.557  0.00  0.00    +0.000 OA
ATOM      3  N   UNL     1       1.768   7.324  20.294  0.00  0.00    +0.000 N 
ATOM      4  C   UNL     1       2.563   6.334  19.792  0.00  0.00    +0.000 A 
ATOM      5  N   UNL     1       3.403   6.384  18.792  0.00  0.00    +0.000 NA
ATOM      6  C   UNL     1       4.042   5.168  18.634  0.00  0.00    +0.000 A 
ATOM      7  C   UNL     1       3.575   4.173  19.477  0.00  0.00    +0.000 A 
ATOM      8  S   UNL     1       2.425   4.828  20.579  0.00  0.00    +0.000 S 
ATOM      9  H   UNL     1       1.228   7.168  21.134  0.00  0.00    +0.000 HD
ENDROOT
BRANCH   6  10
ATOM     10  C   UNL     1       5.111   4.973  17.654  0.00  0.00    +0.000 A 
ATOM     11  C   UNL     1       4.778   4.616  16.331  0.00  0.00    +0.000 A 
ATOM     12  C   UNL     1       5.772   4.368  15.382  0.00  0.00    +0.000 A 
ATOM     13 CL   UNL     1       5.331   3.892  13.788  0.00  0.00    +0.000 Cl
ATOM     14  C   UNL     1       7.117   4.487  15.716  0.00  0.00    +0.000 A 
ATOM     15  C   UNL     1       7.467   4.859  17.013  0.00  0.00    +0.000 A 
ATOM     16  C   UNL     1       6.477   5.097  17.981  0.00  0.00    +0.000 A 
ATOM     17 CL   UNL     1       7.053   5.469  19.571  0.00  0.00    +0.000 Cl
ENDBRANCH   6  10
BRANCH   1  21
ATOM     18  N   UNL     1      -0.466  10.402  21.833  0.00  0.00    +0.000 N 
ATOM     19  C   UNL     1      -0.720  11.124  20.703  0.00  0.00    +0.000 A 
ATOM     20  C   UNL     1       0.019  10.534  19.709  0.00  0.00    +0.000 A 
ATOM     21  C   UNL     1       0.689   9.445  20.323  0.00  0.00    +0.000 A 
ATOM     22  N   UNL     1       0.362   9.348  21.633  0.00  0.00    +0.000 NA
BRANCH  18  24
ATOM     23  C   UNL     1      -2.088  11.758  23.112  0.00  0.00    +0.000 C 
ATOM     24  C   UNL     1      -1.021  10.677  23.145  0.00  0.00    +0.000 C 
ENDBRANCH  18  24
ENDBRANCH   1  21
TORSDOF 3
ENDMDL
MODEL 3
REMARK VINA RESULT:      -7.5      1.460      1.988
REMARK  Name = 
REMARK  4 active torsions:
REMARK  status: ('A' for Active; 'I' for Inactive)
REMARK    1  A    between atoms: C_1  and  C_2
REMARK    2  A    between atoms: C_2  and  N_3
REMARK    3  A    between atoms: C_6  and  C_7
REMARK    4  A    between atoms: C_12  and  C_13
REMARK                            x       y       z     vdW  Elec       q    Type
REMARK                         _______ _______ _______ _____ _____    ______ ____
ROOT
ATOM      1  C   UNL     1       1.608   9.169  18.505  0.00  0.00    +0.000 C 
ATOM      2  O   UNL     1       2.172   9.260  17.417  0.00  0.00    +0.000 OA
ATOM      3  N   UNL     1       1.696   8.119  19.386  0.00  0.00    +0.000 N 
ATOM      4  C   UNL     1       2.481   7.033  19.128  0.00  0.00    +0.000 A 
ATOM      5  N   UNL     1       3.373   6.872  18.186  0.00  0.00    +0.000 NA
ATOM      6  C   UNL     1       3.977   5.633  18.298  0.00  0.00    +0.000 A 
ATOM      7  C   UNL     1       3.434   4.829  19.286  0.00  0.00    +0.000 A 
ATOM      8  S   UNL     1       2.252   5.709  20.177  0.00  0.00    +0.000 S 
ATOM      9  H   UNL     1       1.108   8.139  20.209  0.00  0.00    +0.000 HD
ENDROOT
BRANCH   6  10
ATOM     10  C   UNL     1       5.089   5.229  17.435  0.00  0.00    +0.000 A 
ATOM     11  C   UNL     1       4.827   4.866  16.098  0.00  0.00    +0.000 A 
ATOM     12  C   UNL     1       5.853   4.423  15.260  0.00  0.00    +0.000 A 
ATOM     13 CL   UNL     1       5.492   3.946  13.646  0.00  0.00    +0.000 Cl
ATOM     14  C   UNL     1       7.163   4.349  15.721  0.00  0.00    +0.000 A 
ATOM     15  C   UNL     1       7.446   4.724  17.033  0.00  0.00    +0.000 A 
ATOM     16  C   UNL     1       6.421   5.156  17.891  0.00  0.00    +0.000 A 
ATOM     17 CL   UNL     1       6.899   5.510  19.517  0.00  0.00    +0.000 Cl
ENDBRANCH   6  10
BRANCH   1  21
ATOM     18  N   UNL     1      -1.055  11.425  19.206  0.00  0.00    +0.000 N 
ATOM     19  C   UNL     1      -0.116  12.023  19.996  0.00  0.00    +0.000 A 
ATOM     20  C   UNL     1       1.022  11.268  19.860  0.00  0.00    +0.000 A 
ATOM     21  C   UNL     1       0.689  10.231  18.951  0.00  0.00    +0.000 A 
ATOM     22  N   UNL     1      -0.591  10.349  18.525  0.00  0.00    +0.000 NA
BRANCH  18  24
ATOM     23  C   UNL     1      -3.055  11.386  17.757  0.00  0.00    +0.000 C 
ATOM     24  C   UNL     1      -2.428  11.871  19.052  0.00  0.00    +0.000 C 
ENDBRANCH  18  24
ENDBRANCH   1  21
TORSDOF 3
ENDMDL
MODEL 4
REMARK VINA RESULT:      -7.5      1.033      1.399
REMARK  Name = 
REMARK  4 active torsions:
REMARK  status: ('A' for Active; 'I' for Inactive)
REMARK    1  A    between atoms: C_1  and  C_2
REMARK    2  A    between atoms: C_2  and  N_3
REMARK    3  A    between atoms: C_6  and  C_7
REMARK    4  A    between atoms: C_12  and  C_13
REMARK                            x       y       z     vdW  Elec       q    Type
REMARK                         _______ _______ _______ _____ _____    ______ ____
ROOT
ATOM      1  C   UNL     1       1.940   8.045  19.707  0.00  0.00    +0.000 C 
ATOM      2  O   UNL     1       2.278   8.491  18.614  0.00  0.00    +0.000 OA
ATOM      3  N   UNL     1       2.227   6.797  20.206  0.00  0.00    +0.000 N 
ATOM      4  C   UNL     1       2.978   5.902  19.501  0.00  0.00    +0.000 A 
ATOM      5  N   UNL     1       3.674   6.093  18.411  0.00  0.00    +0.000 NA
ATOM      6  C   UNL     1       4.325   4.931  18.041  0.00  0.00    +0.000 A 
ATOM      7  C   UNL     1       4.008   3.834  18.825  0.00  0.00    +0.000 A 
ATOM      8  S   UNL     1       2.996   4.318  20.132  0.00  0.00    +0.000 S 
ATOM      9  H   UNL     1       1.810   6.530  21.088  0.00  0.00    +0.000 HD
ENDROOT
BRANCH   6  10
ATOM     10  C   UNL     1       5.258   4.887  16.914  0.00  0.00    +0.000 A 
ATOM     11  C   UNL     1       4.807   4.423  15.662  0.00  0.00    +0.000 A 
ATOM     12  C   UNL     1       5.681   4.316  14.578  0.00  0.00    +0.000 A 
ATOM     13 CL   UNL     1       5.107   3.704  13.075  0.00  0.00    +0.000 Cl
ATOM     14  C   UNL     1       7.016   4.683  14.705  0.00  0.00    +0.000 A 
ATOM     15  C   UNL     1       7.477   5.165  15.929  0.00  0.00    +0.000 A 
ATOM     16  C   UNL     1       6.612   5.263  17.031  0.00  0.00    +0.000 A 
ATOM     17 CL   UNL     1       7.336   5.796  18.511  0.00  0.00    +0.000 Cl
ENDBRANCH   6  10
BRANCH   1  21
ATOM     18  N   UNL     1      -0.204  10.368  21.344  0.00  0.00    +0.000 N 
ATOM     19  C   UNL     1       0.013   9.554  22.418  0.00  0.00    +0.000 A 
ATOM     20  C   UNL     1       0.843   8.558  21.970  0.00  0.00    +0.000 A 
ATOM     21  C   UNL     1       1.094   8.851  20.605  0.00  0.00    +0.000 A 
ATOM     22  N   UNL     1       0.467   9.991  20.228  0.00  0.00    +0.000 NA
BRANCH  18  24
ATOM     23  C   UNL     1      -1.510  11.933  22.740  0.00  0.00    +0.000 C 
ATOM     24  C   UNL     1      -1.045  11.551  21.345  0.00  0.00    +0.000 C 
ENDBRANCH  18  24
ENDBRANCH   1  21
TORSDOF 3
ENDMDL
MODEL 5
REMARK VINA RESULT:      -7.4      1.457      2.029
REMARK  Name = 
REMARK  4 active torsions:
REMARK  status: ('A' for Active; 'I' for Inactive)
REMARK    1  A    between atoms: C_1  and  C_2
REMARK    2  A    between atoms: C_2  and  N_3
REMARK    3  A    between atoms: C_6  and  C_7
REMARK    4  A    between atoms: C_12  and  C_13
REMARK                            x       y       z     vdW  Elec       q    Type
REMARK                         _______ _______ _______ _____ _____    ______ ____
ROOT
ATOM      1  C   UNL     1       1.644   9.175  18.544  0.00  0.00    +0.000 C 
ATOM      2  O   UNL     1       2.218   9.278  17.463  0.00  0.00    +0.000 OA
ATOM      3  N   UNL     1       1.710   8.108  19.407  0.00  0.00    +0.000 N 
ATOM      4  C   UNL     1       2.484   7.017  19.137  0.00  0.00    +0.000 A 
ATOM      5  N   UNL     1       3.383   6.862  18.201  0.00  0.00    +0.000 NA
ATOM      6  C   UNL     1       3.971   5.614  18.297  0.00  0.00    +0.000 A 
ATOM      7  C   UNL     1       3.409   4.799  19.265  0.00  0.00    +0.000 A 
ATOM      8  S   UNL     1       2.229   5.678  20.160  0.00  0.00    +0.000 S 
ATOM      9  H   UNL     1       1.114   8.121  20.225  0.00  0.00    +0.000 HD
ENDROOT
BRANCH   6  10
ATOM     10  C   UNL     1       5.086   5.212  17.437  0.00  0.00    +0.000 A 
ATOM     11  C   UNL     1       4.829   4.847  16.099  0.00  0.00    +0.000 A 
ATOM     12  C   UNL     1       5.858   4.405  15.265  0.00  0.00    +0.000 A 
ATOM     13 CL   UNL     1       5.503   3.925  13.651  0.00  0.00    +0.000 Cl
ATOM     14  C   UNL     1       7.167   4.334  15.730  0.00  0.00    +0.000 A 
ATOM     15  C   UNL     1       7.445   4.711  17.042  0.00  0.00    +0.000 A 
ATOM     16  C   UNL     1       6.417   5.142  17.896  0.00  0.00    +0.000 A 
ATOM     17 CL   UNL     1       6.889   5.499  19.524  0.00  0.00    +0.000 Cl
ENDBRANCH   6  10
BRANCH   1  21
ATOM     18  N   UNL     1      -0.194  12.138  19.263  0.00  0.00    +0.000 N 
ATOM     19  C   UNL     1      -0.936  11.290  20.032  0.00  0.00    +0.000 A 
ATOM     20  C   UNL     1      -0.367  10.051  19.877  0.00  0.00    +0.000 A 
ATOM     21  C   UNL     1       0.733  10.240  19.001  0.00  0.00    +0.000 A 
ATOM     22  N   UNL     1       0.855  11.540  18.646  0.00  0.00    +0.000 NA
BRANCH  18  24
ATOM     23  C   UNL     1       0.834  14.353  18.882  0.00  0.00    +0.000 C 
ATOM     24  C   UNL     1      -0.443  13.559  19.103  0.00  0.00    +0.000 C 
ENDBRANCH  18  24
ENDBRANCH   1  21
TORSDOF 3
ENDMDL
MODEL 6
REMARK VINA RESULT:      -7.4      3.203      8.474
REMARK  Name = 
REMARK  4 active torsions:
REMARK  status: ('A' for Active; 'I' for Inactive)
REMARK    1  A    between atoms: C_1  and  C_2
REMARK    2  A    between atoms: C_2  and  N_3
REMARK    3  A    between atoms: C_6  and  C_7
REMARK    4  A    between atoms: C_12  and  C_13
REMARK                            x       y       z     vdW  Elec       q    Type
REMARK                         _______ _______ _______ _____ _____    ______ ____
ROOT
ATOM      1  C   UNL     1       4.844   5.915  16.409  0.00  0.00    +0.000 C 
ATOM      2  O   UNL     1       4.888   7.141  16.477  0.00  0.00    +0.000 OA
ATOM      3  N   UNL     1       4.160   5.072  17.252  0.00  0.00    +0.000 N 
ATOM      4  C   UNL     1       3.406   5.552  18.284  0.00  0.00    +0.000 A 
ATOM      5  N   UNL     1       3.052   6.784  18.537  0.00  0.00    +0.000 NA
ATOM      6  C   UNL     1       2.250   6.837  19.663  0.00  0.00    +0.000 A 
ATOM      7  C   UNL     1       2.105   5.620  20.307  0.00  0.00    +0.000 A 
ATOM      8  S   UNL     1       2.866   4.375  19.392  0.00  0.00    +0.000 S 
ATOM      9  H   UNL     1       4.282   4.076  17.130  0.00  0.00    +0.000 HD
ENDROOT
BRANCH   6  10
ATOM     10  C   UNL     1       1.625   8.081  20.114  0.00  0.00    +0.000 A 
ATOM     11  C   UNL     1       1.205   8.194  21.456  0.00  0.00    +0.000 A 
ATOM     12  C   UNL     1       0.555   9.345  21.910  0.00  0.00    +0.000 A 
ATOM     13 CL   UNL     1       0.018   9.433  23.543  0.00  0.00    +0.000 Cl
ATOM     14  C   UNL     1       0.325  10.414  21.052  0.00  0.00    +0.000 A 
ATOM     15  C   UNL     1       0.751  10.330  19.728  0.00  0.00    +0.000 A 
ATOM     16  C   UNL     1       1.391   9.173  19.254  0.00  0.00    +0.000 A 
ATOM     17 CL   UNL     1       1.791   9.170  17.569  0.00  0.00    +0.000 Cl
ENDBRANCH   6  10
BRANCH   1  21
ATOM     18  N   UNL     1       6.132   4.046  13.667  0.00  0.00    +0.000 N 
ATOM     19  C   UNL     1       7.334   4.401  14.208  0.00  0.00    +0.000 A 
ATOM     20  C   UNL     1       7.037   5.159  15.312  0.00  0.00    +0.000 A 
ATOM     21  C   UNL     1       5.621   5.204  15.378  0.00  0.00    +0.000 A 
ATOM     22  N   UNL     1       5.063   4.488  14.373  0.00  0.00    +0.000 NA
BRANCH  18  24
ATOM     23  C   UNL     1       4.592   3.455  11.828  0.00  0.00    +0.000 C 
ATOM     24  C   UNL     1       5.956   3.252  12.465  0.00  0.00    +0.000 C 
ENDBRANCH  18  24
ENDBRANCH   1  21
TORSDOF 3
ENDMDL
MODEL 7
REMARK VINA RESULT:      -7.3      0.896      1.484
REMARK  Name = 
REMARK  4 active torsions:
REMARK  status: ('A' for Active; 'I' for Inactive)
REMARK    1  A    between atoms: C_1  and  C_2
REMARK    2  A    between atoms: C_2  and  N_3
REMARK    3  A    between atoms: C_6  and  C_7
REMARK    4  A    between atoms: C_12  and  C_13
REMARK                            x       y       z     vdW  Elec       q    Type
REMARK                         _______ _______ _______ _____ _____    ______ ____
ROOT
ATOM      1  C   UNL     1       1.865   8.653  18.594  0.00  0.00    +0.000 C 
ATOM      2  O   UNL     1       2.190   8.882  17.431  0.00  0.00    +0.000 OA
ATOM      3  N   UNL     1       2.200   7.546  19.334  0.00  0.00    +0.000 N 
ATOM      4  C   UNL     1       2.989   6.557  18.823  0.00  0.00    +0.000 A 
ATOM      5  N   UNL     1       3.682   6.551  17.714  0.00  0.00    +0.000 NA
ATOM      6  C   UNL     1       4.380   5.364  17.585  0.00  0.00    +0.000 A 
ATOM      7  C   UNL     1       4.104   4.438  18.576  0.00  0.00    +0.000 A 
ATOM      8  S   UNL     1       3.067   5.136  19.761  0.00  0.00    +0.000 S 
ATOM      9  H   UNL     1       1.790   7.447  20.253  0.00  0.00    +0.000 HD
ENDROOT
BRANCH   6  10
ATOM     10  C   UNL     1       5.319   5.131  16.486  0.00  0.00    +0.000 A 
ATOM     11  C   UNL     1       4.848   4.568  15.283  0.00  0.00    +0.000 A 
ATOM     12  C   UNL     1       5.723   4.279  14.233  0.00  0.00    +0.000 A 
ATOM     13 CL   UNL     1       5.121   3.552  12.794  0.00  0.00    +0.000 Cl
ATOM     14  C   UNL     1       7.080   4.560  14.345  0.00  0.00    +0.000 A 
ATOM     15  C   UNL     1       7.563   5.137  15.518  0.00  0.00    +0.000 A 
ATOM     16  C   UNL     1       6.696   5.417  16.586  0.00  0.00    +0.000 A 
ATOM     17 CL   UNL     1       7.442   6.053  18.014  0.00  0.00    +0.000 Cl
ENDBRANCH   6  10
BRANCH   1  21
ATOM     18  N   UNL     1      -0.322  11.215  19.745  0.00  0.00    +0.000 N 
ATOM     19  C   UNL     1      -0.192  10.558  20.934  0.00  0.00    +0.000 A 
ATOM     20  C   UNL     1       0.640   9.496  20.685  0.00  0.00    +0.000 A 
ATOM     21  C   UNL     1       0.984   9.591  19.312  0.00  0.00    +0.000 A 
ATOM     22  N   UNL     1       0.409  10.675  18.740  0.00  0.00    +0.000 NA
BRANCH  18  24
ATOM     23  C   UNL     1      -2.593  12.066  19.275  0.00  0.00    +0.000 C 
ATOM     24  C   UNL     1      -1.133  12.399  19.526  0.00  0.00    +0.000 C 
ENDBRANCH  18  24
ENDBRANCH   1  21
TORSDOF 3
ENDMDL
MODEL 8
REMARK VINA RESULT:      -7.2      1.817      2.952
REMARK  Name = 
REMARK  4 active torsions:
REMARK  status: ('A' for Active; 'I' for Inactive)
REMARK    1  A    between atoms: C_1  and  C_2
REMARK    2  A    between atoms: C_2  and  N_3
REMARK    3  A    between atoms: C_6  and  C_7
REMARK    4  A    between atoms: C_12  and  C_13
REMARK                            x       y       z     vdW  Elec       q    Type
REMARK                         _______ _______ _______ _____ _____    ______ ____
ROOT
ATOM      1  C   UNL     1       1.098   8.633  20.600  0.00  0.00    +0.000 C 
ATOM      2  O   UNL     1       1.527   9.063  19.532  0.00  0.00    +0.000 OA
ATOM      3  N   UNL     1       1.282   7.370  21.108  0.00  0.00    +0.000 N 
ATOM      4  C   UNL     1       2.022   6.434  20.444  0.00  0.00    +0.000 A 
ATOM      5  N   UNL     1       2.793   6.589  19.400  0.00  0.00    +0.000 NA
ATOM      6  C   UNL     1       3.398   5.392  19.062  0.00  0.00    +0.000 A 
ATOM      7  C   UNL     1       2.971   4.313  19.818  0.00  0.00    +0.000 A 
ATOM      8  S   UNL     1       1.911   4.850  21.064  0.00  0.00    +0.000 S 
ATOM      9  H   UNL     1       0.798   7.125  21.961  0.00  0.00    +0.000 HD
ENDROOT
BRANCH   6  10
ATOM     10  C   UNL     1       4.394   5.298  17.994  0.00  0.00    +0.000 A 
ATOM     11  C   UNL     1       5.493   6.182  17.997  0.00  0.00    +0.000 A 
ATOM     12  C   UNL     1       6.435   6.159  16.965  0.00  0.00    +0.000 A 
ATOM     13 CL   UNL     1       7.741   7.281  16.977  0.00  0.00    +0.000 Cl
ATOM     14  C   UNL     1       6.320   5.250  15.920  0.00  0.00    +0.000 A 
ATOM     15  C   UNL     1       5.253   4.354  15.910  0.00  0.00    +0.000 A 
ATOM     16  C   UNL     1       4.291   4.376  16.933  0.00  0.00    +0.000 A 
ATOM     17 CL   UNL     1       2.974   3.266  16.752  0.00  0.00    +0.000 Cl
ENDBRANCH   6  10
BRANCH   1  21
ATOM     18  N   UNL     1      -1.058  11.035  22.102  0.00  0.00    +0.000 N 
ATOM     19  C   UNL     1      -0.844  10.280  23.219  0.00  0.00    +0.000 A 
ATOM     20  C   UNL     1      -0.010   9.263  22.828  0.00  0.00    +0.000 A 
ATOM     21  C   UNL     1       0.246   9.484  21.450  0.00  0.00    +0.000 A 
ATOM     22  N   UNL     1      -0.381  10.601  21.011  0.00  0.00    +0.000 NA
BRANCH  18  24
ATOM     23  C   UNL     1      -2.843  12.324  23.224  0.00  0.00    +0.000 C 
ATOM     24  C   UNL     1      -1.902  12.214  22.036  0.00  0.00    +0.000 C 
ENDBRANCH  18  24
ENDBRANCH   1  21
TORSDOF 3
ENDMDL
MODEL 9
REMARK VINA RESULT:      -7.1      3.227      4.733
REMARK  Name = 
REMARK  4 active torsions:
REMARK  status: ('A' for Active; 'I' for Inactive)
REMARK    1  A    between atoms: C_1  and  C_2
REMARK    2  A    between atoms: C_2  and  N_3
REMARK    3  A    between atoms: C_6  and  C_7
REMARK    4  A    between atoms: C_12  and  C_13
REMARK                            x       y       z     vdW  Elec       q    Type
REMARK                         _______ _______ _______ _____ _____    ______ ____
ROOT
ATOM      1  C   UNL     1       0.615   9.965  21.654  0.00  0.00    +0.000 C 
ATOM      2  O   UNL     1       1.033   9.145  22.467  0.00  0.00    +0.000 OA
ATOM      3  N   UNL     1       0.780   9.924  20.291  0.00  0.00    +0.000 N 
ATOM      4  C   UNL     1       1.440   8.896  19.682  0.00  0.00    +0.000 A 
ATOM      5  N   UNL     1       1.834   7.758  20.192  0.00  0.00    +0.000 NA
ATOM      6  C   UNL     1       2.433   6.975  19.222  0.00  0.00    +0.000 A 
ATOM      7  C   UNL     1       2.573   7.604  17.997  0.00  0.00    +0.000 A 
ATOM      8  S   UNL     1       1.803   9.144  18.035  0.00  0.00    +0.000 S 
ATOM      9  H   UNL     1       0.457  10.714  19.749  0.00  0.00    +0.000 HD
ENDROOT
BRANCH   6  10
ATOM     10  C   UNL     1       2.874   5.605  19.493  0.00  0.00    +0.000 A 
ATOM     11  C   UNL     1       2.079   4.773  20.308  0.00  0.00    +0.000 A 
ATOM     12  C   UNL     1       2.494   3.479  20.634  0.00  0.00    +0.000 A 
ATOM     13 CL   UNL     1       1.520   2.505  21.667  0.00  0.00    +0.000 Cl
ATOM     14  C   UNL     1       3.694   2.975  20.145  0.00  0.00    +0.000 A 
ATOM     15  C   UNL     1       4.483   3.774  19.320  0.00  0.00    +0.000 A 
ATOM     16  C   UNL     1       4.086   5.082  18.997  0.00  0.00    +0.000 A 
ATOM     17 CL   UNL     1       5.201   5.992  18.035  0.00  0.00    +0.000 Cl
ENDBRANCH   6  10
BRANCH   1  21
ATOM     18  N   UNL     1      -0.659  13.199  22.425  0.00  0.00    +0.000 N 
ATOM     19  C   UNL     1      -1.584  12.482  23.127  0.00  0.00    +0.000 A 
ATOM     20  C   UNL     1      -1.253  11.163  22.943  0.00  0.00    +0.000 A 
ATOM     21  C   UNL     1      -0.098  11.168  22.119  0.00  0.00    +0.000 A 
ATOM     22  N   UNL     1       0.284  12.433  21.824  0.00  0.00    +0.000 NA
BRANCH  18  24
ATOM     23  C   UNL     1      -1.810  15.308  22.998  0.00  0.00    +0.000 C 
ATOM     24  C   UNL     1      -0.627  14.646  22.315  0.00  0.00    +0.000 C 
ENDBRANCH  18  24
ENDBRANCH   1  21
TORSDOF 3
ENDMDL
