MODEL 1
REMARK VINA RESULT:      -9.1      0.000      0.000
REMARK  Name = 
REMARK  5 active torsions:
REMARK  status: ('A' for Active; 'I' for Inactive)
REMARK    1  A    between atoms: C_2  and  C_3
REMARK    2  A    between atoms: C_3  and  C_4
REMARK    3  A    between atoms: C_4  and  C_5
REMARK    4  A    between atoms: N_12  and  S_13
REMARK    5  A    between atoms: S_13  and  C_16
REMARK                            x       y       z     vdW  Elec       q    Type
REMARK                         _______ _______ _______ _____ _____    ______ ____
ROOT
ATOM      1  O   UNL     1       8.173   6.985  18.767  0.00  0.00    +0.000 OA
ATOM      2  C   UNL     1       7.868   7.733  17.847  0.00  0.00    +0.000 C 
ATOM      3  N   UNL     1       7.132   7.297  16.738  0.00  0.00    +0.000 N 
ATOM      4  H   UNL     1       6.826   7.931  16.003  0.00  0.00    +0.000 HD
ENDROOT
BRANCH   3   5
ATOM      5  S   UNL     1       6.617   5.724  16.513  0.00  0.00    +0.000 S 
ATOM      6  O   UNL     1       6.049   5.666  15.183  0.00  0.00    +0.000 OA
ATOM      7  O   UNL     1       7.704   4.845  16.894  0.00  0.00    +0.000 OA
BRANCH   5   8
ATOM      8  C   UNL     1       5.279   5.531  17.663  0.00  0.00    +0.000 A 
ATOM      9  C   UNL     1       4.262   6.491  17.705  0.00  0.00    +0.000 A 
ATOM     10  C   UNL     1       3.169   6.301  18.552  0.00  0.00    +0.000 A 
ATOM     11  C   UNL     1       3.104   5.163  19.356  0.00  0.00    +0.000 A 
ATOM     12  C   UNL     1       4.117   4.197  19.295  0.00  0.00    +0.000 A 
ATOM     13  C   UNL     1       5.218   4.385  18.463  0.00  0.00    +0.000 A 
ATOM     14  O   UNL     1       4.092   3.036  20.024  0.00  0.00    +0.000 OA
ATOM     15  C   UNL     1       2.795   2.791  20.582  0.00  0.00    +0.000 C 
ATOM     16  C   UNL     1       2.212   4.058  21.183  0.00  0.00    +0.000 C 
ATOM     17  O   UNL     1       2.007   5.050  20.170  0.00  0.00    +0.000 OA
ENDBRANCH   5   8
ENDBRANCH   3   5
BRANCH   2  18
ATOM     18  C   UNL     1       8.192   9.212  17.871  0.00  0.00    +0.000 C 
BRANCH  18  19
ATOM     19  C   UNL     1       9.017   9.570  19.108  0.00  0.00    +0.000 C 
BRANCH  19  20
ATOM     20  C   UNL     1       9.647  10.942  19.005  0.00  0.00    +0.000 A 
ATOM     21  C   UNL     1      10.288  11.301  17.804  0.00  0.00    +0.000 A 
ATOM     22  C   UNL     1      10.873  12.560  17.650  0.00  0.00    +0.000 A 
ATOM     23  C   UNL     1      10.830  13.482  18.691  0.00  0.00    +0.000 A 
ATOM     24  C   UNL     1      10.214  13.139  19.893  0.00  0.00    +0.000 A 
ATOM     25  C   UNL     1       9.633  11.875  20.055  0.00  0.00    +0.000 A 
ATOM     26 CL   UNL     1       8.919  11.513  21.585  0.00  0.00    +0.000 Cl
ENDBRANCH  19  20
ENDBRANCH  18  19
ENDBRANCH   2  18
TORSDOF 5
ENDMDL
MODEL 2
REMARK VINA RESULT:      -8.8      0.795      1.620
REMARK  Name = 
REMARK  5 active torsions:
REMARK  status: ('A' for Active; 'I' for Inactive)
REMARK    1  A    between atoms: C_2  and  C_3
REMARK    2  A    between atoms: C_3  and  C_4
REMARK    3  A    between atoms: C_4  and  C_5
REMARK    4  A    between atoms: N_12  and  S_13
REMARK    5  A    between atoms: S_13  and  C_16
REMARK                            x       y       z     vdW  Elec       q    Type
REMARK                         _______ _______ _______ _____ _____    ______ ____
ROOT
ATOM      1  O   UNL     1       8.185   6.898  18.695  0.00  0.00    +0.000 OA
ATOM      2  C   UNL     1       7.827   7.673  17.817  0.00  0.00    +0.000 C 
ATOM      3  N   UNL     1       7.079   7.257  16.708  0.00  0.00    +0.000 N 
ATOM      4  H   UNL     1       6.729   7.909  16.010  0.00  0.00    +0.000 HD
ENDROOT
BRANCH   3   5
ATOM      5  S   UNL     1       6.619   5.675  16.426  0.00  0.00    +0.000 S 
ATOM      6  O   UNL     1       5.958   5.665  15.139  0.00  0.00    +0.000 OA
ATOM      7  O   UNL     1       7.770   4.831  16.676  0.00  0.00    +0.000 OA
BRANCH   5   8
ATOM      8  C   UNL     1       5.380   5.352  17.656  0.00  0.00    +0.000 A 
ATOM      9  C   UNL     1       5.457   4.183  18.421  0.00  0.00    +0.000 A 
ATOM     10  C   UNL     1       4.530   3.965  19.441  0.00  0.00    +0.000 A 
ATOM     11  C   UNL     1       3.530   4.907  19.682  0.00  0.00    +0.000 A 
ATOM     12  C   UNL     1       3.470   6.083  18.923  0.00  0.00    +0.000 A 
ATOM     13  C   UNL     1       4.383   6.302  17.894  0.00  0.00    +0.000 A 
ATOM     14  O   UNL     1       2.541   7.069  19.138  0.00  0.00    +0.000 OA
ATOM     15  C   UNL     1       1.876   6.902  20.397  0.00  0.00    +0.000 C 
ATOM     16  C   UNL     1       1.486   5.452  20.619  0.00  0.00    +0.000 C 
ATOM     17  O   UNL     1       2.649   4.620  20.693  0.00  0.00    +0.000 OA
ENDBRANCH   5   8
ENDBRANCH   3   5
BRANCH   2  18
ATOM     18  C   UNL     1       8.094   9.161  17.898  0.00  0.00    +0.000 C 
BRANCH  18  19
ATOM     19  C   UNL     1       8.962   9.494  19.112  0.00  0.00    +0.000 C 
BRANCH  19  20
ATOM     20  C   UNL     1       9.593  10.866  19.012  0.00  0.00    +0.000 A 
ATOM     21  C   UNL     1      10.224  11.231  17.808  0.00  0.00    +0.000 A 
ATOM     22  C   UNL     1      10.811  12.490  17.656  0.00  0.00    +0.000 A 
ATOM     23  C   UNL     1      10.779  13.406  18.703  0.00  0.00    +0.000 A 
ATOM     24  C   UNL     1      10.172  13.056  19.909  0.00  0.00    +0.000 A 
ATOM     25  C   UNL     1       9.591  11.792  20.067  0.00  0.00    +0.000 A 
ATOM     26 CL   UNL     1       8.889  11.422  21.602  0.00  0.00    +0.000 Cl
ENDBRANCH  19  20
ENDBRANCH  18  19
ENDBRANCH   2  18
TORSDOF 5
ENDMDL
MODEL 3
REMARK VINA RESULT:      -8.6      1.205      1.281
REMARK  Name = 
REMARK  5 active torsions:
REMARK  status: ('A' for Active; 'I' for Inactive)
REMARK    1  A    between atoms: C_2  and  C_3
REMARK    2  A    between atoms: C_3  and  C_4
REMARK    3  A    between atoms: C_4  and  C_5
REMARK    4  A    between atoms: N_12  and  S_13
REMARK    5  A    between atoms: S_13  and  C_16
REMARK                            x       y       z     vdW  Elec       q    Type
REMARK                         _______ _______ _______ _____ _____    ______ ____
ROOT
ATOM      1  O   UNL     1       8.246   7.206  18.828  0.00  0.00    +0.000 OA
ATOM      2  C   UNL     1       7.970   7.727  17.755  0.00  0.00    +0.000 C 
ATOM      3  N   UNL     1       7.328   7.027  16.725  0.00  0.00    +0.000 N 
ATOM      4  H   UNL     1       7.044   7.475  15.856  0.00  0.00    +0.000 HD
ENDROOT
BRANCH   3   5
ATOM      5  S   UNL     1       6.899   5.415  16.810  0.00  0.00    +0.000 S 
ATOM      6  O   UNL     1       6.487   5.030  15.477  0.00  0.00    +0.000 OA
ATOM      7  O   UNL     1       7.968   4.710  17.489  0.00  0.00    +0.000 OA
BRANCH   5   8
ATOM      8  C   UNL     1       5.448   5.400  17.832  0.00  0.00    +0.000 A 
ATOM      9  C   UNL     1       4.545   6.466  17.761  0.00  0.00    +0.000 A 
ATOM     10  C   UNL     1       3.364   6.419  18.505  0.00  0.00    +0.000 A 
ATOM     11  C   UNL     1       3.100   5.318  19.318  0.00  0.00    +0.000 A 
ATOM     12  C   UNL     1       4.001   4.246  19.370  0.00  0.00    +0.000 A 
ATOM     13  C   UNL     1       5.188   4.290  18.642  0.00  0.00    +0.000 A 
ATOM     14  O   UNL     1       3.780   3.115  20.113  0.00  0.00    +0.000 OA
ATOM     15  C   UNL     1       2.418   3.028  20.550  0.00  0.00    +0.000 C 
ATOM     16  C   UNL     1       1.926   4.367  21.071  0.00  0.00    +0.000 C 
ATOM     17  O   UNL     1       1.926   5.347  20.026  0.00  0.00    +0.000 OA
ENDBRANCH   5   8
ENDBRANCH   3   5
BRANCH   2  18
ATOM     18  C   UNL     1       8.226   9.194  17.482  0.00  0.00    +0.000 C 
BRANCH  18  19
ATOM     19  C   UNL     1       8.721   9.904  18.743  0.00  0.00    +0.000 C 
BRANCH  19  20
ATOM     20  C   UNL     1       9.631  11.072  18.428  0.00  0.00    +0.000 A 
ATOM     21  C   UNL     1      10.976  11.007  18.837  0.00  0.00    +0.000 A 
ATOM     22  C   UNL     1      11.863  12.050  18.561  0.00  0.00    +0.000 A 
ATOM     23  C   UNL     1      11.423  13.176  17.872  0.00  0.00    +0.000 A 
ATOM     24  C   UNL     1      10.090  13.265  17.473  0.00  0.00    +0.000 A 
ATOM     25  C   UNL     1       9.197  12.226  17.756  0.00  0.00    +0.000 A 
ATOM     26 CL   UNL     1       7.554  12.426  17.259  0.00  0.00    +0.000 Cl
ENDBRANCH  19  20
ENDBRANCH  18  19
ENDBRANCH   2  18
TORSDOF 5
ENDMDL
MODEL 4
REMARK VINA RESULT:      -8.5      1.325      1.501
REMARK  Name = 
REMARK  5 active torsions:
REMARK  status: ('A' for Active; 'I' for Inactive)
REMARK    1  A    between atoms: C_2  and  C_3
REMARK    2  A    between atoms: C_3  and  C_4
REMARK    3  A    between atoms: C_4  and  C_5
REMARK    4  A    between atoms: N_12  and  S_13
REMARK    5  A    between atoms: S_13  and  C_16
REMARK                            x       y       z     vdW  Elec       q    Type
REMARK                         _______ _______ _______ _____ _____    ______ ____
ROOT
ATOM      1  O   UNL     1       7.859   6.028  18.613  0.00  0.00    +0.000 OA
ATOM      2  C   UNL     1       7.783   7.150  18.128  0.00  0.00    +0.000 C 
ATOM      3  N   UNL     1       6.890   7.461  17.094  0.00  0.00    +0.000 N 
ATOM      4  H   UNL     1       6.783   8.406  16.732  0.00  0.00    +0.000 HD
ENDROOT
BRANCH   3   5
ATOM      5  S   UNL     1       5.860   6.356  16.379  0.00  0.00    +0.000 S 
ATOM      6  O   UNL     1       5.166   7.067  15.326  0.00  0.00    +0.000 OA
ATOM      7  O   UNL     1       6.628   5.163  16.088  0.00  0.00    +0.000 OA
BRANCH   5   8
ATOM      8  C   UNL     1       4.665   5.990  17.639  0.00  0.00    +0.000 A 
ATOM      9  C   UNL     1       3.625   6.892  17.887  0.00  0.00    +0.000 A 
ATOM     10  C   UNL     1       2.640   6.570  18.821  0.00  0.00    +0.000 A 
ATOM     11  C   UNL     1       2.706   5.358  19.508  0.00  0.00    +0.000 A 
ATOM     12  C   UNL     1       3.741   4.452  19.243  0.00  0.00    +0.000 A 
ATOM     13  C   UNL     1       4.735   4.771  18.321  0.00  0.00    +0.000 A 
ATOM     14  O   UNL     1       3.839   3.226  19.849  0.00  0.00    +0.000 OA
ATOM     15  C   UNL     1       2.621   2.866  20.514  0.00  0.00    +0.000 C 
ATOM     16  C   UNL     1       2.062   4.041  21.298  0.00  0.00    +0.000 C 
ATOM     17  O   UNL     1       1.710   5.115  20.418  0.00  0.00    +0.000 OA
ENDBRANCH   5   8
ENDBRANCH   3   5
BRANCH   2  18
ATOM     18  C   UNL     1       8.592   8.314  18.660  0.00  0.00    +0.000 C 
BRANCH  18  19
ATOM     19  C   UNL     1       8.221   9.610  17.937  0.00  0.00    +0.000 C 
BRANCH  19  20
ATOM     20  C   UNL     1       9.015  10.797  18.437  0.00  0.00    +0.000 A 
ATOM     21  C   UNL     1      10.041  10.575  19.375  0.00  0.00    +0.000 A 
ATOM     22  C   UNL     1      10.814  11.633  19.859  0.00  0.00    +0.000 A 
ATOM     23  C   UNL     1      10.577  12.931  19.416  0.00  0.00    +0.000 A 
ATOM     24  C   UNL     1       9.555  13.172  18.499  0.00  0.00    +0.000 A 
ATOM     25  C   UNL     1       8.772  12.116  18.019  0.00  0.00    +0.000 A 
ATOM     26 CL   UNL     1       7.503  12.501  16.911  0.00  0.00    +0.000 Cl
ENDBRANCH  19  20
ENDBRANCH  18  19
ENDBRANCH   2  18
TORSDOF 5
ENDMDL
MODEL 5
REMARK VINA RESULT:      -8.4      1.353      1.473
REMARK  Name = 
REMARK  5 active torsions:
REMARK  status: ('A' for Active; 'I' for Inactive)
REMARK    1  A    between atoms: C_2  and  C_3
REMARK    2  A    between atoms: C_3  and  C_4
REMARK    3  A    between atoms: C_4  and  C_5
REMARK    4  A    between atoms: N_12  and  S_13
REMARK    5  A    between atoms: S_13  and  C_16
REMARK                            x       y       z     vdW  Elec       q    Type
REMARK                         _______ _______ _______ _____ _____    ______ ____
ROOT
ATOM      1  O   UNL     1       6.865   8.373  16.963  0.00  0.00    +0.000 OA
ATOM      2  C   UNL     1       7.672   7.818  17.697  0.00  0.00    +0.000 C 
ATOM      3  N   UNL     1       7.856   6.429  17.696  0.00  0.00    +0.000 N 
ATOM      4  H   UNL     1       8.569   5.973  18.261  0.00  0.00    +0.000 HD
ENDROOT
BRANCH   3   5
ATOM      5  S   UNL     1       6.990   5.368  16.738  0.00  0.00    +0.000 S 
ATOM      6  O   UNL     1       6.425   6.156  15.664  0.00  0.00    +0.000 OA
ATOM      7  O   UNL     1       7.843   4.232  16.456  0.00  0.00    +0.000 OA
BRANCH   5   8
ATOM      8  C   UNL     1       5.643   4.846  17.770  0.00  0.00    +0.000 A 
ATOM      9  C   UNL     1       5.395   5.517  18.972  0.00  0.00    +0.000 A 
ATOM     10  C   UNL     1       4.289   5.160  19.745  0.00  0.00    +0.000 A 
ATOM     11  C   UNL     1       3.448   4.133  19.320  0.00  0.00    +0.000 A 
ATOM     12  C   UNL     1       3.693   3.477  18.106  0.00  0.00    +0.000 A 
ATOM     13  C   UNL     1       4.801   3.817  17.335  0.00  0.00    +0.000 A 
ATOM     14  O   UNL     1       2.881   2.490  17.609  0.00  0.00    +0.000 OA
ATOM     15  C   UNL     1       1.623   2.446  18.295  0.00  0.00    +0.000 C 
ATOM     16  C   UNL     1       1.817   2.562  19.797  0.00  0.00    +0.000 C 
ATOM     17  O   UNL     1       2.389   3.830  20.136  0.00  0.00    +0.000 OA
ENDBRANCH   5   8
ENDBRANCH   3   5
BRANCH   2  18
ATOM     18  C   UNL     1       8.597   8.595  18.611  0.00  0.00    +0.000 C 
BRANCH  18  19
ATOM     19  C   UNL     1       8.421  10.100  18.411  0.00  0.00    +0.000 C 
BRANCH  19  20
ATOM     20  C   UNL     1       9.668  10.880  18.772  0.00  0.00    +0.000 A 
ATOM     21  C   UNL     1      10.592  11.182  17.755  0.00  0.00    +0.000 A 
ATOM     22  C   UNL     1      11.752  11.910  18.029  0.00  0.00    +0.000 A 
ATOM     23  C   UNL     1      12.010  12.349  19.325  0.00  0.00    +0.000 A 
ATOM     24  C   UNL     1      11.114  12.044  20.349  0.00  0.00    +0.000 A 
ATOM     25  C   UNL     1       9.955  11.307  20.078  0.00  0.00    +0.000 A 
ATOM     26 CL   UNL     1       8.913  10.942  21.407  0.00  0.00    +0.000 Cl
ENDBRANCH  19  20
ENDBRANCH  18  19
ENDBRANCH   2  18
TORSDOF 5
ENDMDL
MODEL 6
REMARK VINA RESULT:      -8.3      1.436      1.789
REMARK  Name = 
REMARK  5 active torsions:
REMARK  status: ('A' for Active; 'I' for Inactive)
REMARK    1  A    between atoms: C_2  and  C_3
REMARK    2  A    between atoms: C_3  and  C_4
REMARK    3  A    between atoms: C_4  and  C_5
REMARK    4  A    between atoms: N_12  and  S_13
REMARK    5  A    between atoms: S_13  and  C_16
REMARK                            x       y       z     vdW  Elec       q    Type
REMARK                         _______ _______ _______ _____ _____    ______ ____
ROOT
ATOM      1  O   UNL     1       7.432   8.403  16.991  0.00  0.00    +0.000 OA
ATOM      2  C   UNL     1       8.005   8.022  18.004  0.00  0.00    +0.000 C 
ATOM      3  N   UNL     1       8.061   6.671  18.371  0.00  0.00    +0.000 N 
ATOM      4  H   UNL     1       8.588   6.346  19.179  0.00  0.00    +0.000 HD
ENDROOT
BRANCH   3   5
ATOM      5  S   UNL     1       7.336   5.434  17.513  0.00  0.00    +0.000 S 
ATOM      6  O   UNL     1       7.247   5.887  16.141  0.00  0.00    +0.000 OA
ATOM      7  O   UNL     1       8.026   4.204  17.845  0.00  0.00    +0.000 OA
BRANCH   5   8
ATOM      8  C   UNL     1       5.682   5.367  18.151  0.00  0.00    +0.000 A 
ATOM      9  C   UNL     1       4.740   6.311  17.726  0.00  0.00    +0.000 A 
ATOM     10  C   UNL     1       3.419   6.213  18.165  0.00  0.00    +0.000 A 
ATOM     11  C   UNL     1       3.051   5.184  19.031  0.00  0.00    +0.000 A 
ATOM     12  C   UNL     1       3.995   4.233  19.439  0.00  0.00    +0.000 A 
ATOM     13  C   UNL     1       5.319   4.331  19.017  0.00  0.00    +0.000 A 
ATOM     14  O   UNL     1       3.689   3.172  20.253  0.00  0.00    +0.000 OA
ATOM     15  C   UNL     1       2.272   2.980  20.359  0.00  0.00    +0.000 C 
ATOM     16  C   UNL     1       1.557   4.304  20.564  0.00  0.00    +0.000 C 
ATOM     17  O   UNL     1       1.739   5.158  19.429  0.00  0.00    +0.000 OA
ENDBRANCH   5   8
ENDBRANCH   3   5
BRANCH   2  18
ATOM     18  C   UNL     1       8.771   8.971  18.902  0.00  0.00    +0.000 C 
BRANCH  18  19
ATOM     19  C   UNL     1       8.930  10.339  18.238  0.00  0.00    +0.000 C 
BRANCH  19  20
ATOM     20  C   UNL     1       9.492  11.378  19.185  0.00  0.00    +0.000 A 
ATOM     21  C   UNL     1       9.154  11.300  20.549  0.00  0.00    +0.000 A 
ATOM     22  C   UNL     1       9.655  12.224  21.469  0.00  0.00    +0.000 A 
ATOM     23  C   UNL     1      10.502  13.243  21.043  0.00  0.00    +0.000 A 
ATOM     24  C   UNL     1      10.835  13.346  19.693  0.00  0.00    +0.000 A 
ATOM     25  C   UNL     1      10.328  12.427  18.768  0.00  0.00    +0.000 A 
ATOM     26 CL   UNL     1      10.760  12.642  17.109  0.00  0.00    +0.000 Cl
ENDBRANCH  19  20
ENDBRANCH  18  19
ENDBRANCH   2  18
TORSDOF 5
ENDMDL
MODEL 7
REMARK VINA RESULT:      -8.3      1.054      1.054
REMARK  Name = 
REMARK  5 active torsions:
REMARK  status: ('A' for Active; 'I' for Inactive)
REMARK    1  A    between atoms: C_2  and  C_3
REMARK    2  A    between atoms: C_3  and  C_4
REMARK    3  A    between atoms: C_4  and  C_5
REMARK    4  A    between atoms: N_12  and  S_13
REMARK    5  A    between atoms: S_13  and  C_16
REMARK                            x       y       z     vdW  Elec       q    Type
REMARK                         _______ _______ _______ _____ _____    ______ ____
ROOT
ATOM      1  O   UNL     1       8.138   7.151  18.822  0.00  0.00    +0.000 OA
ATOM      2  C   UNL     1       7.823   7.670  17.759  0.00  0.00    +0.000 C 
ATOM      3  N   UNL     1       7.219   6.948  16.722  0.00  0.00    +0.000 N 
ATOM      4  H   UNL     1       6.901   7.389  15.862  0.00  0.00    +0.000 HD
ENDROOT
BRANCH   3   5
ATOM      5  S   UNL     1       6.891   5.310  16.785  0.00  0.00    +0.000 S 
ATOM      6  O   UNL     1       6.533   4.913  15.440  0.00  0.00    +0.000 OA
ATOM      7  O   UNL     1       7.988   4.668  17.481  0.00  0.00    +0.000 OA
BRANCH   5   8
ATOM      8  C   UNL     1       5.423   5.194  17.775  0.00  0.00    +0.000 A 
ATOM      9  C   UNL     1       4.385   6.111  17.578  0.00  0.00    +0.000 A 
ATOM     10  C   UNL     1       3.198   5.973  18.299  0.00  0.00    +0.000 A 
ATOM     11  C   UNL     1       3.060   4.932  19.216  0.00  0.00    +0.000 A 
ATOM     12  C   UNL     1       4.097   4.007  19.395  0.00  0.00    +0.000 A 
ATOM     13  C   UNL     1       5.290   4.144  18.690  0.00  0.00    +0.000 A 
ATOM     14  O   UNL     1       4.009   2.935  20.246  0.00  0.00    +0.000 OA
ATOM     15  C   UNL     1       2.658   2.702  20.663  0.00  0.00    +0.000 C 
ATOM     16  C   UNL     1       1.970   4.004  21.035  0.00  0.00    +0.000 C 
ATOM     17  O   UNL     1       1.871   4.866  19.895  0.00  0.00    +0.000 OA
ENDBRANCH   5   8
ENDBRANCH   3   5
BRANCH   2  18
ATOM     18  C   UNL     1       7.985   9.154  17.507  0.00  0.00    +0.000 C 
BRANCH  18  19
ATOM     19  C   UNL     1       8.931   9.780  18.533  0.00  0.00    +0.000 C 
BRANCH  19  20
ATOM     20  C   UNL     1       8.903  11.294  18.496  0.00  0.00    +0.000 A 
ATOM     21  C   UNL     1       8.149  11.929  17.492  0.00  0.00    +0.000 A 
ATOM     22  C   UNL     1       8.077  13.322  17.419  0.00  0.00    +0.000 A 
ATOM     23  C   UNL     1       8.756  14.105  18.347  0.00  0.00    +0.000 A 
ATOM     24  C   UNL     1       9.521  13.494  19.339  0.00  0.00    +0.000 A 
ATOM     25  C   UNL     1       9.603  12.098  19.410  0.00  0.00    +0.000 A 
ATOM     26 CL   UNL     1      10.598  11.417  20.646  0.00  0.00    +0.000 Cl
ENDBRANCH  19  20
ENDBRANCH  18  19
ENDBRANCH   2  18
TORSDOF 5
ENDMDL
MODEL 8
REMARK VINA RESULT:      -8.0      5.034      7.388
REMARK  Name = 
REMARK  5 active torsions:
REMARK  status: ('A' for Active; 'I' for Inactive)
REMARK    1  A    between atoms: C_2  and  C_3
REMARK    2  A    between atoms: C_3  and  C_4
REMARK    3  A    between atoms: C_4  and  C_5
REMARK    4  A    between atoms: N_12  and  S_13
REMARK    5  A    between atoms: S_13  and  C_16
REMARK                            x       y       z     vdW  Elec       q    Type
REMARK                         _______ _______ _______ _____ _____    ______ ____
ROOT
ATOM      1  O   UNL     1       1.201   3.570  20.113  0.00  0.00    +0.000 OA
ATOM      2  C   UNL     1       1.958   4.526  20.225  0.00  0.00    +0.000 C 
ATOM      3  N   UNL     1       3.283   4.490  19.771  0.00  0.00    +0.000 N 
ATOM      4  H   UNL     1       3.895   5.302  19.809  0.00  0.00    +0.000 HD
ENDROOT
BRANCH   3   5
ATOM      5  S   UNL     1       3.998   3.154  19.067  0.00  0.00    +0.000 S 
ATOM      6  O   UNL     1       4.833   2.553  20.085  0.00  0.00    +0.000 OA
ATOM      7  O   UNL     1       2.955   2.389  18.414  0.00  0.00    +0.000 OA
BRANCH   5   8
ATOM      8  C   UNL     1       5.081   3.834  17.836  0.00  0.00    +0.000 A 
ATOM      9  C   UNL     1       6.233   4.522  18.234  0.00  0.00    +0.000 A 
ATOM     10  C   UNL     1       7.126   4.988  17.269  0.00  0.00    +0.000 A 
ATOM     11  C   UNL     1       6.860   4.775  15.917  0.00  0.00    +0.000 A 
ATOM     12  C   UNL     1       5.714   4.070  15.526  0.00  0.00    +0.000 A 
ATOM     13  C   UNL     1       4.810   3.613  16.482  0.00  0.00    +0.000 A 
ATOM     14  O   UNL     1       5.417   3.788  14.217  0.00  0.00    +0.000 OA
ATOM     15  C   UNL     1       6.545   4.006  13.360  0.00  0.00    +0.000 C 
ATOM     16  C   UNL     1       7.241   5.312  13.699  0.00  0.00    +0.000 C 
ATOM     17  O   UNL     1       7.777   5.271  15.026  0.00  0.00    +0.000 OA
ENDBRANCH   5   8
ENDBRANCH   3   5
BRANCH   2  18
ATOM     18  C   UNL     1       1.501   5.854  20.791  0.00  0.00    +0.000 C 
BRANCH  18  19
ATOM     19  C   UNL     1       2.159   7.017  20.047  0.00  0.00    +0.000 C 
BRANCH  19  20
ATOM     20  C   UNL     1       1.491   8.343  20.344  0.00  0.00    +0.000 A 
ATOM     21  C   UNL     1       1.104   8.621  21.668  0.00  0.00    +0.000 A 
ATOM     22  C   UNL     1       0.496   9.834  22.001  0.00  0.00    +0.000 A 
ATOM     23  C   UNL     1       0.265  10.791  21.017  0.00  0.00    +0.000 A 
ATOM     24  C   UNL     1       0.628  10.527  19.697  0.00  0.00    +0.000 A 
ATOM     25  C   UNL     1       1.229   9.309  19.359  0.00  0.00    +0.000 A 
ATOM     26 CL   UNL     1       1.617   9.044  17.697  0.00  0.00    +0.000 Cl
ENDBRANCH  19  20
ENDBRANCH  18  19
ENDBRANCH   2  18
TORSDOF 5
ENDMDL
MODEL 9
REMARK VINA RESULT:      -7.9      5.278      7.667
REMARK  Name = 
REMARK  5 active torsions:
REMARK  status: ('A' for Active; 'I' for Inactive)
REMARK    1  A    between atoms: C_2  and  C_3
REMARK    2  A    between atoms: C_3  and  C_4
REMARK    3  A    between atoms: C_4  and  C_5
REMARK    4  A    between atoms: N_12  and  S_13
REMARK    5  A    between atoms: S_13  and  C_16
REMARK                            x       y       z     vdW  Elec       q    Type
REMARK                         _______ _______ _______ _____ _____    ______ ____
ROOT
ATOM      1  O   UNL     1       2.131   6.808  18.486  0.00  0.00    +0.000 OA
ATOM      2  C   UNL     1       2.153   6.740  19.708  0.00  0.00    +0.000 C 
ATOM      3  N   UNL     1       2.415   5.543  20.387  0.00  0.00    +0.000 N 
ATOM      4  H   UNL     1       2.494   5.496  21.401  0.00  0.00    +0.000 HD
ENDROOT
BRANCH   3   5
ATOM      5  S   UNL     1       2.686   4.076  19.634  0.00  0.00    +0.000 S 
ATOM      6  O   UNL     1       3.082   3.150  20.674  0.00  0.00    +0.000 OA
ATOM      7  O   UNL     1       1.544   3.797  18.787  0.00  0.00    +0.000 OA
BRANCH   5   8
ATOM      8  C   UNL     1       4.112   4.362  18.616  0.00  0.00    +0.000 A 
ATOM      9  C   UNL     1       5.334   4.684  19.217  0.00  0.00    +0.000 A 
ATOM     10  C   UNL     1       6.474   4.831  18.425  0.00  0.00    +0.000 A 
ATOM     11  C   UNL     1       6.383   4.668  17.043  0.00  0.00    +0.000 A 
ATOM     12  C   UNL     1       5.160   4.329  16.450  0.00  0.00    +0.000 A 
ATOM     13  C   UNL     1       4.015   4.193  17.232  0.00  0.00    +0.000 A 
ATOM     14  O   UNL     1       5.013   4.110  15.105  0.00  0.00    +0.000 OA
ATOM     15  C   UNL     1       6.280   3.953  14.453  0.00  0.00    +0.000 C 
ATOM     16  C   UNL     1       7.271   5.000  14.932  0.00  0.00    +0.000 C 
ATOM     17  O   UNL     1       7.541   4.839  16.329  0.00  0.00    +0.000 OA
ENDBRANCH   5   8
ENDBRANCH   3   5
BRANCH   2  18
ATOM     18  C   UNL     1       1.981   7.960  20.587  0.00  0.00    +0.000 C 
BRANCH  18  19
ATOM     19  C   UNL     1       1.027   8.966  19.942  0.00  0.00    +0.000 C 
BRANCH  19  20
ATOM     20  C   UNL     1       0.232   9.747  20.966  0.00  0.00    +0.000 A 
ATOM     21  C   UNL     1       0.125   9.231  22.271  0.00  0.00    +0.000 A 
ATOM     22  C   UNL     1      -0.585   9.917  23.260  0.00  0.00    +0.000 A 
ATOM     23  C   UNL     1      -1.201  11.129  22.963  0.00  0.00    +0.000 A 
ATOM     24  C   UNL     1      -1.119  11.647  21.671  0.00  0.00    +0.000 A 
ATOM     25  C   UNL     1      -0.416  10.958  20.676  0.00  0.00    +0.000 A 
ATOM     26 CL   UNL     1      -0.390  11.649  19.093  0.00  0.00    +0.000 Cl
ENDBRANCH  19  20
ENDBRANCH  18  19
ENDBRANCH   2  18
TORSDOF 5
ENDMDL
