MODEL 1
REMARK VINA RESULT:      -7.4      0.000      0.000
REMARK  Name = 
REMARK  10 active torsions:
REMARK  status: ('A' for Active; 'I' for Inactive)
REMARK    1  A    between atoms: C_1  and  C_2
REMARK    2  A    between atoms: C_5  and  C_6
REMARK    3  A    between atoms: C_6  and  N_7
REMARK    4  A    between atoms: C_8  and  C_10
REMARK    5  A    between atoms: C_10  and  C_11
REMARK    6  A    between atoms: C_11  and  N_12
REMARK    7  A    between atoms: C_13  and  C_15
REMARK    8  A    between atoms: C_15  and  C_16
REMARK    9  A    between atoms: C_15  and  C_17
REMARK   10  A    between atoms: C_15  and  C_18
REMARK                            x       y       z     vdW  Elec       q    Type
REMARK                         _______ _______ _______ _____ _____    ______ ____
ROOT
ATOM      1  N   UNL     1       5.308   5.998  17.692  0.00  0.00    +0.000 N 
ATOM      2  C   UNL     1       4.371   6.729  17.008  0.00  0.00    +0.000 C 
ATOM      3  O   UNL     1       4.602   7.388  16.001  0.00  0.00    +0.000 OA
ATOM      4  H   UNL     1       4.998   5.449  18.490  0.00  0.00    +0.000 HD
ENDROOT
BRANCH   1   5
ATOM      5  C   UNL     1       6.732   5.783  17.338  0.00  0.00    +0.000 C 
ATOM      6  C   UNL     1       7.437   4.869  18.355  0.00  0.00    +0.000 C 
ATOM      7  C   UNL     1       7.952   5.793  19.447  0.00  0.00    +0.000 C 
ATOM      8  C   UNL     1       8.214   7.135  18.771  0.00  0.00    +0.000 C 
ATOM      9  C   UNL     1       7.571   7.076  17.378  0.00  0.00    +0.000 C 
BRANCH   5  14
ATOM     10  C   UNL     1       7.812   5.192  12.499  0.00  0.00    +0.000 C 
ATOM     11  C   UNL     1       7.138   4.830  13.773  0.00  0.00    +0.000 A 
ATOM     12  C   UNL     1       6.280   3.769  13.973  0.00  0.00    +0.000 A 
ATOM     13  S   UNL     1       5.765   3.720  15.600  0.00  0.00    +0.000 S 
ATOM     14  C   UNL     1       6.706   5.129  15.944  0.00  0.00    +0.000 A 
ATOM     15  N   UNL     1       7.364   5.611  14.899  0.00  0.00    +0.000 NA
ENDBRANCH   5  14
ENDBRANCH   1   5
BRANCH   2  16
ATOM     16  C   UNL     1       2.981   6.686  17.596  0.00  0.00    +0.000 C 
BRANCH  16  17
ATOM     17  C   UNL     1       3.094   6.542  19.112  0.00  0.00    +0.000 C 
BRANCH  17  18
ATOM     18  N   UNL     1       2.383   5.394  19.639  0.00  0.00    +0.000 N 
ATOM     19  C   UNL     1       2.996   4.172  19.811  0.00  0.00    +0.000 C 
ATOM     20  O   UNL     1       4.195   4.007  19.597  0.00  0.00    +0.000 OA
ATOM     21  H   UNL     1       1.372   5.437  19.637  0.00  0.00    +0.000 HD
BRANCH  19  22
ATOM     22  C   UNL     1       2.068   3.035  20.271  0.00  0.00    +0.000 C 
ATOM     23  C   UNL     1       2.530   2.518  21.642  0.00  0.00    +0.000 C 
ATOM     24  C   UNL     1       0.636   3.579  20.398  0.00  0.00    +0.000 C 
ATOM     25  C   UNL     1       2.074   1.891  19.246  0.00  0.00    +0.000 C 
ENDBRANCH  19  22
ENDBRANCH  17  18
ENDBRANCH  16  17
ENDBRANCH   2  16
TORSDOF 6
ENDMDL
MODEL 2
REMARK VINA RESULT:      -7.2      0.509      1.090
REMARK  Name = 
REMARK  10 active torsions:
REMARK  status: ('A' for Active; 'I' for Inactive)
REMARK    1  A    between atoms: C_1  and  C_2
REMARK    2  A    between atoms: C_5  and  C_6
REMARK    3  A    between atoms: C_6  and  N_7
REMARK    4  A    between atoms: C_8  and  C_10
REMARK    5  A    between atoms: C_10  and  C_11
REMARK    6  A    between atoms: C_11  and  N_12
REMARK    7  A    between atoms: C_13  and  C_15
REMARK    8  A    between atoms: C_15  and  C_16
REMARK    9  A    between atoms: C_15  and  C_17
REMARK   10  A    between atoms: C_15  and  C_18
REMARK                            x       y       z     vdW  Elec       q    Type
REMARK                         _______ _______ _______ _____ _____    ______ ____
ROOT
ATOM      1  N   UNL     1       5.330   6.167  17.786  0.00  0.00    +0.000 N 
ATOM      2  C   UNL     1       4.385   6.853  17.069  0.00  0.00    +0.000 C 
ATOM      3  O   UNL     1       4.594   7.409  15.996  0.00  0.00    +0.000 OA
ATOM      4  H   UNL     1       5.037   5.704  18.644  0.00  0.00    +0.000 HD
ENDROOT
BRANCH   1   5
ATOM      5  C   UNL     1       6.736   5.885  17.407  0.00  0.00    +0.000 C 
ATOM      6  C   UNL     1       7.426   4.969  18.432  0.00  0.00    +0.000 C 
ATOM      7  C   UNL     1       8.003   5.899  19.488  0.00  0.00    +0.000 C 
ATOM      8  C   UNL     1       8.304   7.212  18.771  0.00  0.00    +0.000 C 
ATOM      9  C   UNL     1       7.627   7.144  17.394  0.00  0.00    +0.000 C 
BRANCH   5  14
ATOM     10  C   UNL     1       7.715   5.100  12.575  0.00  0.00    +0.000 C 
ATOM     11  C   UNL     1       7.036   4.815  13.865  0.00  0.00    +0.000 A 
ATOM     12  C   UNL     1       6.116   3.816  14.103  0.00  0.00    +0.000 A 
ATOM     13  S   UNL     1       5.618   3.843  15.736  0.00  0.00    +0.000 S 
ATOM     14  C   UNL     1       6.651   5.198  16.031  0.00  0.00    +0.000 A 
ATOM     15  N   UNL     1       7.325   5.609  14.967  0.00  0.00    +0.000 NA
ENDBRANCH   5  14
ENDBRANCH   1   5
BRANCH   2  16
ATOM     16  C   UNL     1       3.016   6.900  17.704  0.00  0.00    +0.000 C 
BRANCH  16  17
ATOM     17  C   UNL     1       3.125   6.388  19.139  0.00  0.00    +0.000 C 
BRANCH  17  18
ATOM     18  N   UNL     1       2.404   5.152  19.368  0.00  0.00    +0.000 N 
ATOM     19  C   UNL     1       3.052   3.942  19.489  0.00  0.00    +0.000 C 
ATOM     20  O   UNL     1       4.277   3.854  19.483  0.00  0.00    +0.000 OA
ATOM     21  H   UNL     1       1.409   5.157  19.184  0.00  0.00    +0.000 HD
BRANCH  19  22
ATOM     22  C   UNL     1       2.130   2.717  19.615  0.00  0.00    +0.000 C 
ATOM     23  C   UNL     1       0.855   2.945  18.789  0.00  0.00    +0.000 C 
ATOM     24  C   UNL     1       2.865   1.481  19.071  0.00  0.00    +0.000 C 
ATOM     25  C   UNL     1       1.767   2.469  21.087  0.00  0.00    +0.000 C 
ENDBRANCH  19  22
ENDBRANCH  17  18
ENDBRANCH  16  17
ENDBRANCH   2  16
TORSDOF 6
ENDMDL
MODEL 3
REMARK VINA RESULT:      -6.8      2.436      3.809
REMARK  Name = 
REMARK  10 active torsions:
REMARK  status: ('A' for Active; 'I' for Inactive)
REMARK    1  A    between atoms: C_1  and  C_2
REMARK    2  A    between atoms: C_5  and  C_6
REMARK    3  A    between atoms: C_6  and  N_7
REMARK    4  A    between atoms: C_8  and  C_10
REMARK    5  A    between atoms: C_10  and  C_11
REMARK    6  A    between atoms: C_11  and  N_12
REMARK    7  A    between atoms: C_13  and  C_15
REMARK    8  A    between atoms: C_15  and  C_16
REMARK    9  A    between atoms: C_15  and  C_17
REMARK   10  A    between atoms: C_15  and  C_18
REMARK                            x       y       z     vdW  Elec       q    Type
REMARK                         _______ _______ _______ _____ _____    ______ ____
ROOT
ATOM      1  N   UNL     1       5.317   5.406  17.725  0.00  0.00    +0.000 N 
ATOM      2  C   UNL     1       4.259   6.251  17.509  0.00  0.00    +0.000 C 
ATOM      3  O   UNL     1       4.331   7.315  16.904  0.00  0.00    +0.000 OA
ATOM      4  H   UNL     1       5.137   4.525  18.200  0.00  0.00    +0.000 HD
ENDROOT
BRANCH   1   5
ATOM      5  C   UNL     1       6.708   5.541  17.228  0.00  0.00    +0.000 C 
ATOM      6  C   UNL     1       7.697   4.735  18.087  0.00  0.00    +0.000 C 
ATOM      7  C   UNL     1       8.115   5.668  19.213  0.00  0.00    +0.000 C 
ATOM      8  C   UNL     1       8.009   7.081  18.648  0.00  0.00    +0.000 C 
ATOM      9  C   UNL     1       7.249   6.983  17.317  0.00  0.00    +0.000 C 
BRANCH   5  14
ATOM     10  C   UNL     1       7.827   5.298  12.368  0.00  0.00    +0.000 C 
ATOM     11  C   UNL     1       7.122   4.862  13.602  0.00  0.00    +0.000 A 
ATOM     12  C   UNL     1       6.220   3.825  13.707  0.00  0.00    +0.000 A 
ATOM     13  S   UNL     1       5.681   3.667  15.319  0.00  0.00    +0.000 S 
ATOM     14  C   UNL     1       6.674   5.003  15.785  0.00  0.00    +0.000 A 
ATOM     15  N   UNL     1       7.364   5.540  14.789  0.00  0.00    +0.000 NA
ENDBRANCH   5  14
ENDBRANCH   1   5
BRANCH   2  16
ATOM     16  C   UNL     1       2.947   5.786  18.093  0.00  0.00    +0.000 C 
BRANCH  16  17
ATOM     17  C   UNL     1       2.576   6.705  19.256  0.00  0.00    +0.000 C 
BRANCH  17  18
ATOM     18  N   UNL     1       2.185   8.037  18.838  0.00  0.00    +0.000 N 
ATOM     19  C   UNL     1       1.411   8.853  19.634  0.00  0.00    +0.000 C 
ATOM     20  O   UNL     1       1.071   8.526  20.769  0.00  0.00    +0.000 OA
ATOM     21  H   UNL     1       2.276   8.257  17.855  0.00  0.00    +0.000 HD
BRANCH  19  22
ATOM     22  C   UNL     1       0.994  10.187  18.992  0.00  0.00    +0.000 C 
ATOM     23  C   UNL     1       0.918  11.276  20.072  0.00  0.00    +0.000 C 
ATOM     24  C   UNL     1       2.049  10.590  17.949  0.00  0.00    +0.000 C 
ATOM     25  C   UNL     1      -0.365  10.042  18.291  0.00  0.00    +0.000 C 
ENDBRANCH  19  22
ENDBRANCH  17  18
ENDBRANCH  16  17
ENDBRANCH   2  16
TORSDOF 6
ENDMDL
MODEL 4
REMARK VINA RESULT:      -6.7      4.131      6.275
REMARK  Name = 
REMARK  10 active torsions:
REMARK  status: ('A' for Active; 'I' for Inactive)
REMARK    1  A    between atoms: C_1  and  C_2
REMARK    2  A    between atoms: C_5  and  C_6
REMARK    3  A    between atoms: C_6  and  N_7
REMARK    4  A    between atoms: C_8  and  C_10
REMARK    5  A    between atoms: C_10  and  C_11
REMARK    6  A    between atoms: C_11  and  N_12
REMARK    7  A    between atoms: C_13  and  C_15
REMARK    8  A    between atoms: C_15  and  C_16
REMARK    9  A    between atoms: C_15  and  C_17
REMARK   10  A    between atoms: C_15  and  C_18
REMARK                            x       y       z     vdW  Elec       q    Type
REMARK                         _______ _______ _______ _____ _____    ______ ____
ROOT
ATOM      1  N   UNL     1       2.555   6.266  17.939  0.00  0.00    +0.000 N 
ATOM      2  C   UNL     1       2.275   7.438  18.591  0.00  0.00    +0.000 C 
ATOM      3  O   UNL     1       2.303   7.581  19.808  0.00  0.00    +0.000 OA
ATOM      4  H   UNL     1       2.547   6.270  16.922  0.00  0.00    +0.000 HD
ENDROOT
BRANCH   1   5
ATOM      5  C   UNL     1       3.012   4.982  18.525  0.00  0.00    +0.000 C 
ATOM      6  C   UNL     1       2.313   3.779  17.871  0.00  0.00    +0.000 C 
ATOM      7  C   UNL     1       1.033   3.569  18.664  0.00  0.00    +0.000 C 
ATOM      8  C   UNL     1       1.328   4.067  20.075  0.00  0.00    +0.000 C 
ATOM      9  C   UNL     1       2.656   4.834  20.019  0.00  0.00    +0.000 C 
BRANCH   5  14
ATOM     10  C   UNL     1       7.865   5.771  19.394  0.00  0.00    +0.000 C 
ATOM     11  C   UNL     1       6.711   5.286  18.593  0.00  0.00    +0.000 A 
ATOM     12  C   UNL     1       6.771   4.670  17.360  0.00  0.00    +0.000 A 
ATOM     13  S   UNL     1       5.203   4.259  16.825  0.00  0.00    +0.000 S 
ATOM     14  C   UNL     1       4.530   4.939  18.265  0.00  0.00    +0.000 A 
ATOM     15  N   UNL     1       5.428   5.450  19.096  0.00  0.00    +0.000 NA
ENDBRANCH   5  14
ENDBRANCH   1   5
BRANCH   2  16
ATOM     16  C   UNL     1       1.903   8.592  17.691  0.00  0.00    +0.000 C 
BRANCH  16  17
ATOM     17  C   UNL     1       1.141   9.628  18.514  0.00  0.00    +0.000 C 
BRANCH  17  18
ATOM     18  N   UNL     1      -0.127  10.016  17.925  0.00  0.00    +0.000 N 
ATOM     19  C   UNL     1      -1.171  10.487  18.689  0.00  0.00    +0.000 C 
ATOM     20  O   UNL     1      -1.064  10.674  19.899  0.00  0.00    +0.000 OA
ATOM     21  H   UNL     1      -0.315   9.695  16.984  0.00  0.00    +0.000 HD
BRANCH  19  22
ATOM     22  C   UNL     1      -2.479  10.744  17.921  0.00  0.00    +0.000 C 
ATOM     23  C   UNL     1      -3.278   9.437  17.814  0.00  0.00    +0.000 C 
ATOM     24  C   UNL     1      -3.314  11.781  18.690  0.00  0.00    +0.000 C 
ATOM     25  C   UNL     1      -2.176  11.294  16.519  0.00  0.00    +0.000 C 
ENDBRANCH  19  22
ENDBRANCH  17  18
ENDBRANCH  16  17
ENDBRANCH   2  16
TORSDOF 6
ENDMDL
MODEL 5
REMARK VINA RESULT:      -6.7      3.977      7.912
REMARK  Name = 
REMARK  10 active torsions:
REMARK  status: ('A' for Active; 'I' for Inactive)
REMARK    1  A    between atoms: C_1  and  C_2
REMARK    2  A    between atoms: C_5  and  C_6
REMARK    3  A    between atoms: C_6  and  N_7
REMARK    4  A    between atoms: C_8  and  C_10
REMARK    5  A    between atoms: C_10  and  C_11
REMARK    6  A    between atoms: C_11  and  N_12
REMARK    7  A    between atoms: C_13  and  C_15
REMARK    8  A    between atoms: C_15  and  C_16
REMARK    9  A    between atoms: C_15  and  C_17
REMARK   10  A    between atoms: C_15  and  C_18
REMARK                            x       y       z     vdW  Elec       q    Type
REMARK                         _______ _______ _______ _____ _____    ______ ____
ROOT
ATOM      1  N   UNL     1       6.460   7.279  16.999  0.00  0.00    +0.000 N 
ATOM      2  C   UNL     1       7.515   7.551  17.831  0.00  0.00    +0.000 C 
ATOM      3  O   UNL     1       7.961   6.771  18.665  0.00  0.00    +0.000 OA
ATOM      4  H   UNL     1       6.200   7.982  16.310  0.00  0.00    +0.000 HD
ENDROOT
BRANCH   1   5
ATOM      5  C   UNL     1       5.706   6.009  16.867  0.00  0.00    +0.000 C 
ATOM      6  C   UNL     1       6.577   4.793  17.224  0.00  0.00    +0.000 C 
ATOM      7  C   UNL     1       7.275   4.396  15.933  0.00  0.00    +0.000 C 
ATOM      8  C   UNL     1       6.338   4.815  14.804  0.00  0.00    +0.000 C 
ATOM      9  C   UNL     1       5.257   5.715  15.421  0.00  0.00    +0.000 C 
BRANCH   5  14
ATOM     10  C   UNL     1       2.655   4.742  20.610  0.00  0.00    +0.000 C 
ATOM     11  C   UNL     1       3.116   5.610  19.496  0.00  0.00    +0.000 A 
ATOM     12  C   UNL     1       2.526   6.783  19.074  0.00  0.00    +0.000 A 
ATOM     13  S   UNL     1       3.410   7.460  17.779  0.00  0.00    +0.000 S 
ATOM     14  C   UNL     1       4.524   6.140  17.845  0.00  0.00    +0.000 A 
ATOM     15  N   UNL     1       4.247   5.241  18.779  0.00  0.00    +0.000 NA
ENDBRANCH   5  14
ENDBRANCH   1   5
BRANCH   2  16
ATOM     16  C   UNL     1       8.115   8.927  17.667  0.00  0.00    +0.000 C 
BRANCH  16  17
ATOM     17  C   UNL     1       8.844   9.299  18.956  0.00  0.00    +0.000 C 
BRANCH  17  18
ATOM     18  N   UNL     1       9.783  10.392  18.795  0.00  0.00    +0.000 N 
ATOM     19  C   UNL     1       9.960  11.351  19.767  0.00  0.00    +0.000 C 
ATOM     20  O   UNL     1       9.387  11.294  20.853  0.00  0.00    +0.000 OA
ATOM     21  H   UNL     1      10.116  10.579  17.858  0.00  0.00    +0.000 HD
BRANCH  19  22
ATOM     22  C   UNL     1      10.909  12.500  19.387  0.00  0.00    +0.000 C 
ATOM     23  C   UNL     1      10.920  12.675  17.861  0.00  0.00    +0.000 C 
ATOM     24  C   UNL     1      10.405  13.800  20.036  0.00  0.00    +0.000 C 
ATOM     25  C   UNL     1      12.329  12.212  19.895  0.00  0.00    +0.000 C 
ENDBRANCH  19  22
ENDBRANCH  17  18
ENDBRANCH  16  17
ENDBRANCH   2  16
TORSDOF 6
ENDMDL
MODEL 6
REMARK VINA RESULT:      -6.6      1.167      1.397
REMARK  Name = 
REMARK  10 active torsions:
REMARK  status: ('A' for Active; 'I' for Inactive)
REMARK    1  A    between atoms: C_1  and  C_2
REMARK    2  A    between atoms: C_5  and  C_6
REMARK    3  A    between atoms: C_6  and  N_7
REMARK    4  A    between atoms: C_8  and  C_10
REMARK    5  A    between atoms: C_10  and  C_11
REMARK    6  A    between atoms: C_11  and  N_12
REMARK    7  A    between atoms: C_13  and  C_15
REMARK    8  A    between atoms: C_15  and  C_16
REMARK    9  A    between atoms: C_15  and  C_17
REMARK   10  A    between atoms: C_15  and  C_18
REMARK                            x       y       z     vdW  Elec       q    Type
REMARK                         _______ _______ _______ _____ _____    ______ ____
ROOT
ATOM      1  N   UNL     1       5.279   6.500  17.518  0.00  0.00    +0.000 N 
ATOM      2  C   UNL     1       4.497   6.142  18.585  0.00  0.00    +0.000 C 
ATOM      3  O   UNL     1       4.822   5.330  19.444  0.00  0.00    +0.000 OA
ATOM      4  H   UNL     1       4.930   7.220  16.889  0.00  0.00    +0.000 HD
ENDROOT
BRANCH   1   5
ATOM      5  C   UNL     1       6.665   6.068  17.218  0.00  0.00    +0.000 C 
ATOM      6  C   UNL     1       7.224   5.151  18.319  0.00  0.00    +0.000 C 
ATOM      7  C   UNL     1       7.845   6.081  19.349  0.00  0.00    +0.000 C 
ATOM      8  C   UNL     1       8.297   7.318  18.579  0.00  0.00    +0.000 C 
ATOM      9  C   UNL     1       7.672   7.236  17.179  0.00  0.00    +0.000 C 
BRANCH   5  14
ATOM     10  C   UNL     1       7.743   4.939  12.475  0.00  0.00    +0.000 C 
ATOM     11  C   UNL     1       6.997   4.783  13.751  0.00  0.00    +0.000 A 
ATOM     12  C   UNL     1       5.987   3.879  14.003  0.00  0.00    +0.000 A 
ATOM     13  S   UNL     1       5.437   4.037  15.612  0.00  0.00    +0.000 S 
ATOM     14  C   UNL     1       6.570   5.315  15.877  0.00  0.00    +0.000 A 
ATOM     15  N   UNL     1       7.314   5.610  14.820  0.00  0.00    +0.000 NA
ENDBRANCH   5  14
ENDBRANCH   1   5
BRANCH   2  16
ATOM     16  C   UNL     1       3.150   6.822  18.642  0.00  0.00    +0.000 C 
BRANCH  16  17
ATOM     17  C   UNL     1       2.102   5.880  18.053  0.00  0.00    +0.000 C 
BRANCH  17  18
ATOM     18  N   UNL     1       2.168   4.533  18.586  0.00  0.00    +0.000 N 
ATOM     19  C   UNL     1       1.722   4.228  19.852  0.00  0.00    +0.000 C 
ATOM     20  O   UNL     1       1.177   5.062  20.572  0.00  0.00    +0.000 OA
ATOM     21  H   UNL     1       2.778   3.880  18.111  0.00  0.00    +0.000 HD
BRANCH  19  22
ATOM     22  C   UNL     1       1.972   2.778  20.301  0.00  0.00    +0.000 C 
ATOM     23  C   UNL     1       3.483   2.522  20.398  0.00  0.00    +0.000 C 
ATOM     24  C   UNL     1       1.338   2.568  21.687  0.00  0.00    +0.000 C 
ATOM     25  C   UNL     1       1.332   1.794  19.311  0.00  0.00    +0.000 C 
ENDBRANCH  19  22
ENDBRANCH  17  18
ENDBRANCH  16  17
ENDBRANCH   2  16
TORSDOF 6
ENDMDL
MODEL 7
REMARK VINA RESULT:      -6.6      3.843      7.796
REMARK  Name = 
REMARK  10 active torsions:
REMARK  status: ('A' for Active; 'I' for Inactive)
REMARK    1  A    between atoms: C_1  and  C_2
REMARK    2  A    between atoms: C_5  and  C_6
REMARK    3  A    between atoms: C_6  and  N_7
REMARK    4  A    between atoms: C_8  and  C_10
REMARK    5  A    between atoms: C_10  and  C_11
REMARK    6  A    between atoms: C_11  and  N_12
REMARK    7  A    between atoms: C_13  and  C_15
REMARK    8  A    between atoms: C_15  and  C_16
REMARK    9  A    between atoms: C_15  and  C_17
REMARK   10  A    between atoms: C_15  and  C_18
REMARK                            x       y       z     vdW  Elec       q    Type
REMARK                         _______ _______ _______ _____ _____    ______ ____
ROOT
ATOM      1  N   UNL     1       6.360   7.073  16.871  0.00  0.00    +0.000 N 
ATOM      2  C   UNL     1       7.362   7.451  17.727  0.00  0.00    +0.000 C 
ATOM      3  O   UNL     1       7.876   6.718  18.564  0.00  0.00    +0.000 OA
ATOM      4  H   UNL     1       6.037   7.748  16.183  0.00  0.00    +0.000 HD
ENDROOT
BRANCH   1   5
ATOM      5  C   UNL     1       5.754   5.728  16.715  0.00  0.00    +0.000 C 
ATOM      6  C   UNL     1       6.817   4.618  16.765  0.00  0.00    +0.000 C 
ATOM      7  C   UNL     1       7.305   4.453  15.335  0.00  0.00    +0.000 C 
ATOM      8  C   UNL     1       6.130   4.846  14.444  0.00  0.00    +0.000 C 
ATOM      9  C   UNL     1       5.082   5.518  15.343  0.00  0.00    +0.000 C 
BRANCH   5  14
ATOM     10  C   UNL     1       2.112   7.064  19.859  0.00  0.00    +0.000 C 
ATOM     11  C   UNL     1       3.160   6.148  19.337  0.00  0.00    +0.000 A 
ATOM     12  C   UNL     1       3.495   4.912  19.848  0.00  0.00    +0.000 A 
ATOM     13  S   UNL     1       4.737   4.201  18.916  0.00  0.00    +0.000 S 
ATOM     14  C   UNL     1       4.768   5.592  17.891  0.00  0.00    +0.000 A 
ATOM     15  N   UNL     1       3.902   6.537  18.230  0.00  0.00    +0.000 NA
ENDBRANCH   5  14
ENDBRANCH   1   5
BRANCH   2  16
ATOM     16  C   UNL     1       7.809   8.887  17.585  0.00  0.00    +0.000 C 
BRANCH  16  17
ATOM     17  C   UNL     1       8.767   9.216  18.727  0.00  0.00    +0.000 C 
BRANCH  17  18
ATOM     18  N   UNL     1       9.573  10.396  18.484  0.00  0.00    +0.000 N 
ATOM     19  C   UNL     1       9.777  11.352  19.455  0.00  0.00    +0.000 C 
ATOM     20  O   UNL     1       9.350  11.222  20.600  0.00  0.00    +0.000 OA
ATOM     21  H   UNL     1       9.770  10.630  17.520  0.00  0.00    +0.000 HD
BRANCH  19  22
ATOM     22  C   UNL     1      10.561  12.593  18.995  0.00  0.00    +0.000 C 
ATOM     23  C   UNL     1      11.759  12.157  18.139  0.00  0.00    +0.000 C 
ATOM     24  C   UNL     1       9.636  13.481  18.147  0.00  0.00    +0.000 C 
ATOM     25  C   UNL     1      11.045  13.400  20.209  0.00  0.00    +0.000 C 
ENDBRANCH  19  22
ENDBRANCH  17  18
ENDBRANCH  16  17
ENDBRANCH   2  16
TORSDOF 6
ENDMDL
MODEL 8
REMARK VINA RESULT:      -6.6      3.940      6.342
REMARK  Name = 
REMARK  10 active torsions:
REMARK  status: ('A' for Active; 'I' for Inactive)
REMARK    1  A    between atoms: C_1  and  C_2
REMARK    2  A    between atoms: C_5  and  C_6
REMARK    3  A    between atoms: C_6  and  N_7
REMARK    4  A    between atoms: C_8  and  C_10
REMARK    5  A    between atoms: C_10  and  C_11
REMARK    6  A    between atoms: C_11  and  N_12
REMARK    7  A    between atoms: C_13  and  C_15
REMARK    8  A    between atoms: C_15  and  C_16
REMARK    9  A    between atoms: C_15  and  C_17
REMARK   10  A    between atoms: C_15  and  C_18
REMARK                            x       y       z     vdW  Elec       q    Type
REMARK                         _______ _______ _______ _____ _____    ______ ____
ROOT
ATOM      1  N   UNL     1       2.296   5.987  18.087  0.00  0.00    +0.000 N 
ATOM      2  C   UNL     1       2.196   7.261  18.583  0.00  0.00    +0.000 C 
ATOM      3  O   UNL     1       2.476   7.584  19.732  0.00  0.00    +0.000 OA
ATOM      4  H   UNL     1       2.082   5.837  17.104  0.00  0.00    +0.000 HD
ENDROOT
BRANCH   1   5
ATOM      5  C   UNL     1       2.817   4.779  18.773  0.00  0.00    +0.000 C 
ATOM      6  C   UNL     1       2.142   3.498  18.255  0.00  0.00    +0.000 C 
ATOM      7  C   UNL     1       0.894   3.320  19.106  0.00  0.00    +0.000 C 
ATOM      8  C   UNL     1       1.213   3.956  20.455  0.00  0.00    +0.000 C 
ATOM      9  C   UNL     1       2.511   4.758  20.285  0.00  0.00    +0.000 C 
BRANCH   5  14
ATOM     10  C   UNL     1       7.673   5.708  19.467  0.00  0.00    +0.000 C 
ATOM     11  C   UNL     1       6.508   5.170  18.718  0.00  0.00    +0.000 A 
ATOM     12  C   UNL     1       6.546   4.515  17.505  0.00  0.00    +0.000 A 
ATOM     13  S   UNL     1       4.972   4.050  17.032  0.00  0.00    +0.000 S 
ATOM     14  C   UNL     1       4.326   4.763  18.468  0.00  0.00    +0.000 A 
ATOM     15  N   UNL     1       5.236   5.322  19.254  0.00  0.00    +0.000 NA
ENDBRANCH   5  14
ENDBRANCH   1   5
BRANCH   2  16
ATOM     16  C   UNL     1       1.691   8.287  17.597  0.00  0.00    +0.000 C 
BRANCH  16  17
ATOM     17  C   UNL     1       2.057   9.679  18.110  0.00  0.00    +0.000 C 
BRANCH  17  18
ATOM     18  N   UNL     1       0.967  10.631  18.028  0.00  0.00    +0.000 N 
ATOM     19  C   UNL     1       0.062  10.793  19.054  0.00  0.00    +0.000 C 
ATOM     20  O   UNL     1       0.172  10.195  20.122  0.00  0.00    +0.000 OA
ATOM     21  H   UNL     1       0.733  10.986  17.110  0.00  0.00    +0.000 HD
BRANCH  19  22
ATOM     22  C   UNL     1      -1.096  11.760  18.757  0.00  0.00    +0.000 C 
ATOM     23  C   UNL     1      -1.897  12.013  20.043  0.00  0.00    +0.000 C 
ATOM     24  C   UNL     1      -0.517  13.094  18.257  0.00  0.00    +0.000 C 
ATOM     25  C   UNL     1      -2.012  11.180  17.670  0.00  0.00    +0.000 C 
ENDBRANCH  19  22
ENDBRANCH  17  18
ENDBRANCH  16  17
ENDBRANCH   2  16
TORSDOF 6
ENDMDL
MODEL 9
REMARK VINA RESULT:      -6.5      3.605      7.564
REMARK  Name = 
REMARK  10 active torsions:
REMARK  status: ('A' for Active; 'I' for Inactive)
REMARK    1  A    between atoms: C_1  and  C_2
REMARK    2  A    between atoms: C_5  and  C_6
REMARK    3  A    between atoms: C_6  and  N_7
REMARK    4  A    between atoms: C_8  and  C_10
REMARK    5  A    between atoms: C_10  and  C_11
REMARK    6  A    between atoms: C_11  and  N_12
REMARK    7  A    between atoms: C_13  and  C_15
REMARK    8  A    between atoms: C_15  and  C_16
REMARK    9  A    between atoms: C_15  and  C_17
REMARK   10  A    between atoms: C_15  and  C_18
REMARK                            x       y       z     vdW  Elec       q    Type
REMARK                         _______ _______ _______ _____ _____    ______ ____
ROOT
ATOM      1  N   UNL     1       6.654   6.896  17.138  0.00  0.00    +0.000 N 
ATOM      2  C   UNL     1       7.452   6.808  18.249  0.00  0.00    +0.000 C 
ATOM      3  O   UNL     1       7.319   5.972  19.136  0.00  0.00    +0.000 OA
ATOM      4  H   UNL     1       6.881   7.600  16.440  0.00  0.00    +0.000 HD
ENDROOT
BRANCH   1   5
ATOM      5  C   UNL     1       5.549   5.992  16.735  0.00  0.00    +0.000 C 
ATOM      6  C   UNL     1       5.891   4.519  17.014  0.00  0.00    +0.000 C 
ATOM      7  C   UNL     1       6.615   4.024  15.772  0.00  0.00    +0.000 C 
ATOM      8  C   UNL     1       6.069   4.852  14.612  0.00  0.00    +0.000 C 
ATOM      9  C   UNL     1       5.268   6.013  15.218  0.00  0.00    +0.000 C 
BRANCH   5  14
ATOM     10  C   UNL     1       1.754   8.902  18.172  0.00  0.00    +0.000 C 
ATOM     11  C   UNL     1       2.641   7.714  18.272  0.00  0.00    +0.000 A 
ATOM     12  C   UNL     1       2.561   6.710  19.214  0.00  0.00    +0.000 A 
ATOM     13  S   UNL     1       3.766   5.533  18.931  0.00  0.00    +0.000 S 
ATOM     14  C   UNL     1       4.337   6.439  17.574  0.00  0.00    +0.000 A 
ATOM     15  N   UNL     1       3.667   7.561  17.349  0.00  0.00    +0.000 NA
ENDBRANCH   5  14
ENDBRANCH   1   5
BRANCH   2  16
ATOM     16  C   UNL     1       8.543   7.848  18.330  0.00  0.00    +0.000 C 
BRANCH  16  17
ATOM     17  C   UNL     1       7.945   9.212  17.995  0.00  0.00    +0.000 C 
BRANCH  17  18
ATOM     18  N   UNL     1       8.926  10.279  17.953  0.00  0.00    +0.000 N 
ATOM     19  C   UNL     1       9.430  10.851  19.100  0.00  0.00    +0.000 C 
ATOM     20  O   UNL     1       9.134  10.441  20.220  0.00  0.00    +0.000 OA
ATOM     21  H   UNL     1       9.040  10.766  17.073  0.00  0.00    +0.000 HD
BRANCH  19  22
ATOM     22  C   UNL     1      10.374  12.045  18.873  0.00  0.00    +0.000 C 
ATOM     23  C   UNL     1      11.809  11.537  18.675  0.00  0.00    +0.000 C 
ATOM     24  C   UNL     1       9.931  12.799  17.608  0.00  0.00    +0.000 C 
ATOM     25  C   UNL     1      10.315  13.008  20.068  0.00  0.00    +0.000 C 
ENDBRANCH  19  22
ENDBRANCH  17  18
ENDBRANCH  16  17
ENDBRANCH   2  16
TORSDOF 6
ENDMDL
