MODEL 1
REMARK VINA RESULT:      -7.2      0.000      0.000
REMARK  Name = 
REMARK  5 active torsions:
REMARK  status: ('A' for Active; 'I' for Inactive)
REMARK    1  A    between atoms: C_1  and  C_2
REMARK    2  A    between atoms: C_4  and  S_5
REMARK    3  A    between atoms: S_5  and  N_8
REMARK    4  A    between atoms: N_14  and  C_15
REMARK    5  A    between atoms: C_19  and  C_20
REMARK                            x       y       z     vdW  Elec       q    Type
REMARK                         _______ _______ _______ _____ _____    ______ ____
ROOT
ATOM      1  S   UNL     1       6.109   5.387  17.584  0.00  0.00    +0.000 S 
ATOM      2  O   UNL     1       6.589   4.210  18.274  0.00  0.00    +0.000 OA
ATOM      3  O   UNL     1       6.668   6.694  17.840  0.00  0.00    +0.000 OA
ENDROOT
BRANCH   1   4
ATOM      4  N   UNL     1       4.442   5.449  17.828  0.00  0.00    +0.000 NA
ATOM      5  C   UNL     1       3.808   6.756  17.984  0.00  0.00    +0.000 C 
ATOM      6  C   UNL     1       2.396   6.444  18.452  0.00  0.00    +0.000 C 
ATOM      7  C   UNL     1       2.421   5.019  19.038  0.00  0.00    +0.000 C 
ATOM      8  C   UNL     1       2.085   4.986  20.536  0.00  0.00    +0.000 C 
ATOM      9  C   UNL     1       1.148   3.801  20.741  0.00  0.00    +0.000 C 
ATOM     10  N   UNL     1       0.976   3.136  19.448  0.00  0.00    +0.000 NA
ATOM     11  C   UNL     1       1.727   1.889  19.368  0.00  0.00    +0.000 C 
ATOM     12  C   UNL     1       1.343   4.117  18.422  0.00  0.00    +0.000 C 
ATOM     13  C   UNL     1       3.835   4.482  18.753  0.00  0.00    +0.000 C 
ENDBRANCH   1   4
BRANCH   1  17
ATOM     14  C   UNL     1       8.218   5.491  12.572  0.00  0.00    +0.000 C 
ATOM     15  C   UNL     1       7.343   5.035  13.693  0.00  0.00    +0.000 A 
ATOM     16  C   UNL     1       7.387   5.591  15.010  0.00  0.00    +0.000 A 
ATOM     17  C   UNL     1       6.465   5.030  15.872  0.00  0.00    +0.000 A 
ATOM     18  S   UNL     1       5.558   3.815  15.092  0.00  0.00    +0.000 S 
ATOM     19  C   UNL     1       6.380   4.044  13.606  0.00  0.00    +0.000 A 
ATOM     20  C   UNL     1       6.002   3.232  12.410  0.00  0.00    +0.000 C 
ENDBRANCH   1  17
TORSDOF 2
ENDMDL
MODEL 2
REMARK VINA RESULT:      -6.7      1.114      1.632
REMARK  Name = 
REMARK  5 active torsions:
REMARK  status: ('A' for Active; 'I' for Inactive)
REMARK    1  A    between atoms: C_1  and  C_2
REMARK    2  A    between atoms: C_4  and  S_5
REMARK    3  A    between atoms: S_5  and  N_8
REMARK    4  A    between atoms: N_14  and  C_15
REMARK    5  A    between atoms: C_19  and  C_20
REMARK                            x       y       z     vdW  Elec       q    Type
REMARK                         _______ _______ _______ _____ _____    ______ ____
ROOT
ATOM      1  S   UNL     1       5.972   5.497  16.535  0.00  0.00    +0.000 S 
ATOM      2  O   UNL     1       6.656   4.481  17.306  0.00  0.00    +0.000 OA
ATOM      3  O   UNL     1       6.504   6.834  16.407  0.00  0.00    +0.000 OA
ENDROOT
BRANCH   1   4
ATOM      4  N   UNL     1       4.401   5.590  17.138  0.00  0.00    +0.000 NA
ATOM      5  C   UNL     1       3.871   6.901  17.507  0.00  0.00    +0.000 C 
ATOM      6  C   UNL     1       2.580   6.598  18.250  0.00  0.00    +0.000 C 
ATOM      7  C   UNL     1       2.669   5.136  18.727  0.00  0.00    +0.000 C 
ATOM      8  C   UNL     1       2.660   5.009  20.257  0.00  0.00    +0.000 C 
ATOM      9  C   UNL     1       1.738   3.840  20.587  0.00  0.00    +0.000 C 
ATOM     10  N   UNL     1       1.265   3.272  19.323  0.00  0.00    +0.000 NA
ATOM     11  C   UNL     1       1.926   2.012  19.007  0.00  0.00    +0.000 C 
ATOM     12  C   UNL     1       1.446   4.310  18.304  0.00  0.00    +0.000 C 
ATOM     13  C   UNL     1       3.964   4.580  18.111  0.00  0.00    +0.000 C 
ENDBRANCH   1   4
BRANCH   1  17
ATOM     14  C   UNL     1       4.411   3.161  11.879  0.00  0.00    +0.000 C 
ATOM     15  C   UNL     1       5.334   3.812  12.855  0.00  0.00    +0.000 A 
ATOM     16  C   UNL     1       4.925   4.275  14.145  0.00  0.00    +0.000 A 
ATOM     17  C   UNL     1       5.958   4.816  14.885  0.00  0.00    +0.000 A 
ATOM     18  S   UNL     1       7.421   4.783  14.010  0.00  0.00    +0.000 S 
ATOM     19  C   UNL     1       6.686   4.036  12.655  0.00  0.00    +0.000 A 
ATOM     20  C   UNL     1       7.508   3.686  11.457  0.00  0.00    +0.000 C 
ENDBRANCH   1  17
TORSDOF 2
ENDMDL
MODEL 3
REMARK VINA RESULT:      -6.5      5.279      7.674
REMARK  Name = 
REMARK  5 active torsions:
REMARK  status: ('A' for Active; 'I' for Inactive)
REMARK    1  A    between atoms: C_1  and  C_2
REMARK    2  A    between atoms: C_4  and  S_5
REMARK    3  A    between atoms: S_5  and  N_8
REMARK    4  A    between atoms: N_14  and  C_15
REMARK    5  A    between atoms: C_19  and  C_20
REMARK                            x       y       z     vdW  Elec       q    Type
REMARK                         _______ _______ _______ _____ _____    ______ ____
ROOT
ATOM      1  S   UNL     1       0.754   8.791  21.232  0.00  0.00    +0.000 S 
ATOM      2  O   UNL     1       1.572   9.497  22.195  0.00  0.00    +0.000 OA
ATOM      3  O   UNL     1      -0.409   8.037  21.637  0.00  0.00    +0.000 OA
ENDROOT
BRANCH   1   4
ATOM      4  N   UNL     1       1.786   7.779  20.365  0.00  0.00    +0.000 NA
ATOM      5  C   UNL     1       2.159   8.162  19.005  0.00  0.00    +0.000 C 
ATOM      6  C   UNL     1       2.846   6.932  18.435  0.00  0.00    +0.000 C 
ATOM      7  C   UNL     1       2.396   5.730  19.288  0.00  0.00    +0.000 C 
ATOM      8  C   UNL     1       1.599   4.694  18.482  0.00  0.00    +0.000 C 
ATOM      9  C   UNL     1       2.111   3.324  18.915  0.00  0.00    +0.000 C 
ATOM     10  N   UNL     1       3.119   3.532  19.956  0.00  0.00    +0.000 NA
ATOM     11  C   UNL     1       2.611   3.208  21.284  0.00  0.00    +0.000 C 
ATOM     12  C   UNL     1       3.584   4.916  19.819  0.00  0.00    +0.000 C 
ATOM     13  C   UNL     1       1.565   6.329  20.436  0.00  0.00    +0.000 C 
ENDBRANCH   1   4
BRANCH   1  17
ATOM     14  C   UNL     1      -2.068  11.617  17.541  0.00  0.00    +0.000 C 
ATOM     15  C   UNL     1      -1.041  11.362  18.594  0.00  0.00    +0.000 A 
ATOM     16  C   UNL     1      -0.887  10.107  19.263  0.00  0.00    +0.000 A 
ATOM     17  C   UNL     1       0.147  10.098  20.178  0.00  0.00    +0.000 A 
ATOM     18  S   UNL     1       0.922  11.616  20.242  0.00  0.00    +0.000 S 
ATOM     19  C   UNL     1      -0.108  12.280  19.044  0.00  0.00    +0.000 A 
ATOM     20  C   UNL     1       0.085  13.692  18.593  0.00  0.00    +0.000 C 
ENDBRANCH   1  17
TORSDOF 2
ENDMDL
MODEL 4
REMARK VINA RESULT:      -6.3      1.007      1.107
REMARK  Name = 
REMARK  5 active torsions:
REMARK  status: ('A' for Active; 'I' for Inactive)
REMARK    1  A    between atoms: C_1  and  C_2
REMARK    2  A    between atoms: C_4  and  S_5
REMARK    3  A    between atoms: S_5  and  N_8
REMARK    4  A    between atoms: N_14  and  C_15
REMARK    5  A    between atoms: C_19  and  C_20
REMARK                            x       y       z     vdW  Elec       q    Type
REMARK                         _______ _______ _______ _____ _____    ______ ____
ROOT
ATOM      1  S   UNL     1       6.649   5.501  16.578  0.00  0.00    +0.000 S 
ATOM      2  O   UNL     1       7.150   4.372  17.332  0.00  0.00    +0.000 OA
ATOM      3  O   UNL     1       7.334   6.773  16.579  0.00  0.00    +0.000 OA
ENDROOT
BRANCH   1   4
ATOM      4  N   UNL     1       5.053   5.741  17.063  0.00  0.00    +0.000 NA
ATOM      5  C   UNL     1       4.565   7.111  17.206  0.00  0.00    +0.000 C 
ATOM      6  C   UNL     1       3.222   6.968  17.903  0.00  0.00    +0.000 C 
ATOM      7  C   UNL     1       3.216   5.590  18.592  0.00  0.00    +0.000 C 
ATOM      8  C   UNL     1       3.116   5.689  20.120  0.00  0.00    +0.000 C 
ATOM      9  C   UNL     1       2.124   4.617  20.558  0.00  0.00    +0.000 C 
ATOM     10  N   UNL     1       1.697   3.888  19.363  0.00  0.00    +0.000 NA
ATOM     11  C   UNL     1       2.316   2.571  19.273  0.00  0.00    +0.000 C 
ATOM     12  C   UNL     1       1.982   4.758  18.218  0.00  0.00    +0.000 C 
ATOM     13  C   UNL     1       4.517   4.901  18.143  0.00  0.00    +0.000 C 
ENDBRANCH   1   4
BRANCH   1  17
ATOM     14  C   UNL     1       7.812   4.941  11.296  0.00  0.00    +0.000 C 
ATOM     15  C   UNL     1       7.166   4.637  12.607  0.00  0.00    +0.000 A 
ATOM     16  C   UNL     1       7.434   5.363  13.810  0.00  0.00    +0.000 A 
ATOM     17  C   UNL     1       6.698   4.920  14.891  0.00  0.00    +0.000 A 
ATOM     18  S   UNL     1       5.696   3.612  14.456  0.00  0.00    +0.000 S 
ATOM     19  C   UNL     1       6.228   3.643  12.828  0.00  0.00    +0.000 A 
ATOM     20  C   UNL     1       5.660   2.678  11.837  0.00  0.00    +0.000 C 
ENDBRANCH   1  17
TORSDOF 2
ENDMDL
MODEL 5
REMARK VINA RESULT:      -6.2      4.366      7.579
REMARK  Name = 
REMARK  5 active torsions:
REMARK  status: ('A' for Active; 'I' for Inactive)
REMARK    1  A    between atoms: C_1  and  C_2
REMARK    2  A    between atoms: C_4  and  S_5
REMARK    3  A    between atoms: S_5  and  N_8
REMARK    4  A    between atoms: N_14  and  C_15
REMARK    5  A    between atoms: C_19  and  C_20
REMARK                            x       y       z     vdW  Elec       q    Type
REMARK                         _______ _______ _______ _____ _____    ______ ____
ROOT
ATOM      1  S   UNL     1       1.688   9.172  18.132  0.00  0.00    +0.000 S 
ATOM      2  O   UNL     1       0.504   8.777  17.400  0.00  0.00    +0.000 OA
ATOM      3  O   UNL     1       2.557  10.222  17.654  0.00  0.00    +0.000 OA
ENDROOT
BRANCH   1   4
ATOM      4  N   UNL     1       2.600   7.775  18.371  0.00  0.00    +0.000 NA
ATOM      5  C   UNL     1       3.760   7.544  17.511  0.00  0.00    +0.000 C 
ATOM      6  C   UNL     1       4.172   6.110  17.801  0.00  0.00    +0.000 C 
ATOM      7  C   UNL     1       2.948   5.407  18.420  0.00  0.00    +0.000 C 
ATOM      8  C   UNL     1       2.423   4.253  17.554  0.00  0.00    +0.000 C 
ATOM      9  C   UNL     1       2.106   3.107  18.508  0.00  0.00    +0.000 C 
ATOM     10  N   UNL     1       2.378   3.569  19.870  0.00  0.00    +0.000 NA
ATOM     11  C   UNL     1       1.154   3.860  20.606  0.00  0.00    +0.000 C 
ATOM     12  C   UNL     1       3.285   4.715  19.749  0.00  0.00    +0.000 C 
ATOM     13  C   UNL     1       1.893   6.510  18.612  0.00  0.00    +0.000 C 
ENDBRANCH   1   4
BRANCH   1  17
ATOM     14  C   UNL     1      -0.050   9.425  23.279  0.00  0.00    +0.000 C 
ATOM     15  C   UNL     1       0.268   9.911  21.904  0.00  0.00    +0.000 A 
ATOM     16  C   UNL     1       0.856   9.092  20.889  0.00  0.00    +0.000 A 
ATOM     17  C   UNL     1       1.031   9.750  19.688  0.00  0.00    +0.000 A 
ATOM     18  S   UNL     1       0.501  11.367  19.793  0.00  0.00    +0.000 S 
ATOM     19  C   UNL     1       0.026  11.189  21.429  0.00  0.00    +0.000 A 
ATOM     20  C   UNL     1      -0.592  12.338  22.157  0.00  0.00    +0.000 C 
ENDBRANCH   1  17
TORSDOF 2
ENDMDL
MODEL 6
REMARK VINA RESULT:      -6.1      1.856      2.886
REMARK  Name = 
REMARK  5 active torsions:
REMARK  status: ('A' for Active; 'I' for Inactive)
REMARK    1  A    between atoms: C_1  and  C_2
REMARK    2  A    between atoms: C_4  and  S_5
REMARK    3  A    between atoms: S_5  and  N_8
REMARK    4  A    between atoms: N_14  and  C_15
REMARK    5  A    between atoms: C_19  and  C_20
REMARK                            x       y       z     vdW  Elec       q    Type
REMARK                         _______ _______ _______ _____ _____    ______ ____
ROOT
ATOM      1  S   UNL     1       5.888   5.722  15.573  0.00  0.00    +0.000 S 
ATOM      2  O   UNL     1       7.305   5.824  15.848  0.00  0.00    +0.000 OA
ATOM      3  O   UNL     1       5.087   6.892  15.293  0.00  0.00    +0.000 OA
ENDROOT
BRANCH   1   4
ATOM      4  N   UNL     1       5.200   4.886  16.864  0.00  0.00    +0.000 NA
ATOM      5  C   UNL     1       5.155   3.426  16.805  0.00  0.00    +0.000 C 
ATOM      6  C   UNL     1       4.249   3.024  17.958  0.00  0.00    +0.000 C 
ATOM      7  C   UNL     1       3.403   4.261  18.318  0.00  0.00    +0.000 C 
ATOM      8  C   UNL     1       1.901   4.040  18.091  0.00  0.00    +0.000 C 
ATOM      9  C   UNL     1       1.189   4.646  19.295  0.00  0.00    +0.000 C 
ATOM     10  N   UNL     1       2.207   5.238  20.166  0.00  0.00    +0.000 NA
ATOM     11  C   UNL     1       2.227   6.693  20.076  0.00  0.00    +0.000 C 
ATOM     12  C   UNL     1       3.480   4.603  19.813  0.00  0.00    +0.000 C 
ATOM     13  C   UNL     1       3.956   5.404  17.449  0.00  0.00    +0.000 C 
ENDBRANCH   1   4
BRANCH   1  17
ATOM     14  C   UNL     1       4.155   2.891  11.265  0.00  0.00    +0.000 C 
ATOM     15  C   UNL     1       5.133   3.490  12.221  0.00  0.00    +0.000 A 
ATOM     16  C   UNL     1       4.756   4.308  13.332  0.00  0.00    +0.000 A 
ATOM     17  C   UNL     1       5.830   4.725  14.094  0.00  0.00    +0.000 A 
ATOM     18  S   UNL     1       7.298   4.140  13.453  0.00  0.00    +0.000 S 
ATOM     19  C   UNL     1       6.507   3.322  12.173  0.00  0.00    +0.000 A 
ATOM     20  C   UNL     1       7.302   2.528  11.188  0.00  0.00    +0.000 C 
ENDBRANCH   1  17
TORSDOF 2
ENDMDL
MODEL 7
REMARK VINA RESULT:      -6.1      5.257      7.474
REMARK  Name = 
REMARK  5 active torsions:
REMARK  status: ('A' for Active; 'I' for Inactive)
REMARK    1  A    between atoms: C_1  and  C_2
REMARK    2  A    between atoms: C_4  and  S_5
REMARK    3  A    between atoms: S_5  and  N_8
REMARK    4  A    between atoms: N_14  and  C_15
REMARK    5  A    between atoms: C_19  and  C_20
REMARK                            x       y       z     vdW  Elec       q    Type
REMARK                         _______ _______ _______ _____ _____    ______ ____
ROOT
ATOM      1  S   UNL     1       0.898   8.705  21.323  0.00  0.00    +0.000 S 
ATOM      2  O   UNL     1       1.723   9.225  22.392  0.00  0.00    +0.000 OA
ATOM      3  O   UNL     1      -0.378   8.084  21.589  0.00  0.00    +0.000 OA
ENDROOT
BRANCH   1   4
ATOM      4  N   UNL     1       1.857   7.631  20.447  0.00  0.00    +0.000 NA
ATOM      5  C   UNL     1       2.202   7.970  19.068  0.00  0.00    +0.000 C 
ATOM      6  C   UNL     1       2.816   6.699  18.504  0.00  0.00    +0.000 C 
ATOM      7  C   UNL     1       2.341   5.535  19.395  0.00  0.00    +0.000 C 
ATOM      8  C   UNL     1       1.475   4.520  18.637  0.00  0.00    +0.000 C 
ATOM      9  C   UNL     1       1.939   3.138  19.083  0.00  0.00    +0.000 C 
ATOM     10  N   UNL     1       2.988   3.321  20.088  0.00  0.00    +0.000 NA
ATOM     11  C   UNL     1       2.510   3.047  21.437  0.00  0.00    +0.000 C 
ATOM     12  C   UNL     1       3.509   4.680  19.906  0.00  0.00    +0.000 C 
ATOM     13  C   UNL     1       1.575   6.194  20.556  0.00  0.00    +0.000 C 
ENDBRANCH   1   4
BRANCH   1  17
ATOM     14  C   UNL     1       1.083  13.667  19.104  0.00  0.00    +0.000 C 
ATOM     15  C   UNL     1       0.578  12.284  19.354  0.00  0.00    +0.000 A 
ATOM     16  C   UNL     1       1.204  11.361  20.250  0.00  0.00    +0.000 A 
ATOM     17  C   UNL     1       0.542  10.153  20.342  0.00  0.00    +0.000 A 
ATOM     18  S   UNL     1      -0.828  10.127  19.328  0.00  0.00    +0.000 S 
ATOM     19  C   UNL     1      -0.551  11.726  18.779  0.00  0.00    +0.000 A 
ATOM     20  C   UNL     1      -1.496  12.358  17.808  0.00  0.00    +0.000 C 
ENDBRANCH   1  17
TORSDOF 2
ENDMDL
MODEL 8
REMARK VINA RESULT:      -6.0      2.851      6.600
REMARK  Name = 
REMARK  5 active torsions:
REMARK  status: ('A' for Active; 'I' for Inactive)
REMARK    1  A    between atoms: C_1  and  C_2
REMARK    2  A    between atoms: C_4  and  S_5
REMARK    3  A    between atoms: S_5  and  N_8
REMARK    4  A    between atoms: N_14  and  C_15
REMARK    5  A    between atoms: C_19  and  C_20
REMARK                            x       y       z     vdW  Elec       q    Type
REMARK                         _______ _______ _______ _____ _____    ______ ____
ROOT
ATOM      1  S   UNL     1       2.575   4.298  18.552  0.00  0.00    +0.000 S 
ATOM      2  O   UNL     1       2.517   3.676  19.857  0.00  0.00    +0.000 OA
ATOM      3  O   UNL     1       1.670   3.918  17.493  0.00  0.00    +0.000 OA
ENDROOT
BRANCH   1   4
ATOM      4  N   UNL     1       4.160   4.131  18.003  0.00  0.00    +0.000 NA
ATOM      5  C   UNL     1       5.252   4.500  18.901  0.00  0.00    +0.000 C 
ATOM      6  C   UNL     1       6.491   4.492  18.020  0.00  0.00    +0.000 C 
ATOM      7  C   UNL     1       6.008   4.623  16.562  0.00  0.00    +0.000 C 
ATOM      8  C   UNL     1       6.494   5.914  15.889  0.00  0.00    +0.000 C 
ATOM      9  C   UNL     1       6.937   5.525  14.482  0.00  0.00    +0.000 C 
ATOM     10  N   UNL     1       6.681   4.094  14.311  0.00  0.00    +0.000 NA
ATOM     11  C   UNL     1       5.514   3.841  13.475  0.00  0.00    +0.000 C 
ATOM     12  C   UNL     1       6.581   3.523  15.658  0.00  0.00    +0.000 C 
ATOM     13  C   UNL     1       4.472   4.552  16.631  0.00  0.00    +0.000 C 
ENDBRANCH   1   4
BRANCH   1  17
ATOM     14  C   UNL     1       1.931   9.679  18.099  0.00  0.00    +0.000 C 
ATOM     15  C   UNL     1       1.932   8.340  18.758  0.00  0.00    +0.000 A 
ATOM     16  C   UNL     1       2.264   7.124  18.082  0.00  0.00    +0.000 A 
ATOM     17  C   UNL     1       2.225   6.013  18.902  0.00  0.00    +0.000 A 
ATOM     18  S   UNL     1       1.767   6.439  20.488  0.00  0.00    +0.000 S 
ATOM     19  C   UNL     1       1.635   8.100  20.090  0.00  0.00    +0.000 A 
ATOM     20  C   UNL     1       1.261   9.094  21.141  0.00  0.00    +0.000 C 
ENDBRANCH   1  17
TORSDOF 2
ENDMDL
MODEL 9
REMARK VINA RESULT:      -5.9      4.195      7.406
REMARK  Name = 
REMARK  5 active torsions:
REMARK  status: ('A' for Active; 'I' for Inactive)
REMARK    1  A    between atoms: C_1  and  C_2
REMARK    2  A    between atoms: C_4  and  S_5
REMARK    3  A    between atoms: S_5  and  N_8
REMARK    4  A    between atoms: N_14  and  C_15
REMARK    5  A    between atoms: C_19  and  C_20
REMARK                            x       y       z     vdW  Elec       q    Type
REMARK                         _______ _______ _______ _____ _____    ______ ____
ROOT
ATOM      1  S   UNL     1       1.718   8.983  18.070  0.00  0.00    +0.000 S 
ATOM      2  O   UNL     1       0.557   8.551  17.322  0.00  0.00    +0.000 OA
ATOM      3  O   UNL     1       2.581  10.034  17.585  0.00  0.00    +0.000 OA
ENDROOT
BRANCH   1   4
ATOM      4  N   UNL     1       2.646   7.607  18.364  0.00  0.00    +0.000 NA
ATOM      5  C   UNL     1       3.879   7.421  17.600  0.00  0.00    +0.000 C 
ATOM      6  C   UNL     1       4.305   5.994  17.903  0.00  0.00    +0.000 C 
ATOM      7  C   UNL     1       3.055   5.248  18.409  0.00  0.00    +0.000 C 
ATOM      8  C   UNL     1       2.636   4.096  17.486  0.00  0.00    +0.000 C 
ATOM      9  C   UNL     1       2.273   2.926  18.394  0.00  0.00    +0.000 C 
ATOM     10  N   UNL     1       2.420   3.373  19.780  0.00  0.00    +0.000 NA
ATOM     11  C   UNL     1       1.131   3.619  20.417  0.00  0.00    +0.000 C 
ATOM     12  C   UNL     1       3.301   4.545  19.751  0.00  0.00    +0.000 C 
ATOM     13  C   UNL     1       1.958   6.320  18.528  0.00  0.00    +0.000 C 
ENDBRANCH   1   4
BRANCH   1  17
ATOM     14  C   UNL     1      -0.660  12.114  21.827  0.00  0.00    +0.000 C 
ATOM     15  C   UNL     1      -0.003  10.902  21.255  0.00  0.00    +0.000 A 
ATOM     16  C   UNL     1       0.406  10.791  19.889  0.00  0.00    +0.000 A 
ATOM     17  C   UNL     1       1.018   9.589  19.596  0.00  0.00    +0.000 A 
ATOM     18  S   UNL     1       1.081   8.583  20.972  0.00  0.00    +0.000 S 
ATOM     19  C   UNL     1       0.309   9.751  21.959  0.00  0.00    +0.000 A 
ATOM     20  C   UNL     1       0.071   9.466  23.407  0.00  0.00    +0.000 C 
ENDBRANCH   1  17
TORSDOF 2
ENDMDL
