MODEL 1
REMARK VINA RESULT:      -9.3      0.000      0.000
REMARK  Name = 
REMARK  4 active torsions:
REMARK  status: ('A' for Active; 'I' for Inactive)
REMARK    1  A    between atoms: N_2  and  C_4
REMARK    2  A    between atoms: N_10  and  C_11
REMARK    3  A    between atoms: C_11  and  C_12
REMARK    4  A    between atoms: C_21  and  C_22
REMARK                            x       y       z     vdW  Elec       q    Type
REMARK                         _______ _______ _______ _____ _____    ______ ____
ROOT
ATOM      1  C   UNL     1       5.968   4.988  15.495  0.00  0.00    +0.000 A 
ATOM      2  C   UNL     1       5.917   3.817  16.288  0.00  0.00    +0.000 A 
ATOM      3  C   UNL     1       5.126   3.778  17.441  0.00  0.00    +0.000 A 
ATOM      4  C   UNL     1       4.410   4.908  17.784  0.00  0.00    +0.000 A 
ATOM      5  N   UNL     1       3.606   5.034  18.930  0.00  0.00    +0.000 NA
ATOM      6  C   UNL     1       3.118   6.242  18.905  0.00  0.00    +0.000 A 
ATOM      7  N   UNL     1       2.295   6.881  19.797  0.00  0.00    +0.000 N 
ATOM      8  C   UNL     1       1.887   8.199  19.493  0.00  0.00    +0.000 A 
ATOM      9  C   UNL     1       1.013   8.931  20.312  0.00  0.00    +0.000 A 
ATOM     10  C   UNL     1       0.619  10.232  19.998  0.00  0.00    +0.000 A 
ATOM     11  C   UNL     1       1.094  10.857  18.844  0.00  0.00    +0.000 A 
ATOM     12  C   UNL     1       1.975  10.149  18.011  0.00  0.00    +0.000 A 
ATOM     13  C   UNL     1       2.375   8.834  18.308  0.00  0.00    +0.000 A 
ATOM     14  N   UNL     1       3.265   8.203  17.392  0.00  0.00    +0.000 NA
ATOM     15  C   UNL     1       3.600   6.987  17.678  0.00  0.00    +0.000 A 
ATOM     16  C   UNL     1       4.464   6.055  16.984  0.00  0.00    +0.000 A 
ATOM     17  C   UNL     1       5.229   6.139  15.837  0.00  0.00    +0.000 A 
ENDROOT
BRANCH  11  18
ATOM     18  C   UNL     1       0.680  12.269  18.510  0.00  0.00    +0.000 C 
ATOM     19  F   UNL     1       0.487  13.049  19.613  0.00  0.00    +0.000 F 
ATOM     20  F   UNL     1       1.604  12.927  17.755  0.00  0.00    +0.000 F 
ATOM     21  F   UNL     1      -0.488  12.324  17.813  0.00  0.00    +0.000 F 
ENDBRANCH  11  18
BRANCH   1  23
ATOM     22  O   UNL     1       7.878   5.637  14.343  0.00  0.00    +0.000 OA
ATOM     23  N   UNL     1       6.818   4.993  14.297  0.00  0.00    +0.000 N 
ATOM     24  O   UNL     1       6.426   4.355  13.313  0.00  0.00    +0.000 OA
ENDBRANCH   1  23
BRANCH   7  25
ATOM     25  C   UNL     1       1.867   6.188  21.017  0.00  0.00    +0.000 C 
BRANCH  25  26
ATOM     26  C   UNL     1       1.637   4.710  20.773  0.00  0.00    +0.000 A 
ATOM     27  C   UNL     1       2.280   3.751  21.570  0.00  0.00    +0.000 A 
ATOM     28  C   UNL     1       2.163   2.390  21.282  0.00  0.00    +0.000 A 
ATOM     29  C   UNL     1       1.388   1.972  20.205  0.00  0.00    +0.000 A 
ATOM     30  C   UNL     1       0.695   2.907  19.441  0.00  0.00    +0.000 A 
ATOM     31  C   UNL     1       0.808   4.269  19.731  0.00  0.00    +0.000 A 
ENDBRANCH  25  26
ENDBRANCH   7  25
TORSDOF 4
ENDMDL
MODEL 2
REMARK VINA RESULT:      -9.1      5.201      8.074
REMARK  Name = 
REMARK  4 active torsions:
REMARK  status: ('A' for Active; 'I' for Inactive)
REMARK    1  A    between atoms: N_2  and  C_4
REMARK    2  A    between atoms: N_10  and  C_11
REMARK    3  A    between atoms: C_11  and  C_12
REMARK    4  A    between atoms: C_21  and  C_22
REMARK                            x       y       z     vdW  Elec       q    Type
REMARK                         _______ _______ _______ _____ _____    ______ ____
ROOT
ATOM      1  C   UNL     1       0.291  11.918  20.770  0.00  0.00    +0.000 A 
ATOM      2  C   UNL     1       0.726  12.588  19.602  0.00  0.00    +0.000 A 
ATOM      3  C   UNL     1       1.382  11.884  18.587  0.00  0.00    +0.000 A 
ATOM      4  C   UNL     1       1.597  10.530  18.761  0.00  0.00    +0.000 A 
ATOM      5  N   UNL     1       2.275   9.700  17.851  0.00  0.00    +0.000 NA
ATOM      6  C   UNL     1       2.284   8.509  18.379  0.00  0.00    +0.000 A 
ATOM      7  N   UNL     1       2.834   7.341  17.914  0.00  0.00    +0.000 N 
ATOM      8  C   UNL     1       2.656   6.173  18.688  0.00  0.00    +0.000 A 
ATOM      9  C   UNL     1       3.139   4.917  18.287  0.00  0.00    +0.000 A 
ATOM     10  C   UNL     1       2.955   3.771  19.063  0.00  0.00    +0.000 A 
ATOM     11  C   UNL     1       2.278   3.842  20.281  0.00  0.00    +0.000 A 
ATOM     12  C   UNL     1       1.791   5.088  20.708  0.00  0.00    +0.000 A 
ATOM     13  C   UNL     1       1.960   6.250  19.935  0.00  0.00    +0.000 A 
ATOM     14  N   UNL     1       1.419   7.461  20.455  0.00  0.00    +0.000 NA
ATOM     15  C   UNL     1       1.571   8.511  19.714  0.00  0.00    +0.000 A 
ATOM     16  C   UNL     1       1.153   9.882  19.918  0.00  0.00    +0.000 A 
ATOM     17  C   UNL     1       0.499  10.535  20.945  0.00  0.00    +0.000 A 
ENDROOT
BRANCH  11  18
ATOM     18  C   UNL     1       2.090   2.607  21.128  0.00  0.00    +0.000 C 
ATOM     19  F   UNL     1       1.124   2.748  22.081  0.00  0.00    +0.000 F 
ATOM     20  F   UNL     1       1.728   1.515  20.399  0.00  0.00    +0.000 F 
ATOM     21  F   UNL     1       3.220   2.255  21.802  0.00  0.00    +0.000 F 
ENDBRANCH  11  18
BRANCH   1  23
ATOM     22  O   UNL     1      -0.828  13.813  21.514  0.00  0.00    +0.000 OA
ATOM     23  N   UNL     1      -0.386  12.694  21.819  0.00  0.00    +0.000 N 
ATOM     24  O   UNL     1      -0.474  12.186  22.943  0.00  0.00    +0.000 OA
ENDBRANCH   1  23
BRANCH   7  25
ATOM     25  C   UNL     1       3.575   7.339  16.648  0.00  0.00    +0.000 C 
BRANCH  25  26
ATOM     26  C   UNL     1       4.927   6.670  16.788  0.00  0.00    +0.000 A 
ATOM     27  C   UNL     1       5.234   5.526  16.036  0.00  0.00    +0.000 A 
ATOM     28  C   UNL     1       6.432   4.838  16.240  0.00  0.00    +0.000 A 
ATOM     29  C   UNL     1       7.343   5.297  17.185  0.00  0.00    +0.000 A 
ATOM     30  C   UNL     1       7.081   6.464  17.898  0.00  0.00    +0.000 A 
ATOM     31  C   UNL     1       5.885   7.155  17.691  0.00  0.00    +0.000 A 
ENDBRANCH  25  26
ENDBRANCH   7  25
TORSDOF 4
ENDMDL
MODEL 3
REMARK VINA RESULT:      -9.1      5.233      8.118
REMARK  Name = 
REMARK  4 active torsions:
REMARK  status: ('A' for Active; 'I' for Inactive)
REMARK    1  A    between atoms: N_2  and  C_4
REMARK    2  A    between atoms: N_10  and  C_11
REMARK    3  A    between atoms: C_11  and  C_12
REMARK    4  A    between atoms: C_21  and  C_22
REMARK                            x       y       z     vdW  Elec       q    Type
REMARK                         _______ _______ _______ _____ _____    ______ ____
ROOT
ATOM      1  C   UNL     1       0.279  11.915  21.026  0.00  0.00    +0.000 A 
ATOM      2  C   UNL     1       0.677  12.603  19.855  0.00  0.00    +0.000 A 
ATOM      3  C   UNL     1       1.296  11.914  18.807  0.00  0.00    +0.000 A 
ATOM      4  C   UNL     1       1.512  10.557  18.951  0.00  0.00    +0.000 A 
ATOM      5  N   UNL     1       2.156   9.740  18.006  0.00  0.00    +0.000 NA
ATOM      6  C   UNL     1       2.179   8.540  18.513  0.00  0.00    +0.000 A 
ATOM      7  N   UNL     1       2.710   7.379  18.011  0.00  0.00    +0.000 N 
ATOM      8  C   UNL     1       2.554   6.199  18.772  0.00  0.00    +0.000 A 
ATOM      9  C   UNL     1       3.019   4.948  18.335  0.00  0.00    +0.000 A 
ATOM     10  C   UNL     1       2.858   3.791  19.098  0.00  0.00    +0.000 A 
ATOM     11  C   UNL     1       2.223   3.843  20.339  0.00  0.00    +0.000 A 
ATOM     12  C   UNL     1       1.754   5.084  20.802  0.00  0.00    +0.000 A 
ATOM     13  C   UNL     1       1.901   6.258  20.043  0.00  0.00    +0.000 A 
ATOM     14  N   UNL     1       1.382   7.462  20.601  0.00  0.00    +0.000 NA
ATOM     15  C   UNL     1       1.512   8.523  19.872  0.00  0.00    +0.000 A 
ATOM     16  C   UNL     1       1.105   9.891  20.113  0.00  0.00    +0.000 A 
ATOM     17  C   UNL     1       0.489  10.530  21.172  0.00  0.00    +0.000 A 
ENDROOT
BRANCH  11  18
ATOM     18  C   UNL     1       2.060   2.596  21.172  0.00  0.00    +0.000 C 
ATOM     19  F   UNL     1       1.719   1.498  20.437  0.00  0.00    +0.000 F 
ATOM     20  F   UNL     1       3.198   2.251  21.837  0.00  0.00    +0.000 F 
ATOM     21  F   UNL     1       1.089   2.718  22.119  0.00  0.00    +0.000 F 
ENDBRANCH  11  18
BRANCH   1  23
ATOM     22  O   UNL     1      -0.587  13.880  21.912  0.00  0.00    +0.000 OA
ATOM     23  N   UNL     1      -0.359  12.677  22.109  0.00  0.00    +0.000 N 
ATOM     24  O   UNL     1      -0.631  12.071  23.153  0.00  0.00    +0.000 OA
ENDBRANCH   1  23
BRANCH   7  25
ATOM     25  C   UNL     1       3.408   7.396  16.721  0.00  0.00    +0.000 C 
BRANCH  25  26
ATOM     26  C   UNL     1       4.776   6.752  16.813  0.00  0.00    +0.000 A 
ATOM     27  C   UNL     1       5.740   7.256  17.700  0.00  0.00    +0.000 A 
ATOM     28  C   UNL     1       7.037   6.741  17.712  0.00  0.00    +0.000 A 
ATOM     29  C   UNL     1       7.380   5.704  16.850  0.00  0.00    +0.000 A 
ATOM     30  C   UNL     1       6.420   5.153  16.006  0.00  0.00    +0.000 A 
ATOM     31  C   UNL     1       5.120   5.664  15.997  0.00  0.00    +0.000 A 
ENDBRANCH  25  26
ENDBRANCH   7  25
TORSDOF 4
ENDMDL
MODEL 4
REMARK VINA RESULT:      -9.0      4.516      6.810
REMARK  Name = 
REMARK  4 active torsions:
REMARK  status: ('A' for Active; 'I' for Inactive)
REMARK    1  A    between atoms: N_2  and  C_4
REMARK    2  A    between atoms: N_10  and  C_11
REMARK    3  A    between atoms: C_11  and  C_12
REMARK    4  A    between atoms: C_21  and  C_22
REMARK                            x       y       z     vdW  Elec       q    Type
REMARK                         _______ _______ _______ _____ _____    ______ ____
ROOT
ATOM      1  C   UNL     1       0.460  11.604  19.026  0.00  0.00    +0.000 A 
ATOM      2  C   UNL     1      -0.155  11.264  20.256  0.00  0.00    +0.000 A 
ATOM      3  C   UNL     1       0.115  10.033  20.863  0.00  0.00    +0.000 A 
ATOM      4  C   UNL     1       0.984   9.166  20.230  0.00  0.00    +0.000 A 
ATOM      5  N   UNL     1       1.321   7.883  20.695  0.00  0.00    +0.000 NA
ATOM      6  C   UNL     1       2.145   7.380  19.820  0.00  0.00    +0.000 A 
ATOM      7  N   UNL     1       2.754   6.150  19.784  0.00  0.00    +0.000 N 
ATOM      8  C   UNL     1       3.642   5.885  18.718  0.00  0.00    +0.000 A 
ATOM      9  C   UNL     1       4.352   4.678  18.606  0.00  0.00    +0.000 A 
ATOM     10  C   UNL     1       5.226   4.430  17.547  0.00  0.00    +0.000 A 
ATOM     11  C   UNL     1       5.422   5.387  16.551  0.00  0.00    +0.000 A 
ATOM     12  C   UNL     1       4.719   6.600  16.637  0.00  0.00    +0.000 A 
ATOM     13  C   UNL     1       3.841   6.869  17.701  0.00  0.00    +0.000 A 
ATOM     14  N   UNL     1       3.185   8.134  17.697  0.00  0.00    +0.000 NA
ATOM     15  C   UNL     1       2.398   8.365  18.698  0.00  0.00    +0.000 A 
ATOM     16  C   UNL     1       1.589   9.521  19.019  0.00  0.00    +0.000 A 
ATOM     17  C   UNL     1       1.355  10.726  18.384  0.00  0.00    +0.000 A 
ENDROOT
BRANCH  11  18
ATOM     18  C   UNL     1       6.357   5.115  15.398  0.00  0.00    +0.000 C 
ATOM     19  F   UNL     1       5.855   5.510  14.192  0.00  0.00    +0.000 F 
ATOM     20  F   UNL     1       7.553   5.754  15.524  0.00  0.00    +0.000 F 
ATOM     21  F   UNL     1       6.647   3.792  15.258  0.00  0.00    +0.000 F 
ENDBRANCH  11  18
BRANCH   1  23
ATOM     22  O   UNL     1      -0.965  13.030  17.871  0.00  0.00    +0.000 OA
ATOM     23  N   UNL     1       0.143  12.903  18.415  0.00  0.00    +0.000 N 
ATOM     24  O   UNL     1       1.001  13.791  18.479  0.00  0.00    +0.000 OA
ENDBRANCH   1  23
BRANCH   7  25
ATOM     25  C   UNL     1       2.471   5.168  20.836  0.00  0.00    +0.000 C 
BRANCH  25  26
ATOM     26  C   UNL     1       1.970   3.858  20.263  0.00  0.00    +0.000 A 
ATOM     27  C   UNL     1       2.710   2.678  20.436  0.00  0.00    +0.000 A 
ATOM     28  C   UNL     1       2.315   1.491  19.817  0.00  0.00    +0.000 A 
ATOM     29  C   UNL     1       1.166   1.466  19.034  0.00  0.00    +0.000 A 
ATOM     30  C   UNL     1       0.388   2.613  18.901  0.00  0.00    +0.000 A 
ATOM     31  C   UNL     1       0.780   3.800  19.523  0.00  0.00    +0.000 A 
ENDBRANCH  25  26
ENDBRANCH   7  25
TORSDOF 4
ENDMDL
MODEL 5
REMARK VINA RESULT:      -9.0      4.538      6.888
REMARK  Name = 
REMARK  4 active torsions:
REMARK  status: ('A' for Active; 'I' for Inactive)
REMARK    1  A    between atoms: N_2  and  C_4
REMARK    2  A    between atoms: N_10  and  C_11
REMARK    3  A    between atoms: C_11  and  C_12
REMARK    4  A    between atoms: C_21  and  C_22
REMARK                            x       y       z     vdW  Elec       q    Type
REMARK                         _______ _______ _______ _____ _____    ______ ____
ROOT
ATOM      1  C   UNL     1       1.235   9.852  18.868  0.00  0.00    +0.000 A 
ATOM      2  C   UNL     1       0.929   9.251  20.113  0.00  0.00    +0.000 A 
ATOM      3  C   UNL     1       1.500   8.024  20.464  0.00  0.00    +0.000 A 
ATOM      4  C   UNL     1       2.357   7.418  19.566  0.00  0.00    +0.000 A 
ATOM      5  N   UNL     1       2.973   6.169  19.759  0.00  0.00    +0.000 NA
ATOM      6  C   UNL     1       3.683   5.941  18.690  0.00  0.00    +0.000 A 
ATOM      7  N   UNL     1       4.459   4.859  18.359  0.00  0.00    +0.000 N 
ATOM      8  C   UNL     1       5.157   4.898  17.131  0.00  0.00    +0.000 A 
ATOM      9  C   UNL     1       6.012   3.866  16.713  0.00  0.00    +0.000 A 
ATOM     10  C   UNL     1       6.695   3.919  15.497  0.00  0.00    +0.000 A 
ATOM     11  C   UNL     1       6.544   5.014  14.646  0.00  0.00    +0.000 A 
ATOM     12  C   UNL     1       5.689   6.057  15.039  0.00  0.00    +0.000 A 
ATOM     13  C   UNL     1       4.999   6.023  16.264  0.00  0.00    +0.000 A 
ATOM     14  N   UNL     1       4.165   7.137  16.570  0.00  0.00    +0.000 NA
ATOM     15  C   UNL     1       3.559   7.090  17.712  0.00  0.00    +0.000 A 
ATOM     16  C   UNL     1       2.655   8.029  18.343  0.00  0.00    +0.000 A 
ATOM     17  C   UNL     1       2.117   9.241  17.954  0.00  0.00    +0.000 A 
ENDROOT
BRANCH  11  18
ATOM     18  C   UNL     1       7.271   5.066  13.325  0.00  0.00    +0.000 C 
ATOM     19  F   UNL     1       8.616   5.257  13.457  0.00  0.00    +0.000 F 
ATOM     20  F   UNL     1       7.134   3.921  12.599  0.00  0.00    +0.000 F 
ATOM     21  F   UNL     1       6.834   6.077  12.524  0.00  0.00    +0.000 F 
ENDBRANCH  11  18
BRANCH   1  23
ATOM     22  O   UNL     1       1.335  12.141  18.485  0.00  0.00    +0.000 OA
ATOM     23  N   UNL     1       0.607  11.137  18.531  0.00  0.00    +0.000 N 
ATOM     24  O   UNL     1      -0.610  11.141  18.314  0.00  0.00    +0.000 OA
ENDBRANCH   1  23
BRANCH   7  25
ATOM     25  C   UNL     1       4.541   3.716  19.274  0.00  0.00    +0.000 C 
BRANCH  25  26
ATOM     26  C   UNL     1       3.172   3.153  19.595  0.00  0.00    +0.000 A 
ATOM     27  C   UNL     1       2.298   2.778  18.563  0.00  0.00    +0.000 A 
ATOM     28  C   UNL     1       0.996   2.365  18.845  0.00  0.00    +0.000 A 
ATOM     29  C   UNL     1       0.557   2.303  20.164  0.00  0.00    +0.000 A 
ATOM     30  C   UNL     1       1.429   2.614  21.203  0.00  0.00    +0.000 A 
ATOM     31  C   UNL     1       2.735   3.023  20.922  0.00  0.00    +0.000 A 
ENDBRANCH  25  26
ENDBRANCH   7  25
TORSDOF 4
ENDMDL
MODEL 6
REMARK VINA RESULT:      -9.0      0.175      1.113
REMARK  Name = 
REMARK  4 active torsions:
REMARK  status: ('A' for Active; 'I' for Inactive)
REMARK    1  A    between atoms: N_2  and  C_4
REMARK    2  A    between atoms: N_10  and  C_11
REMARK    3  A    between atoms: C_11  and  C_12
REMARK    4  A    between atoms: C_21  and  C_22
REMARK                            x       y       z     vdW  Elec       q    Type
REMARK                         _______ _______ _______ _____ _____    ______ ____
ROOT
ATOM      1  C   UNL     1       5.914   5.025  15.520  0.00  0.00    +0.000 A 
ATOM      2  C   UNL     1       5.819   3.855  16.312  0.00  0.00    +0.000 A 
ATOM      3  C   UNL     1       5.009   3.838  17.452  0.00  0.00    +0.000 A 
ATOM      4  C   UNL     1       4.318   4.987  17.783  0.00  0.00    +0.000 A 
ATOM      5  N   UNL     1       3.500   5.135  18.916  0.00  0.00    +0.000 NA
ATOM      6  C   UNL     1       3.045   6.356  18.884  0.00  0.00    +0.000 A 
ATOM      7  N   UNL     1       2.225   7.017  19.763  0.00  0.00    +0.000 N 
ATOM      8  C   UNL     1       1.858   8.346  19.452  0.00  0.00    +0.000 A 
ATOM      9  C   UNL     1       0.991   9.100  20.258  0.00  0.00    +0.000 A 
ATOM     10  C   UNL     1       0.638  10.412  19.938  0.00  0.00    +0.000 A 
ATOM     11  C   UNL     1       1.147  11.023  18.792  0.00  0.00    +0.000 A 
ATOM     12  C   UNL     1       2.022  10.292  17.972  0.00  0.00    +0.000 A 
ATOM     13  C   UNL     1       2.382   8.967  18.276  0.00  0.00    +0.000 A 
ATOM     14  N   UNL     1       3.269   8.311  17.373  0.00  0.00    +0.000 NA
ATOM     15  C   UNL     1       3.567   7.087  17.665  0.00  0.00    +0.000 A 
ATOM     16  C   UNL     1       4.416   6.132  16.985  0.00  0.00    +0.000 A 
ATOM     17  C   UNL     1       5.201   6.195  15.850  0.00  0.00    +0.000 A 
ENDROOT
BRANCH  11  18
ATOM     18  C   UNL     1       0.777  12.446  18.452  0.00  0.00    +0.000 C 
ATOM     19  F   UNL     1       1.711  13.077  17.682  0.00  0.00    +0.000 F 
ATOM     20  F   UNL     1      -0.392  12.538  17.757  0.00  0.00    +0.000 F 
ATOM     21  F   UNL     1       0.624  13.228  19.556  0.00  0.00    +0.000 F 
ENDBRANCH  11  18
BRANCH   1  23
ATOM     22  O   UNL     1       7.856   5.626  14.396  0.00  0.00    +0.000 OA
ATOM     23  N   UNL     1       6.783   5.007  14.335  0.00  0.00    +0.000 N 
ATOM     24  O   UNL     1       6.392   4.374  13.347  0.00  0.00    +0.000 OA
ENDBRANCH   1  23
BRANCH   7  25
ATOM     25  C   UNL     1       1.759   6.336  20.976  0.00  0.00    +0.000 C 
BRANCH  25  26
ATOM     26  C   UNL     1       1.692   4.834  20.786  0.00  0.00    +0.000 A 
ATOM     27  C   UNL     1       0.858   4.279  19.804  0.00  0.00    +0.000 A 
ATOM     28  C   UNL     1       0.704   2.896  19.696  0.00  0.00    +0.000 A 
ATOM     29  C   UNL     1       1.397   2.052  20.558  0.00  0.00    +0.000 A 
ATOM     30  C   UNL     1       2.274   2.584  21.499  0.00  0.00    +0.000 A 
ATOM     31  C   UNL     1       2.432   3.967  21.604  0.00  0.00    +0.000 A 
ENDBRANCH  25  26
ENDBRANCH   7  25
TORSDOF 4
ENDMDL
MODEL 7
REMARK VINA RESULT:      -8.8      4.529      6.877
REMARK  Name = 
REMARK  4 active torsions:
REMARK  status: ('A' for Active; 'I' for Inactive)
REMARK    1  A    between atoms: N_2  and  C_4
REMARK    2  A    between atoms: N_10  and  C_11
REMARK    3  A    between atoms: C_11  and  C_12
REMARK    4  A    between atoms: C_21  and  C_22
REMARK                            x       y       z     vdW  Elec       q    Type
REMARK                         _______ _______ _______ _____ _____    ______ ____
ROOT
ATOM      1  C   UNL     1      -0.188  11.752  19.719  0.00  0.00    +0.000 A 
ATOM      2  C   UNL     1      -0.685  11.342  20.980  0.00  0.00    +0.000 A 
ATOM      3  C   UNL     1      -0.313  10.106  21.518  0.00  0.00    +0.000 A 
ATOM      4  C   UNL     1       0.540   9.302  20.786  0.00  0.00    +0.000 A 
ATOM      5  N   UNL     1       0.969   8.022  21.174  0.00  0.00    +0.000 NA
ATOM      6  C   UNL     1       1.741   7.588  20.218  0.00  0.00    +0.000 A 
ATOM      7  N   UNL     1       2.399   6.390  20.089  0.00  0.00    +0.000 N 
ATOM      8  C   UNL     1       3.209   6.203  18.947  0.00  0.00    +0.000 A 
ATOM      9  C   UNL     1       3.960   5.036  18.733  0.00  0.00    +0.000 A 
ATOM     10  C   UNL     1       4.756   4.865  17.600  0.00  0.00    +0.000 A 
ATOM     11  C   UNL     1       4.828   5.863  16.628  0.00  0.00    +0.000 A 
ATOM     12  C   UNL     1       4.082   7.038  16.814  0.00  0.00    +0.000 A 
ATOM     13  C   UNL     1       3.281   7.229  17.954  0.00  0.00    +0.000 A 
ATOM     14  N   UNL     1       2.571   8.462  18.050  0.00  0.00    +0.000 NA
ATOM     15  C   UNL     1       1.859   8.621  19.118  0.00  0.00    +0.000 A 
ATOM     16  C   UNL     1       1.028   9.726  19.545  0.00  0.00    +0.000 A 
ATOM     17  C   UNL     1       0.690  10.939  18.976  0.00  0.00    +0.000 A 
ENDROOT
BRANCH  11  18
ATOM     18  C   UNL     1       5.678   5.674  15.395  0.00  0.00    +0.000 C 
ATOM     19  F   UNL     1       7.017   5.695  15.655  0.00  0.00    +0.000 F 
ATOM     20  F   UNL     1       5.445   4.487  14.769  0.00  0.00    +0.000 F 
ATOM     21  F   UNL     1       5.471   6.643  14.461  0.00  0.00    +0.000 F 
ENDBRANCH  11  18
BRANCH   1  23
ATOM     22  O   UNL     1      -0.013  13.491  18.188  0.00  0.00    +0.000 OA
ATOM     23  N   UNL     1      -0.611  13.054  19.184  0.00  0.00    +0.000 N 
ATOM     24  O   UNL     1      -1.538  13.637  19.759  0.00  0.00    +0.000 OA
ENDBRANCH   1  23
BRANCH   7  25
ATOM     25  C   UNL     1       2.247   5.361  21.122  0.00  0.00    +0.000 C 
BRANCH  25  26
ATOM     26  C   UNL     1       1.907   4.011  20.525  0.00  0.00    +0.000 A 
ATOM     27  C   UNL     1       2.786   2.927  20.676  0.00  0.00    +0.000 A 
ATOM     28  C   UNL     1       2.537   1.712  20.036  0.00  0.00    +0.000 A 
ATOM     29  C   UNL     1       1.397   1.560  19.253  0.00  0.00    +0.000 A 
ATOM     30  C   UNL     1       0.485   2.606  19.142  0.00  0.00    +0.000 A 
ATOM     31  C   UNL     1       0.731   3.821  19.786  0.00  0.00    +0.000 A 
ENDBRANCH  25  26
ENDBRANCH   7  25
TORSDOF 4
ENDMDL
MODEL 8
REMARK VINA RESULT:      -8.7      5.216      7.990
REMARK  Name = 
REMARK  4 active torsions:
REMARK  status: ('A' for Active; 'I' for Inactive)
REMARK    1  A    between atoms: N_2  and  C_4
REMARK    2  A    between atoms: N_10  and  C_11
REMARK    3  A    between atoms: C_11  and  C_12
REMARK    4  A    between atoms: C_21  and  C_22
REMARK                            x       y       z     vdW  Elec       q    Type
REMARK                         _______ _______ _______ _____ _____    ______ ____
ROOT
ATOM      1  C   UNL     1       0.443  11.729  19.728  0.00  0.00    +0.000 A 
ATOM      2  C   UNL     1       1.140  12.290  18.631  0.00  0.00    +0.000 A 
ATOM      3  C   UNL     1       1.983  11.494  17.849  0.00  0.00    +0.000 A 
ATOM      4  C   UNL     1       2.120  10.160  18.180  0.00  0.00    +0.000 A 
ATOM      5  N   UNL     1       2.959   9.248  17.516  0.00  0.00    +0.000 NA
ATOM      6  C   UNL     1       2.822   8.108  18.131  0.00  0.00    +0.000 A 
ATOM      7  N   UNL     1       3.430   6.900  17.900  0.00  0.00    +0.000 N 
ATOM      8  C   UNL     1       3.057   5.806  18.712  0.00  0.00    +0.000 A 
ATOM      9  C   UNL     1       3.583   4.517  18.536  0.00  0.00    +0.000 A 
ATOM     10  C   UNL     1       3.204   3.446  19.347  0.00  0.00    +0.000 A 
ATOM     11  C   UNL     1       2.279   3.628  20.375  0.00  0.00    +0.000 A 
ATOM     12  C   UNL     1       1.743   4.911  20.577  0.00  0.00    +0.000 A 
ATOM     13  C   UNL     1       2.108   5.998  19.764  0.00  0.00    +0.000 A 
ATOM     14  N   UNL     1       1.497   7.255  20.048  0.00  0.00    +0.000 NA
ATOM     15  C   UNL     1       1.834   8.233  19.272  0.00  0.00    +0.000 A 
ATOM     16  C   UNL     1       1.417   9.619  19.262  0.00  0.00    +0.000 A 
ATOM     17  C   UNL     1       0.572  10.366  20.061  0.00  0.00    +0.000 A 
ENDROOT
BRANCH  11  18
ATOM     18  C   UNL     1       1.879   2.475  21.262  0.00  0.00    +0.000 C 
ATOM     19  F   UNL     1       0.874   2.785  22.131  0.00  0.00    +0.000 F 
ATOM     20  F   UNL     1       1.434   1.396  20.559  0.00  0.00    +0.000 F 
ATOM     21  F   UNL     1       2.906   2.026  22.035  0.00  0.00    +0.000 F 
ENDBRANCH  11  18
BRANCH   1  23
ATOM     22  O   UNL     1      -0.593  12.306  21.726  0.00  0.00    +0.000 OA
ATOM     23  N   UNL     1      -0.426  12.600  20.532  0.00  0.00    +0.000 N 
ATOM     24  O   UNL     1      -0.940  13.574  19.969  0.00  0.00    +0.000 OA
ENDBRANCH   1  23
BRANCH   7  25
ATOM     25  C   UNL     1       4.429   6.782  16.833  0.00  0.00    +0.000 C 
BRANCH  25  26
ATOM     26  C   UNL     1       5.838   6.970  17.358  0.00  0.00    +0.000 A 
ATOM     27  C   UNL     1       6.467   5.946  18.084  0.00  0.00    +0.000 A 
ATOM     28  C   UNL     1       7.719   6.151  18.667  0.00  0.00    +0.000 A 
ATOM     29  C   UNL     1       8.363   7.374  18.516  0.00  0.00    +0.000 A 
ATOM     30  C   UNL     1       7.780   8.380  17.750  0.00  0.00    +0.000 A 
ATOM     31  C   UNL     1       6.530   8.174  17.162  0.00  0.00    +0.000 A 
ENDBRANCH  25  26
ENDBRANCH   7  25
TORSDOF 4
ENDMDL
MODEL 9
REMARK VINA RESULT:      -8.7      4.358      8.155
REMARK  Name = 
REMARK  4 active torsions:
REMARK  status: ('A' for Active; 'I' for Inactive)
REMARK    1  A    between atoms: N_2  and  C_4
REMARK    2  A    between atoms: N_10  and  C_11
REMARK    3  A    between atoms: C_11  and  C_12
REMARK    4  A    between atoms: C_21  and  C_22
REMARK                            x       y       z     vdW  Elec       q    Type
REMARK                         _______ _______ _______ _____ _____    ______ ____
ROOT
ATOM      1  C   UNL     1       2.182   7.165  19.733  0.00  0.00    +0.000 A 
ATOM      2  C   UNL     1       2.686   7.609  18.487  0.00  0.00    +0.000 A 
ATOM      3  C   UNL     1       2.321   8.861  17.983  0.00  0.00    +0.000 A 
ATOM      4  C   UNL     1       1.456   9.641  18.727  0.00  0.00    +0.000 A 
ATOM      5  N   UNL     1       0.969  10.900  18.335  0.00  0.00    +0.000 NA
ATOM      6  C   UNL     1       0.176  11.299  19.289  0.00  0.00    +0.000 A 
ATOM      7  N   UNL     1      -0.571  12.446  19.395  0.00  0.00    +0.000 N 
ATOM      8  C   UNL     1      -1.322  12.637  20.576  0.00  0.00    +0.000 A 
ATOM      9  C   UNL     1      -2.086  13.792  20.809  0.00  0.00    +0.000 A 
ATOM     10  C   UNL     1      -2.823  13.967  21.982  0.00  0.00    +0.000 A 
ATOM     11  C   UNL     1      -2.824  12.983  22.971  0.00  0.00    +0.000 A 
ATOM     12  C   UNL     1      -2.073  11.816  22.759  0.00  0.00    +0.000 A 
ATOM     13  C   UNL     1      -1.319  11.627  21.588  0.00  0.00    +0.000 A 
ATOM     14  N   UNL     1      -0.584  10.411  21.477  0.00  0.00    +0.000 NA
ATOM     15  C   UNL     1       0.117  10.272  20.399  0.00  0.00    +0.000 A 
ATOM     16  C   UNL     1       0.974   9.190  19.961  0.00  0.00    +0.000 A 
ATOM     17  C   UNL     1       1.309   7.962  20.499  0.00  0.00    +0.000 A 
ENDROOT
BRANCH  11  18
ATOM     18  C   UNL     1      -3.631  13.165  24.233  0.00  0.00    +0.000 C 
ATOM     19  F   UNL     1      -3.940  11.988  24.850  0.00  0.00    +0.000 F 
ATOM     20  F   UNL     1      -2.985  13.912  25.172  0.00  0.00    +0.000 F 
ATOM     21  F   UNL     1      -4.823  13.785  24.010  0.00  0.00    +0.000 F 
ENDBRANCH  11  18
BRANCH   1  23
ATOM     22  O   UNL     1       1.792   5.236  20.967  0.00  0.00    +0.000 OA
ATOM     23  N   UNL     1       2.582   5.838  20.224  0.00  0.00    +0.000 N 
ATOM     24  O   UNL     1       3.682   5.402  19.866  0.00  0.00    +0.000 OA
ENDBRANCH   1  23
BRANCH   7  25
ATOM     25  C   UNL     1      -0.565  13.421  18.300  0.00  0.00    +0.000 C 
BRANCH  25  26
ATOM     26  C   UNL     1       0.320  14.611  18.612  0.00  0.00    +0.000 A 
ATOM     27  C   UNL     1      -0.216  15.908  18.632  0.00  0.00    +0.000 A 
ATOM     28  C   UNL     1       0.611  17.018  18.808  0.00  0.00    +0.000 A 
ATOM     29  C   UNL     1       1.980  16.844  18.983  0.00  0.00    +0.000 A 
ATOM     30  C   UNL     1       2.519  15.561  19.026  0.00  0.00    +0.000 A 
ATOM     31  C   UNL     1       1.692  14.449  18.855  0.00  0.00    +0.000 A 
ENDBRANCH  25  26
ENDBRANCH   7  25
TORSDOF 4
ENDMDL
