MODEL 1
REMARK VINA RESULT:      -5.3      0.000      0.000
REMARK  Name = 
REMARK  5 active torsions:
REMARK  status: ('A' for Active; 'I' for Inactive)
REMARK    1  A    between atoms: N_1  and  C_2
REMARK    2  A    between atoms: C_2  and  C_3
REMARK    3  A    between atoms: C_2  and  C_6
REMARK    4  A    between atoms: C_2  and  C_9
REMARK    5  A    between atoms: C_3  and  O_5
REMARK                            x       y       z     vdW  Elec       q    Type
REMARK                         _______ _______ _______ _____ _____    ______ ____
ROOT
ATOM      1  C   UNL     1       2.865   2.570  19.115  0.00  0.00    +0.000 C 
ENDROOT
BRANCH   1   2
ATOM      2  N   UNL     1       2.218   1.893  17.955  0.00  0.00    +0.000 NA
ATOM      3  H   UNL     1       2.682   2.224  17.105  0.00  0.00    +0.000 HD
ATOM      4  H   UNL     1       1.263   2.250  17.885  0.00  0.00    +0.000 HD
ENDBRANCH   1   2
BRANCH   1   5
ATOM      5  C   UNL     1       3.146   4.037  18.838  0.00  0.00    +0.000 C 
ATOM      6  C   UNL     1       3.911   4.504  17.620  0.00  0.00    +0.000 C 
ATOM      7  C   UNL     1       2.460   4.867  17.769  0.00  0.00    +0.000 C 
ENDBRANCH   1   5
BRANCH   1   8
ATOM      8  C   UNL     1       1.848   2.450  20.249  0.00  0.00    +0.000 C 
ATOM      9  C   UNL     1       2.024   3.119  21.598  0.00  0.00    +0.000 C 
ATOM     10  C   UNL     1       0.952   3.600  20.661  0.00  0.00    +0.000 C 
ENDBRANCH   1   8
BRANCH   1  11
ATOM     11  C   UNL     1       4.199   1.796  19.405  0.00  0.00    +0.000 C 
ATOM     12  O   UNL     1       5.004   2.049  20.285  0.00  0.00    +0.000 OA
BRANCH  11  13
ATOM     13  O   UNL     1       4.346   0.747  18.544  0.00  0.00    +0.000 OA
ATOM     14  H   UNL     1       4.788   1.124  17.743  0.00  0.00    +0.000 HD
ENDBRANCH  11  13
ENDBRANCH   1  11
TORSDOF 5
ENDMDL
MODEL 2
REMARK VINA RESULT:      -5.2      1.652      3.316
REMARK  Name = 
REMARK  5 active torsions:
REMARK  status: ('A' for Active; 'I' for Inactive)
REMARK    1  A    between atoms: N_1  and  C_2
REMARK    2  A    between atoms: C_2  and  C_3
REMARK    3  A    between atoms: C_2  and  C_6
REMARK    4  A    between atoms: C_2  and  C_9
REMARK    5  A    between atoms: C_3  and  O_5
REMARK                            x       y       z     vdW  Elec       q    Type
REMARK                         _______ _______ _______ _____ _____    ______ ____
ROOT
ATOM      1  C   UNL     1       3.847   2.880  19.292  0.00  0.00    +0.000 C 
ENDROOT
BRANCH   1   2
ATOM      2  N   UNL     1       4.896   2.134  20.045  0.00  0.00    +0.000 NA
ATOM      3  H   UNL     1       4.453   1.727  20.873  0.00  0.00    +0.000 HD
ATOM      4  H   UNL     1       5.555   2.821  20.416  0.00  0.00    +0.000 HD
ENDBRANCH   1   2
BRANCH   1   5
ATOM      5  C   UNL     1       2.742   3.390  20.202  0.00  0.00    +0.000 C 
ATOM      6  C   UNL     1       1.471   2.610  20.455  0.00  0.00    +0.000 C 
ATOM      7  C   UNL     1       2.434   2.846  21.585  0.00  0.00    +0.000 C 
ENDBRANCH   1   5
BRANCH   1   8
ATOM      8  C   UNL     1       4.586   4.066  18.673  0.00  0.00    +0.000 C 
ATOM      9  C   UNL     1       3.883   5.206  17.964  0.00  0.00    +0.000 C 
ATOM     10  C   UNL     1       4.555   5.452  19.285  0.00  0.00    +0.000 C 
ENDBRANCH   1   8
BRANCH   1  11
ATOM     11  C   UNL     1       3.270   1.891  18.219  0.00  0.00    +0.000 C 
ATOM     12  O   UNL     1       2.390   2.137  17.411  0.00  0.00    +0.000 OA
BRANCH  11  13
ATOM     13  O   UNL     1       3.910   0.688  18.277  0.00  0.00    +0.000 OA
ATOM     14  H   UNL     1       4.719   0.845  18.824  0.00  0.00    +0.000 HD
ENDBRANCH  11  13
ENDBRANCH   1  11
TORSDOF 5
ENDMDL
MODEL 3
REMARK VINA RESULT:      -5.2      0.958      1.101
REMARK  Name = 
REMARK  5 active torsions:
REMARK  status: ('A' for Active; 'I' for Inactive)
REMARK    1  A    between atoms: N_1  and  C_2
REMARK    2  A    between atoms: C_2  and  C_3
REMARK    3  A    between atoms: C_2  and  C_6
REMARK    4  A    between atoms: C_2  and  C_9
REMARK    5  A    between atoms: C_3  and  O_5
REMARK                            x       y       z     vdW  Elec       q    Type
REMARK                         _______ _______ _______ _____ _____    ______ ____
ROOT
ATOM      1  C   UNL     1       3.117   2.628  19.323  0.00  0.00    +0.000 C 
ENDROOT
BRANCH   1   2
ATOM      2  N   UNL     1       2.851   1.424  18.484  0.00  0.00    +0.000 NA
ATOM      3  H   UNL     1       3.756   1.033  18.209  0.00  0.00    +0.000 HD
ATOM      4  H   UNL     1       2.432   1.747  17.609  0.00  0.00    +0.000 HD
ENDBRANCH   1   2
BRANCH   1   5
ATOM      5  C   UNL     1       2.942   3.920  18.543  0.00  0.00    +0.000 C 
ATOM      6  C   UNL     1       3.212   4.018  17.058  0.00  0.00    +0.000 C 
ATOM      7  C   UNL     1       1.811   4.203  17.571  0.00  0.00    +0.000 C 
ENDBRANCH   1   5
BRANCH   1   8
ATOM      8  C   UNL     1       2.073   2.559  20.437  0.00  0.00    +0.000 C 
ATOM      9  C   UNL     1       2.148   3.396  21.699  0.00  0.00    +0.000 C 
ATOM     10  C   UNL     1       1.074   3.671  20.685  0.00  0.00    +0.000 C 
ENDBRANCH   1   8
BRANCH   1  11
ATOM     11  C   UNL     1       4.588   2.495  19.853  0.00  0.00    +0.000 C 
ATOM     12  O   UNL     1       4.998   1.660  20.640  0.00  0.00    +0.000 OA
BRANCH  11  13
ATOM     13  O   UNL     1       5.393   3.441  19.287  0.00  0.00    +0.000 OA
ATOM     14  H   UNL     1       6.172   2.946  18.932  0.00  0.00    +0.000 HD
ENDBRANCH  11  13
ENDBRANCH   1  11
TORSDOF 5
ENDMDL
MODEL 4
REMARK VINA RESULT:      -5.1      1.837      3.361
REMARK  Name = 
REMARK  5 active torsions:
REMARK  status: ('A' for Active; 'I' for Inactive)
REMARK    1  A    between atoms: N_1  and  C_2
REMARK    2  A    between atoms: C_2  and  C_3
REMARK    3  A    between atoms: C_2  and  C_6
REMARK    4  A    between atoms: C_2  and  C_9
REMARK    5  A    between atoms: C_3  and  O_5
REMARK                            x       y       z     vdW  Elec       q    Type
REMARK                         _______ _______ _______ _____ _____    ______ ____
ROOT
ATOM      1  C   UNL     1       3.451   4.208  19.447  0.00  0.00    +0.000 C 
ENDROOT
BRANCH   1   2
ATOM      2  N   UNL     1       3.438   5.581  20.030  0.00  0.00    +0.000 NA
ATOM      3  H   UNL     1       4.143   6.134  19.536  0.00  0.00    +0.000 HD
ATOM      4  H   UNL     1       3.787   5.511  20.988  0.00  0.00    +0.000 HD
ENDBRANCH   1   2
BRANCH   1   5
ATOM      5  C   UNL     1       2.536   3.257  20.200  0.00  0.00    +0.000 C 
ATOM      6  C   UNL     1       2.178   3.454  21.656  0.00  0.00    +0.000 C 
ATOM      7  C   UNL     1       1.107   3.565  20.607  0.00  0.00    +0.000 C 
ENDBRANCH   1   5
BRANCH   1   8
ATOM      8  C   UNL     1       2.936   4.389  18.020  0.00  0.00    +0.000 C 
ATOM      9  C   UNL     1       3.716   3.956  16.794  0.00  0.00    +0.000 C 
ATOM     10  C   UNL     1       2.459   3.226  17.175  0.00  0.00    +0.000 C 
ENDBRANCH   1   8
BRANCH   1  11
ATOM     11  C   UNL     1       4.938   3.707  19.503  0.00  0.00    +0.000 C 
ATOM     12  O   UNL     1       5.936   4.398  19.397  0.00  0.00    +0.000 OA
BRANCH  11  13
ATOM     13  O   UNL     1       4.986   2.361  19.720  0.00  0.00    +0.000 OA
ATOM     14  H   UNL     1       4.048   2.050  19.664  0.00  0.00    +0.000 HD
ENDBRANCH  11  13
ENDBRANCH   1  11
TORSDOF 5
ENDMDL
MODEL 5
REMARK VINA RESULT:      -5.1      4.102      5.731
REMARK  Name = 
REMARK  5 active torsions:
REMARK  status: ('A' for Active; 'I' for Inactive)
REMARK    1  A    between atoms: N_1  and  C_2
REMARK    2  A    between atoms: C_2  and  C_3
REMARK    3  A    between atoms: C_2  and  C_6
REMARK    4  A    between atoms: C_2  and  C_9
REMARK    5  A    between atoms: C_3  and  O_5
REMARK                            x       y       z     vdW  Elec       q    Type
REMARK                         _______ _______ _______ _____ _____    ______ ____
ROOT
ATOM      1  C   UNL     1       6.731   4.683  16.737  0.00  0.00    +0.000 C 
ENDROOT
BRANCH   1   2
ATOM      2  N   UNL     1       7.998   4.140  17.308  0.00  0.00    +0.000 NA
ATOM      3  H   UNL     1       8.683   4.092  16.549  0.00  0.00    +0.000 HD
ATOM      4  H   UNL     1       7.826   3.165  17.564  0.00  0.00    +0.000 HD
ENDBRANCH   1   2
BRANCH   1   5
ATOM      5  C   UNL     1       6.781   6.192  16.568  0.00  0.00    +0.000 C 
ATOM      6  C   UNL     1       5.939   7.133  17.400  0.00  0.00    +0.000 C 
ATOM      7  C   UNL     1       7.435   7.156  17.540  0.00  0.00    +0.000 C 
ENDBRANCH   1   5
BRANCH   1   8
ATOM      8  C   UNL     1       6.609   4.019  15.367  0.00  0.00    +0.000 C 
ATOM      9  C   UNL     1       5.529   4.374  14.364  0.00  0.00    +0.000 C 
ATOM     10  C   UNL     1       6.959   4.741  14.081  0.00  0.00    +0.000 C 
ENDBRANCH   1   8
BRANCH   1  11
ATOM     11  C   UNL     1       5.579   4.274  17.721  0.00  0.00    +0.000 C 
ATOM     12  O   UNL     1       4.389   4.234  17.461  0.00  0.00    +0.000 OA
BRANCH  11  13
ATOM     13  O   UNL     1       6.085   3.925  18.939  0.00  0.00    +0.000 OA
ATOM     14  H   UNL     1       6.513   3.043  18.804  0.00  0.00    +0.000 HD
ENDBRANCH  11  13
ENDBRANCH   1  11
TORSDOF 5
ENDMDL
MODEL 6
REMARK VINA RESULT:      -5.1      1.040      1.465
REMARK  Name = 
REMARK  5 active torsions:
REMARK  status: ('A' for Active; 'I' for Inactive)
REMARK    1  A    between atoms: N_1  and  C_2
REMARK    2  A    between atoms: C_2  and  C_3
REMARK    3  A    between atoms: C_2  and  C_6
REMARK    4  A    between atoms: C_2  and  C_9
REMARK    5  A    between atoms: C_3  and  O_5
REMARK                            x       y       z     vdW  Elec       q    Type
REMARK                         _______ _______ _______ _____ _____    ______ ____
ROOT
ATOM      1  C   UNL     1       3.091   2.985  19.285  0.00  0.00    +0.000 C 
ENDROOT
BRANCH   1   2
ATOM      2  N   UNL     1       2.455   1.676  18.959  0.00  0.00    +0.000 NA
ATOM      3  H   UNL     1       3.140   1.118  18.442  0.00  0.00    +0.000 HD
ATOM      4  H   UNL     1       1.708   1.857  18.285  0.00  0.00    +0.000 HD
ENDBRANCH   1   2
BRANCH   1   5
ATOM      5  C   UNL     1       3.000   3.969  18.131  0.00  0.00    +0.000 C 
ATOM      6  C   UNL     1       1.679   4.432  17.558  0.00  0.00    +0.000 C 
ATOM      7  C   UNL     1       2.572   5.419  18.256  0.00  0.00    +0.000 C 
ENDBRANCH   1   5
BRANCH   1   8
ATOM      8  C   UNL     1       2.292   3.517  20.474  0.00  0.00    +0.000 C 
ATOM      9  C   UNL     1       0.838   3.166  20.722  0.00  0.00    +0.000 C 
ATOM     10  C   UNL     1       1.900   2.641  21.646  0.00  0.00    +0.000 C 
ENDBRANCH   1   8
BRANCH   1  11
ATOM     11  C   UNL     1       4.590   2.684  19.640  0.00  0.00    +0.000 C 
ATOM     12  O   UNL     1       4.990   1.846  20.430  0.00  0.00    +0.000 OA
BRANCH  11  13
ATOM     13  O   UNL     1       5.428   3.478  18.912  0.00  0.00    +0.000 OA
ATOM     14  H   UNL     1       5.254   4.401  19.224  0.00  0.00    +0.000 HD
ENDBRANCH  11  13
ENDBRANCH   1  11
TORSDOF 5
ENDMDL
MODEL 7
REMARK VINA RESULT:      -5.1      1.583      3.217
REMARK  Name = 
REMARK  5 active torsions:
REMARK  status: ('A' for Active; 'I' for Inactive)
REMARK    1  A    between atoms: N_1  and  C_2
REMARK    2  A    between atoms: C_2  and  C_3
REMARK    3  A    between atoms: C_2  and  C_6
REMARK    4  A    between atoms: C_2  and  C_9
REMARK    5  A    between atoms: C_3  and  O_5
REMARK                            x       y       z     vdW  Elec       q    Type
REMARK                         _______ _______ _______ _____ _____    ______ ____
ROOT
ATOM      1  C   UNL     1       3.573   2.723  19.529  0.00  0.00    +0.000 C 
ENDROOT
BRANCH   1   2
ATOM      2  N   UNL     1       4.879   2.212  20.036  0.00  0.00    +0.000 NA
ATOM      3  H   UNL     1       4.722   1.268  20.399  0.00  0.00    +0.000 HD
ATOM      4  H   UNL     1       5.128   2.767  20.857  0.00  0.00    +0.000 HD
ENDBRANCH   1   2
BRANCH   1   5
ATOM      5  C   UNL     1       2.493   2.692  20.597  0.00  0.00    +0.000 C 
ATOM      6  C   UNL     1       2.191   3.878  21.485  0.00  0.00    +0.000 C 
ATOM      7  C   UNL     1       1.156   3.404  20.504  0.00  0.00    +0.000 C 
ENDBRANCH   1   5
BRANCH   1   8
ATOM      8  C   UNL     1       3.854   4.171  19.131  0.00  0.00    +0.000 C 
ATOM      9  C   UNL     1       5.231   4.801  19.204  0.00  0.00    +0.000 C 
ATOM     10  C   UNL     1       4.604   4.534  17.865  0.00  0.00    +0.000 C 
ENDBRANCH   1   8
BRANCH   1  11
ATOM     11  C   UNL     1       3.174   1.819  18.310  0.00  0.00    +0.000 C 
ATOM     12  O   UNL     1       2.283   2.041  17.508  0.00  0.00    +0.000 OA
BRANCH  11  13
ATOM     13  O   UNL     1       3.990   0.729  18.230  0.00  0.00    +0.000 OA
ATOM     14  H   UNL     1       3.554   0.119  17.584  0.00  0.00    +0.000 HD
ENDBRANCH  11  13
ENDBRANCH   1  11
TORSDOF 5
ENDMDL
MODEL 8
REMARK VINA RESULT:      -5.0      1.058      1.438
REMARK  Name = 
REMARK  5 active torsions:
REMARK  status: ('A' for Active; 'I' for Inactive)
REMARK    1  A    between atoms: N_1  and  C_2
REMARK    2  A    between atoms: C_2  and  C_3
REMARK    3  A    between atoms: C_2  and  C_6
REMARK    4  A    between atoms: C_2  and  C_9
REMARK    5  A    between atoms: C_3  and  O_5
REMARK                            x       y       z     vdW  Elec       q    Type
REMARK                         _______ _______ _______ _____ _____    ______ ____
ROOT
ATOM      1  C   UNL     1       2.748   3.504  18.631  0.00  0.00    +0.000 C 
ENDROOT
BRANCH   1   2
ATOM      2  N   UNL     1       2.048   3.248  17.339  0.00  0.00    +0.000 NA
ATOM      3  H   UNL     1       1.154   2.797  17.556  0.00  0.00    +0.000 HD
ATOM      4  H   UNL     1       2.582   2.536  16.836  0.00  0.00    +0.000 HD
ENDBRANCH   1   2
BRANCH   1   5
ATOM      5  C   UNL     1       3.459   4.847  18.640  0.00  0.00    +0.000 C 
ATOM      6  C   UNL     1       3.995   5.493  17.382  0.00  0.00    +0.000 C 
ATOM      7  C   UNL     1       2.868   6.148  18.129  0.00  0.00    +0.000 C 
ENDBRANCH   1   5
BRANCH   1   8
ATOM      8  C   UNL     1       1.636   3.508  19.679  0.00  0.00    +0.000 C 
ATOM      9  C   UNL     1       1.646   2.615  20.904  0.00  0.00    +0.000 C 
ATOM     10  C   UNL     1       1.825   4.099  21.061  0.00  0.00    +0.000 C 
ENDBRANCH   1   8
BRANCH   1  11
ATOM     11  C   UNL     1       3.774   2.333  18.830  0.00  0.00    +0.000 C 
ATOM     12  O   UNL     1       3.637   1.182  18.452  0.00  0.00    +0.000 OA
BRANCH  11  13
ATOM     13  O   UNL     1       4.892   2.774  19.475  0.00  0.00    +0.000 OA
ATOM     14  H   UNL     1       5.151   3.609  19.013  0.00  0.00    +0.000 HD
ENDBRANCH  11  13
ENDBRANCH   1  11
TORSDOF 5
ENDMDL
MODEL 9
REMARK VINA RESULT:      -5.0      1.973      3.517
REMARK  Name = 
REMARK  5 active torsions:
REMARK  status: ('A' for Active; 'I' for Inactive)
REMARK    1  A    between atoms: N_1  and  C_2
REMARK    2  A    between atoms: C_2  and  C_3
REMARK    3  A    between atoms: C_2  and  C_6
REMARK    4  A    between atoms: C_2  and  C_9
REMARK    5  A    between atoms: C_3  and  O_5
REMARK                            x       y       z     vdW  Elec       q    Type
REMARK                         _______ _______ _______ _____ _____    ______ ____
ROOT
ATOM      1  C   UNL     1       3.307   3.335  19.023  0.00  0.00    +0.000 C 
ENDROOT
BRANCH   1   2
ATOM      2  N   UNL     1       4.198   2.151  19.194  0.00  0.00    +0.000 NA
ATOM      3  H   UNL     1       3.868   1.421  18.558  0.00  0.00    +0.000 HD
ATOM      4  H   UNL     1       4.033   1.775  20.130  0.00  0.00    +0.000 HD
ENDBRANCH   1   2
BRANCH   1   5
ATOM      5  C   UNL     1       2.767   3.842  20.350  0.00  0.00    +0.000 C 
ATOM      6  C   UNL     1       1.295   3.811  20.695  0.00  0.00    +0.000 C 
ATOM      7  C   UNL     1       2.258   2.961  21.476  0.00  0.00    +0.000 C 
ENDBRANCH   1   5
BRANCH   1   8
ATOM      8  C   UNL     1       4.200   4.403  18.394  0.00  0.00    +0.000 C 
ATOM      9  C   UNL     1       3.900   5.887  18.467  0.00  0.00    +0.000 C 
ATOM     10  C   UNL     1       5.071   5.326  19.223  0.00  0.00    +0.000 C 
ENDBRANCH   1   8
BRANCH   1  11
ATOM     11  C   UNL     1       2.134   2.886  18.082  0.00  0.00    +0.000 C 
ATOM     12  O   UNL     1       1.487   3.607  17.341  0.00  0.00    +0.000 OA
BRANCH  11  13
ATOM     13  O   UNL     1       1.932   1.540  18.170  0.00  0.00    +0.000 OA
ATOM     14  H   UNL     1       1.242   1.331  17.492  0.00  0.00    +0.000 HD
ENDBRANCH  11  13
ENDBRANCH   1  11
TORSDOF 5
ENDMDL
