MODEL 1
REMARK VINA RESULT:      -6.7      0.000      0.000
REMARK  Name = 
REMARK  2 active torsions:
REMARK  status: ('A' for Active; 'I' for Inactive)
REMARK    1  A    between atoms: C_5  and  C_6
REMARK    2  A    between atoms: C_12  and  N_13
REMARK                            x       y       z     vdW  Elec       q    Type
REMARK                         _______ _______ _______ _____ _____    ______ ____
ROOT
ATOM      1  N   UNL     1       0.579   3.101  20.150  0.00  0.00    +0.000 N 
ATOM      2  C   UNL     1       1.698   3.471  19.436  0.00  0.00    +0.000 A 
ATOM      3  N   UNL     1       1.529   4.304  18.414  0.00  0.00    +0.000 NA
ATOM      4  C   UNL     1       2.644   4.637  17.729  0.00  0.00    +0.000 A 
ATOM      5  C   UNL     1       3.926   4.190  18.013  0.00  0.00    +0.000 A 
ATOM      6  C   UNL     1       3.957   3.312  19.099  0.00  0.00    +0.000 A 
ATOM      7  N   UNL     1       2.867   2.939  19.794  0.00  0.00    +0.000 NA
ATOM      8  H   UNL     1      -0.242   3.217  19.573  0.00  0.00    +0.000 HD
ATOM      9  H   UNL     1       0.726   2.193  20.567  0.00  0.00    +0.000 HD
ENDROOT
BRANCH   5  10
ATOM     10  C   UNL     1       5.098   4.632  17.222  0.00  0.00    +0.000 A 
ATOM     11  C   UNL     1       5.865   5.744  17.611  0.00  0.00    +0.000 A 
ATOM     12  C   UNL     1       6.959   6.128  16.849  0.00  0.00    +0.000 A 
ATOM     13  N   UNL     1       7.359   5.485  15.735  0.00  0.00    +0.000 NA
ATOM     14  C   UNL     1       6.619   4.424  15.359  0.00  0.00    +0.000 A 
ATOM     15  C   UNL     1       5.498   3.981  16.045  0.00  0.00    +0.000 A 
ENDBRANCH   5  10
BRANCH   6  16
ATOM     16  N   UNL     1       5.140   2.725  19.562  0.00  0.00    +0.000 N 
ATOM     17  H   UNL     1       4.993   2.260  20.452  0.00  0.00    +0.000 HD
ATOM     18  H   UNL     1       5.445   2.072  18.843  0.00  0.00    +0.000 HD
ENDBRANCH   6  16
TORSDOF 2
ENDMDL
MODEL 2
REMARK VINA RESULT:      -6.7      0.044      1.251
REMARK  Name = 
REMARK  2 active torsions:
REMARK  status: ('A' for Active; 'I' for Inactive)
REMARK    1  A    between atoms: C_5  and  C_6
REMARK    2  A    between atoms: C_12  and  N_13
REMARK                            x       y       z     vdW  Elec       q    Type
REMARK                         _______ _______ _______ _____ _____    ______ ____
ROOT
ATOM      1  N   UNL     1       0.546   3.043  20.085  0.00  0.00    +0.000 N 
ATOM      2  C   UNL     1       1.673   3.426  19.389  0.00  0.00    +0.000 A 
ATOM      3  N   UNL     1       1.513   4.266  18.371  0.00  0.00    +0.000 NA
ATOM      4  C   UNL     1       2.634   4.612  17.704  0.00  0.00    +0.000 A 
ATOM      5  C   UNL     1       3.915   4.171  18.003  0.00  0.00    +0.000 A 
ATOM      6  C   UNL     1       3.937   3.287  19.083  0.00  0.00    +0.000 A 
ATOM      7  N   UNL     1       2.841   2.900  19.760  0.00  0.00    +0.000 NA
ATOM      8  H   UNL     1      -0.267   3.156  19.497  0.00  0.00    +0.000 HD
ATOM      9  H   UNL     1       0.695   2.133  20.497  0.00  0.00    +0.000 HD
ENDROOT
BRANCH   5  10
ATOM     10  C   UNL     1       5.095   4.628  17.232  0.00  0.00    +0.000 A 
ATOM     11  C   UNL     1       5.500   3.971  16.057  0.00  0.00    +0.000 A 
ATOM     12  C   UNL     1       6.606   4.428  15.357  0.00  0.00    +0.000 A 
ATOM     13  N   UNL     1       7.335   5.499  15.725  0.00  0.00    +0.000 NA
ATOM     14  C   UNL     1       6.952   6.125  16.855  0.00  0.00    +0.000 A 
ATOM     15  C   UNL     1       5.874   5.726  17.630  0.00  0.00    +0.000 A 
ENDBRANCH   5  10
BRANCH   6  16
ATOM     16  N   UNL     1       5.118   2.705  19.559  0.00  0.00    +0.000 N 
ATOM     17  H   UNL     1       5.898   2.904  18.940  0.00  0.00    +0.000 HD
ATOM     18  H   UNL     1       5.276   3.079  20.492  0.00  0.00    +0.000 HD
ENDBRANCH   6  16
TORSDOF 2
ENDMDL
MODEL 3
REMARK VINA RESULT:      -6.5      1.029      1.029
REMARK  Name = 
REMARK  2 active torsions:
REMARK  status: ('A' for Active; 'I' for Inactive)
REMARK    1  A    between atoms: C_5  and  C_6
REMARK    2  A    between atoms: C_12  and  N_13
REMARK                            x       y       z     vdW  Elec       q    Type
REMARK                         _______ _______ _______ _____ _____    ______ ____
ROOT
ATOM      1  N   UNL     1       0.392   3.173  20.329  0.00  0.00    +0.000 N 
ATOM      2  C   UNL     1       1.549   3.403  19.615  0.00  0.00    +0.000 A 
ATOM      3  N   UNL     1       1.862   4.666  19.339  0.00  0.00    +0.000 NA
ATOM      4  C   UNL     1       2.994   4.856  18.629  0.00  0.00    +0.000 A 
ATOM      5  C   UNL     1       3.841   3.852  18.183  0.00  0.00    +0.000 A 
ATOM      6  C   UNL     1       3.387   2.578  18.529  0.00  0.00    +0.000 A 
ATOM      7  N   UNL     1       2.254   2.344  19.217  0.00  0.00    +0.000 NA
ATOM      8  H   UNL     1      -0.234   3.957  20.216  0.00  0.00    +0.000 HD
ATOM      9  H   UNL     1       0.031   2.257  20.104  0.00  0.00    +0.000 HD
ENDROOT
BRANCH   5  10
ATOM     10  C   UNL     1       5.081   4.157  17.432  0.00  0.00    +0.000 A 
ATOM     11  C   UNL     1       6.272   4.500  18.096  0.00  0.00    +0.000 A 
ATOM     12  C   UNL     1       7.417   4.775  17.362  0.00  0.00    +0.000 A 
ATOM     13  N   UNL     1       7.474   4.723  16.018  0.00  0.00    +0.000 NA
ATOM     14  C   UNL     1       6.331   4.401  15.381  0.00  0.00    +0.000 A 
ATOM     15  C   UNL     1       5.136   4.132  16.030  0.00  0.00    +0.000 A 
ENDBRANCH   5  10
BRANCH   6  16
ATOM     16  N   UNL     1       4.074   1.410  18.177  0.00  0.00    +0.000 N 
ATOM     17  H   UNL     1       4.737   1.145  18.898  0.00  0.00    +0.000 HD
ATOM     18  H   UNL     1       3.372   0.689  18.029  0.00  0.00    +0.000 HD
ENDBRANCH   6  16
TORSDOF 2
ENDMDL
MODEL 4
REMARK VINA RESULT:      -6.5      1.018      1.482
REMARK  Name = 
REMARK  2 active torsions:
REMARK  status: ('A' for Active; 'I' for Inactive)
REMARK    1  A    between atoms: C_5  and  C_6
REMARK    2  A    between atoms: C_12  and  N_13
REMARK                            x       y       z     vdW  Elec       q    Type
REMARK                         _______ _______ _______ _____ _____    ______ ____
ROOT
ATOM      1  N   UNL     1       0.436   3.236  20.308  0.00  0.00    +0.000 N 
ATOM      2  C   UNL     1       1.589   3.452  19.583  0.00  0.00    +0.000 A 
ATOM      3  N   UNL     1       1.907   4.710  19.292  0.00  0.00    +0.000 NA
ATOM      4  C   UNL     1       3.035   4.886  18.572  0.00  0.00    +0.000 A 
ATOM      5  C   UNL     1       3.873   3.872  18.131  0.00  0.00    +0.000 A 
ATOM      6  C   UNL     1       3.415   2.604  18.493  0.00  0.00    +0.000 A 
ATOM      7  N   UNL     1       2.285   2.385  19.191  0.00  0.00    +0.000 NA
ATOM      8  H   UNL     1      -0.186   4.022  20.192  0.00  0.00    +0.000 HD
ATOM      9  H   UNL     1       0.068   2.319  20.096  0.00  0.00    +0.000 HD
ENDROOT
BRANCH   5  10
ATOM     10  C   UNL     1       5.110   4.162  17.368  0.00  0.00    +0.000 A 
ATOM     11  C   UNL     1       5.126   4.132  15.963  0.00  0.00    +0.000 A 
ATOM     12  C   UNL     1       6.301   4.414  15.280  0.00  0.00    +0.000 A 
ATOM     13  N   UNL     1       7.459   4.737  15.885  0.00  0.00    +0.000 NA
ATOM     14  C   UNL     1       7.445   4.759  17.232  0.00  0.00    +0.000 A 
ATOM     15  C   UNL     1       6.326   4.470  17.997  0.00  0.00    +0.000 A 
ENDBRANCH   5  10
BRANCH   6  16
ATOM     16  N   UNL     1       4.092   1.429  18.148  0.00  0.00    +0.000 N 
ATOM     17  H   UNL     1       5.081   1.608  17.999  0.00  0.00    +0.000 HD
ATOM     18  H   UNL     1       3.941   0.769  18.907  0.00  0.00    +0.000 HD
ENDBRANCH   6  16
TORSDOF 2
ENDMDL
MODEL 5
REMARK VINA RESULT:      -6.4      1.041      1.041
REMARK  Name = 
REMARK  2 active torsions:
REMARK  status: ('A' for Active; 'I' for Inactive)
REMARK    1  A    between atoms: C_5  and  C_6
REMARK    2  A    between atoms: C_12  and  N_13
REMARK                            x       y       z     vdW  Elec       q    Type
REMARK                         _______ _______ _______ _____ _____    ______ ____
ROOT
ATOM      1  N   UNL     1       0.967   2.805  21.200  0.00  0.00    +0.000 N 
ATOM      2  C   UNL     1       1.792   3.280  20.203  0.00  0.00    +0.000 A 
ATOM      3  N   UNL     1       1.231   3.984  19.224  0.00  0.00    +0.000 NA
ATOM      4  C   UNL     1       2.064   4.425  18.258  0.00  0.00    +0.000 A 
ATOM      5  C   UNL     1       3.434   4.209  18.218  0.00  0.00    +0.000 A 
ATOM      6  C   UNL     1       3.887   3.447  19.296  0.00  0.00    +0.000 A 
ATOM      7  N   UNL     1       3.086   2.970  20.268  0.00  0.00    +0.000 NA
ATOM      8  H   UNL     1       0.021   2.740  20.853  0.00  0.00    +0.000 HD
ATOM      9  H   UNL     1       1.369   1.971  21.605  0.00  0.00    +0.000 HD
ENDROOT
BRANCH   5  10
ATOM     10  C   UNL     1       4.277   4.757  17.129  0.00  0.00    +0.000 A 
ATOM     11  C   UNL     1       4.487   6.141  16.993  0.00  0.00    +0.000 A 
ATOM     12  C   UNL     1       5.286   6.620  15.965  0.00  0.00    +0.000 A 
ATOM     13  N   UNL     1       5.903   5.829  15.067  0.00  0.00    +0.000 NA
ATOM     14  C   UNL     1       5.696   4.504  15.192  0.00  0.00    +0.000 A 
ATOM     15  C   UNL     1       4.897   3.937  16.174  0.00  0.00    +0.000 A 
ENDBRANCH   5  10
BRANCH   6  16
ATOM     16  N   UNL     1       5.231   3.095  19.461  0.00  0.00    +0.000 N 
ATOM     17  H   UNL     1       5.844   3.856  19.187  0.00  0.00    +0.000 HD
ATOM     18  H   UNL     1       5.353   2.848  20.441  0.00  0.00    +0.000 HD
ENDBRANCH   6  16
TORSDOF 2
ENDMDL
MODEL 6
REMARK VINA RESULT:      -6.3      1.202      1.725
REMARK  Name = 
REMARK  2 active torsions:
REMARK  status: ('A' for Active; 'I' for Inactive)
REMARK    1  A    between atoms: C_5  and  C_6
REMARK    2  A    between atoms: C_12  and  N_13
REMARK                            x       y       z     vdW  Elec       q    Type
REMARK                         _______ _______ _______ _____ _____    ______ ____
ROOT
ATOM      1  N   UNL     1       0.919   2.892  21.343  0.00  0.00    +0.000 N 
ATOM      2  C   UNL     1       2.020   3.293  20.617  0.00  0.00    +0.000 A 
ATOM      3  N   UNL     1       1.961   4.476  20.012  0.00  0.00    +0.000 NA
ATOM      4  C   UNL     1       3.050   4.834  19.301  0.00  0.00    +0.000 A 
ATOM      5  C   UNL     1       4.205   4.078  19.165  0.00  0.00    +0.000 A 
ATOM      6  C   UNL     1       4.127   2.857  19.837  0.00  0.00    +0.000 A 
ATOM      7  N   UNL     1       3.052   2.454  20.539  0.00  0.00    +0.000 NA
ATOM      8  H   UNL     1       0.099   3.376  21.007  0.00  0.00    +0.000 HD
ATOM      9  H   UNL     1       0.880   1.883  21.371  0.00  0.00    +0.000 HD
ENDROOT
BRANCH   5  10
ATOM     10  C   UNL     1       5.367   4.566  18.384  0.00  0.00    +0.000 A 
ATOM     11  C   UNL     1       5.512   4.260  17.020  0.00  0.00    +0.000 A 
ATOM     12  C   UNL     1       6.609   4.738  16.318  0.00  0.00    +0.000 A 
ATOM     13  N   UNL     1       7.570   5.507  16.865  0.00  0.00    +0.000 NA
ATOM     14  C   UNL     1       7.435   5.794  18.174  0.00  0.00    +0.000 A 
ATOM     15  C   UNL     1       6.384   5.343  18.959  0.00  0.00    +0.000 A 
ENDBRANCH   5  10
BRANCH   6  16
ATOM     16  N   UNL     1       5.170   1.924  19.833  0.00  0.00    +0.000 N 
ATOM     17  H   UNL     1       4.841   1.009  19.541  0.00  0.00    +0.000 HD
ATOM     18  H   UNL     1       5.884   2.284  19.203  0.00  0.00    +0.000 HD
ENDBRANCH   6  16
TORSDOF 2
ENDMDL
MODEL 7
REMARK VINA RESULT:      -6.3      1.310      1.871
REMARK  Name = 
REMARK  2 active torsions:
REMARK  status: ('A' for Active; 'I' for Inactive)
REMARK    1  A    between atoms: C_5  and  C_6
REMARK    2  A    between atoms: C_12  and  N_13
REMARK                            x       y       z     vdW  Elec       q    Type
REMARK                         _______ _______ _______ _____ _____    ______ ____
ROOT
ATOM      1  N   UNL     1       1.352   2.596  21.962  0.00  0.00    +0.000 N 
ATOM      2  C   UNL     1       2.052   3.138  20.905  0.00  0.00    +0.000 A 
ATOM      3  N   UNL     1       1.438   4.059  20.168  0.00  0.00    +0.000 NA
ATOM      4  C   UNL     1       2.146   4.561  19.134  0.00  0.00    +0.000 A 
ATOM      5  C   UNL     1       3.442   4.200  18.797  0.00  0.00    +0.000 A 
ATOM      6  C   UNL     1       3.960   3.216  19.643  0.00  0.00    +0.000 A 
ATOM      7  N   UNL     1       3.280   2.675  20.670  0.00  0.00    +0.000 NA
ATOM      8  H   UNL     1       0.361   2.700  21.799  0.00  0.00    +0.000 HD
ATOM      9  H   UNL     1       1.694   1.664  22.153  0.00  0.00    +0.000 HD
ENDROOT
BRANCH   5  10
ATOM     10  C   UNL     1       4.154   4.827  17.658  0.00  0.00    +0.000 A 
ATOM     11  C   UNL     1       4.558   4.072  16.544  0.00  0.00    +0.000 A 
ATOM     12  C   UNL     1       5.217   4.693  15.493  0.00  0.00    +0.000 A 
ATOM     13  N   UNL     1       5.496   6.010  15.457  0.00  0.00    +0.000 NA
ATOM     14  C   UNL     1       5.115   6.732  16.528  0.00  0.00    +0.000 A 
ATOM     15  C   UNL     1       4.471   6.194  17.632  0.00  0.00    +0.000 A 
ENDBRANCH   5  10
BRANCH   6  16
ATOM     16  N   UNL     1       5.247   2.689  19.489  0.00  0.00    +0.000 N 
ATOM     17  H   UNL     1       5.930   3.238  20.002  0.00  0.00    +0.000 HD
ATOM     18  H   UNL     1       5.213   1.728  19.820  0.00  0.00    +0.000 HD
ENDBRANCH   6  16
TORSDOF 2
ENDMDL
MODEL 8
REMARK VINA RESULT:      -6.3      1.508      5.171
REMARK  Name = 
REMARK  2 active torsions:
REMARK  status: ('A' for Active; 'I' for Inactive)
REMARK    1  A    between atoms: C_5  and  C_6
REMARK    2  A    between atoms: C_12  and  N_13
REMARK                            x       y       z     vdW  Elec       q    Type
REMARK                         _______ _______ _______ _____ _____    ______ ____
ROOT
ATOM      1  N   UNL     1       7.805   5.367  13.959  0.00  0.00    +0.000 N 
ATOM      2  C   UNL     1       6.970   5.059  15.012  0.00  0.00    +0.000 A 
ATOM      3  N   UNL     1       5.665   4.997  14.764  0.00  0.00    +0.000 NA
ATOM      4  C   UNL     1       4.874   4.704  15.818  0.00  0.00    +0.000 A 
ATOM      5  C   UNL     1       5.315   4.459  17.110  0.00  0.00    +0.000 A 
ATOM      6  C   UNL     1       6.701   4.570  17.232  0.00  0.00    +0.000 A 
ATOM      7  N   UNL     1       7.522   4.881  16.212  0.00  0.00    +0.000 NA
ATOM      8  H   UNL     1       7.285   5.862  13.250  0.00  0.00    +0.000 HD
ATOM      9  H   UNL     1       8.644   5.808  14.310  0.00  0.00    +0.000 HD
ENDROOT
BRANCH   5  10
ATOM     10  C   UNL     1       4.373   4.116  18.202  0.00  0.00    +0.000 A 
ATOM     11  C   UNL     1       3.928   5.086  19.116  0.00  0.00    +0.000 A 
ATOM     12  C   UNL     1       3.042   4.731  20.123  0.00  0.00    +0.000 A 
ATOM     13  N   UNL     1       2.552   3.487  20.284  0.00  0.00    +0.000 NA
ATOM     14  C   UNL     1       2.984   2.556  19.413  0.00  0.00    +0.000 A 
ATOM     15  C   UNL     1       3.884   2.814  18.390  0.00  0.00    +0.000 A 
ENDBRANCH   5  10
BRANCH   6  16
ATOM     16  N   UNL     1       7.371   4.375  18.445  0.00  0.00    +0.000 N 
ATOM     17  H   UNL     1       7.051   3.530  18.908  0.00  0.00    +0.000 HD
ATOM     18  H   UNL     1       8.364   4.331  18.229  0.00  0.00    +0.000 HD
ENDBRANCH   6  16
TORSDOF 2
ENDMDL
MODEL 9
REMARK VINA RESULT:      -6.2      1.731      5.270
REMARK  Name = 
REMARK  2 active torsions:
REMARK  status: ('A' for Active; 'I' for Inactive)
REMARK    1  A    between atoms: C_5  and  C_6
REMARK    2  A    between atoms: C_12  and  N_13
REMARK                            x       y       z     vdW  Elec       q    Type
REMARK                         _______ _______ _______ _____ _____    ______ ____
ROOT
ATOM      1  N   UNL     1       7.181   7.312  16.874  0.00  0.00    +0.000 N 
ATOM      2  C   UNL     1       6.110   6.596  17.363  0.00  0.00    +0.000 A 
ATOM      3  N   UNL     1       4.895   7.109  17.189  0.00  0.00    +0.000 NA
ATOM      4  C   UNL     1       3.869   6.389  17.689  0.00  0.00    +0.000 A 
ATOM      5  C   UNL     1       3.986   5.175  18.349  0.00  0.00    +0.000 A 
ATOM      6  C   UNL     1       5.314   4.760  18.474  0.00  0.00    +0.000 A 
ATOM      7  N   UNL     1       6.366   5.459  18.009  0.00  0.00    +0.000 NA
ATOM      8  H   UNL     1       6.926   8.285  16.789  0.00  0.00    +0.000 HD
ATOM      9  H   UNL     1       8.008   7.097  17.412  0.00  0.00    +0.000 HD
ENDROOT
BRANCH   5  10
ATOM     10  C   UNL     1       2.798   4.439  18.841  0.00  0.00    +0.000 A 
ATOM     11  C   UNL     1       2.184   3.440  18.065  0.00  0.00    +0.000 A 
ATOM     12  C   UNL     1       1.075   2.768  18.558  0.00  0.00    +0.000 A 
ATOM     13  N   UNL     1       0.536   3.001  19.770  0.00  0.00    +0.000 NA
ATOM     14  C   UNL     1       1.120   3.962  20.511  0.00  0.00    +0.000 A 
ATOM     15  C   UNL     1       2.216   4.701  20.091  0.00  0.00    +0.000 A 
ENDBRANCH   5  10
BRANCH   6  16
ATOM     16  N   UNL     1       5.676   3.569  19.113  0.00  0.00    +0.000 N 
ATOM     17  H   UNL     1       4.858   3.077  19.459  0.00  0.00    +0.000 HD
ATOM     18  H   UNL     1       6.188   3.013  18.432  0.00  0.00    +0.000 HD
ENDBRANCH   6  16
TORSDOF 2
ENDMDL
