MODEL 1
REMARK VINA RESULT:      -8.8      0.000      0.000
REMARK  Name = 
REMARK  7 active torsions:
REMARK  status: ('A' for Active; 'I' for Inactive)
REMARK    1  A    between atoms: C_1  and  N_2
REMARK    2  A    between atoms: N_2  and  C_15
REMARK    3  A    between atoms: C_3  and  C_5
REMARK    4  A    between atoms: C_5  and  N_6
REMARK    5  A    between atoms: C_7  and  C_9
REMARK    6  A    between atoms: C_21  and  C_22
REMARK    7  A    between atoms: C_22  and  C_24
REMARK                            x       y       z     vdW  Elec       q    Type
REMARK                         _______ _______ _______ _____ _____    ______ ____
ROOT
ATOM      1  C   UNL     1       6.021   4.793  17.292  0.00  0.00    +0.000 A 
ATOM      2  C   UNL     1       7.033   4.229  16.493  0.00  0.00    +0.000 A 
ATOM      3  C   UNL     1       6.809   3.953  15.143  0.00  0.00    +0.000 A 
ATOM      4  C   UNL     1       5.582   4.267  14.576  0.00  0.00    +0.000 A 
ATOM      5 CL   UNL     1       5.281   3.932  12.917  0.00  0.00    +0.000 Cl
ATOM      6  C   UNL     1       4.575   4.846  15.343  0.00  0.00    +0.000 A 
ATOM      7  C   UNL     1       4.763   5.086  16.713  0.00  0.00    +0.000 A 
ENDROOT
BRANCH   1   9
ATOM      8  C   UNL     1       5.827   3.971  19.581  0.00  0.00    +0.000 C 
ATOM      9  N   UNL     1       6.342   4.981  18.665  0.00  0.00    +0.000 N 
ATOM     10  C   UNL     1       7.319   5.872  19.121  0.00  0.00    +0.000 C 
ATOM     11  O   UNL     1       7.698   5.905  20.298  0.00  0.00    +0.000 OA
BRANCH  10  12
ATOM     12  C   UNL     1       7.851   6.906  18.116  0.00  0.00    +0.000 C 
BRANCH  12  13
ATOM     13  N   UNL     1       8.543   7.999  18.772  0.00  0.00    +0.000 N 
ATOM     14  C   UNL     1       8.479   9.276  18.257  0.00  0.00    +0.000 C 
ATOM     15  O   UNL     1       7.860   9.554  17.235  0.00  0.00    +0.000 OA
ATOM     16  H   UNL     1       9.053   7.792  19.619  0.00  0.00    +0.000 HD
BRANCH  14  17
ATOM     17  C   UNL     1       9.258  10.326  18.963  0.00  0.00    +0.000 A 
ATOM     18  C   UNL     1      10.092  11.151  18.194  0.00  0.00    +0.000 A 
ATOM     19  C   UNL     1      10.856  12.145  18.810  0.00  0.00    +0.000 A 
ATOM     20  C   UNL     1      10.784  12.320  20.195  0.00  0.00    +0.000 A 
ATOM     21  C   UNL     1       9.949  11.505  20.960  0.00  0.00    +0.000 A 
ATOM     22  C   UNL     1       9.182  10.511  20.350  0.00  0.00    +0.000 A 
ENDBRANCH  14  17
ENDBRANCH  12  13
ENDBRANCH  10  12
ENDBRANCH   1   9
BRANCH   7  23
ATOM     23  C   UNL     1       3.623   5.670  17.489  0.00  0.00    +0.000 C 
ATOM     24  O   UNL     1       3.539   6.880  17.617  0.00  0.00    +0.000 OA
BRANCH  23  25
ATOM     25  C   UNL     1       2.622   4.797  18.192  0.00  0.00    +0.000 A 
ATOM     26  C   UNL     1       2.307   3.535  17.649  0.00  0.00    +0.000 A 
ATOM     27  C   UNL     1       1.473   2.647  18.331  0.00  0.00    +0.000 A 
ATOM     28  C   UNL     1       0.967   2.990  19.580  0.00  0.00    +0.000 A 
ATOM     29  C   UNL     1       1.242   4.248  20.115  0.00  0.00    +0.000 A 
ATOM     30  C   UNL     1       2.056   5.158  19.425  0.00  0.00    +0.000 A 
ATOM     31 CL   UNL     1       2.249   6.718  20.143  0.00  0.00    +0.000 Cl
ENDBRANCH  23  25
ENDBRANCH   7  23
TORSDOF 6
ENDMDL
MODEL 2
REMARK VINA RESULT:      -8.4      1.278      2.106
REMARK  Name = 
REMARK  7 active torsions:
REMARK  status: ('A' for Active; 'I' for Inactive)
REMARK    1  A    between atoms: C_1  and  N_2
REMARK    2  A    between atoms: N_2  and  C_15
REMARK    3  A    between atoms: C_3  and  C_5
REMARK    4  A    between atoms: C_5  and  N_6
REMARK    5  A    between atoms: C_7  and  C_9
REMARK    6  A    between atoms: C_21  and  C_22
REMARK    7  A    between atoms: C_22  and  C_24
REMARK                            x       y       z     vdW  Elec       q    Type
REMARK                         _______ _______ _______ _____ _____    ______ ____
ROOT
ATOM      1  C   UNL     1       6.037   4.728  17.245  0.00  0.00    +0.000 A 
ATOM      2  C   UNL     1       7.146   4.588  16.388  0.00  0.00    +0.000 A 
ATOM      3  C   UNL     1       6.971   4.325  15.029  0.00  0.00    +0.000 A 
ATOM      4  C   UNL     1       5.688   4.229  14.510  0.00  0.00    +0.000 A 
ATOM      5 CL   UNL     1       5.448   3.901  12.840  0.00  0.00    +0.000 Cl
ATOM      6  C   UNL     1       4.578   4.387  15.335  0.00  0.00    +0.000 A 
ATOM      7  C   UNL     1       4.731   4.604  16.713  0.00  0.00    +0.000 A 
ENDROOT
BRANCH   1   9
ATOM      8  C   UNL     1       5.860   3.912  19.537  0.00  0.00    +0.000 C 
ATOM      9  N   UNL     1       6.333   4.941  18.619  0.00  0.00    +0.000 N 
ATOM     10  C   UNL     1       7.259   5.884  19.080  0.00  0.00    +0.000 C 
ATOM     11  O   UNL     1       7.623   5.943  20.260  0.00  0.00    +0.000 OA
BRANCH  10  12
ATOM     12  C   UNL     1       7.749   6.936  18.073  0.00  0.00    +0.000 C 
BRANCH  12  13
ATOM     13  N   UNL     1       8.560   7.960  18.705  0.00  0.00    +0.000 N 
ATOM     14  C   UNL     1       8.438   9.280  18.329  0.00  0.00    +0.000 C 
ATOM     15  O   UNL     1       7.666   9.655  17.453  0.00  0.00    +0.000 OA
ATOM     16  H   UNL     1       9.198   7.671  19.434  0.00  0.00    +0.000 HD
BRANCH  14  17
ATOM     17  C   UNL     1       9.341  10.255  18.992  0.00  0.00    +0.000 A 
ATOM     18  C   UNL     1       9.102  10.559  20.340  0.00  0.00    +0.000 A 
ATOM     19  C   UNL     1       9.912  11.480  21.006  0.00  0.00    +0.000 A 
ATOM     20  C   UNL     1      10.969  12.097  20.328  0.00  0.00    +0.000 A 
ATOM     21  C   UNL     1      11.212  11.789  18.990  0.00  0.00    +0.000 A 
ATOM     22  C   UNL     1      10.406  10.869  18.318  0.00  0.00    +0.000 A 
ENDBRANCH  14  17
ENDBRANCH  12  13
ENDBRANCH  10  12
ENDBRANCH   1   9
BRANCH   7  23
ATOM     23  C   UNL     1       3.495   4.720  17.551  0.00  0.00    +0.000 C 
ATOM     24  O   UNL     1       2.776   3.746  17.698  0.00  0.00    +0.000 OA
BRANCH  23  25
ATOM     25  C   UNL     1       3.069   6.031  18.147  0.00  0.00    +0.000 A 
ATOM     26  C   UNL     1       3.100   7.193  17.350  0.00  0.00    +0.000 A 
ATOM     27  C   UNL     1       2.603   8.406  17.829  0.00  0.00    +0.000 A 
ATOM     28  C   UNL     1       2.038   8.473  19.097  0.00  0.00    +0.000 A 
ATOM     29  C   UNL     1       2.031   7.341  19.911  0.00  0.00    +0.000 A 
ATOM     30  C   UNL     1       2.554   6.124  19.449  0.00  0.00    +0.000 A 
ATOM     31 CL   UNL     1       2.575   4.816  20.580  0.00  0.00    +0.000 Cl
ENDBRANCH  23  25
ENDBRANCH   7  23
TORSDOF 6
ENDMDL
MODEL 3
REMARK VINA RESULT:      -8.2      1.079      1.431
REMARK  Name = 
REMARK  7 active torsions:
REMARK  status: ('A' for Active; 'I' for Inactive)
REMARK    1  A    between atoms: C_1  and  N_2
REMARK    2  A    between atoms: N_2  and  C_15
REMARK    3  A    between atoms: C_3  and  C_5
REMARK    4  A    between atoms: C_5  and  N_6
REMARK    5  A    between atoms: C_7  and  C_9
REMARK    6  A    between atoms: C_21  and  C_22
REMARK    7  A    between atoms: C_22  and  C_24
REMARK                            x       y       z     vdW  Elec       q    Type
REMARK                         _______ _______ _______ _____ _____    ______ ____
ROOT
ATOM      1  C   UNL     1       6.027   4.831  17.359  0.00  0.00    +0.000 A 
ATOM      2  C   UNL     1       6.947   4.094  16.589  0.00  0.00    +0.000 A 
ATOM      3  C   UNL     1       6.716   3.854  15.234  0.00  0.00    +0.000 A 
ATOM      4  C   UNL     1       5.580   4.375  14.632  0.00  0.00    +0.000 A 
ATOM      5 CL   UNL     1       5.272   4.089  12.964  0.00  0.00    +0.000 Cl
ATOM      6  C   UNL     1       4.669   5.125  15.369  0.00  0.00    +0.000 A 
ATOM      7  C   UNL     1       4.857   5.337  16.743  0.00  0.00    +0.000 A 
ENDROOT
BRANCH   1   9
ATOM      8  C   UNL     1       5.680   4.023  19.634  0.00  0.00    +0.000 C 
ATOM      9  N   UNL     1       6.337   4.968  18.740  0.00  0.00    +0.000 N 
ATOM     10  C   UNL     1       7.407   5.727  19.227  0.00  0.00    +0.000 C 
ATOM     11  O   UNL     1       7.760   5.704  20.412  0.00  0.00    +0.000 OA
BRANCH  10  12
ATOM     12  C   UNL     1       8.087   6.693  18.244  0.00  0.00    +0.000 C 
BRANCH  12  13
ATOM     13  N   UNL     1       8.489   7.931  18.886  0.00  0.00    +0.000 N 
ATOM     14  C   UNL     1       8.464   9.120  18.188  0.00  0.00    +0.000 C 
ATOM     15  O   UNL     1       8.122   9.197  17.013  0.00  0.00    +0.000 OA
ATOM     16  H   UNL     1       8.768   7.889  19.855  0.00  0.00    +0.000 HD
BRANCH  14  17
ATOM     17  C   UNL     1       8.939  10.331  18.905  0.00  0.00    +0.000 A 
ATOM     18  C   UNL     1       8.958  11.544  18.201  0.00  0.00    +0.000 A 
ATOM     19  C   UNL     1       9.409  12.709  18.824  0.00  0.00    +0.000 A 
ATOM     20  C   UNL     1       9.837  12.667  20.154  0.00  0.00    +0.000 A 
ATOM     21  C   UNL     1       9.811  11.462  20.858  0.00  0.00    +0.000 A 
ATOM     22  C   UNL     1       9.361  10.294  20.241  0.00  0.00    +0.000 A 
ENDBRANCH  14  17
ENDBRANCH  12  13
ENDBRANCH  10  12
ENDBRANCH   1   9
BRANCH   7  23
ATOM     23  C   UNL     1       3.816   6.115  17.486  0.00  0.00    +0.000 C 
ATOM     24  O   UNL     1       3.725   7.319  17.311  0.00  0.00    +0.000 OA
BRANCH  23  25
ATOM     25  C   UNL     1       2.931   5.465  18.512  0.00  0.00    +0.000 A 
ATOM     26  C   UNL     1       2.666   6.140  19.720  0.00  0.00    +0.000 A 
ATOM     27  C   UNL     1       1.757   5.625  20.646  0.00  0.00    +0.000 A 
ATOM     28  C   UNL     1       1.075   4.446  20.368  0.00  0.00    +0.000 A 
ATOM     29  C   UNL     1       1.351   3.749  19.193  0.00  0.00    +0.000 A 
ATOM     30  C   UNL     1       2.283   4.244  18.268  0.00  0.00    +0.000 A 
ATOM     31 CL   UNL     1       2.610   3.247  16.895  0.00  0.00    +0.000 Cl
ENDBRANCH  23  25
ENDBRANCH   7  23
TORSDOF 6
ENDMDL
MODEL 4
REMARK VINA RESULT:      -7.9      4.003      6.879
REMARK  Name = 
REMARK  7 active torsions:
REMARK  status: ('A' for Active; 'I' for Inactive)
REMARK    1  A    between atoms: C_1  and  N_2
REMARK    2  A    between atoms: N_2  and  C_15
REMARK    3  A    between atoms: C_3  and  C_5
REMARK    4  A    between atoms: C_5  and  N_6
REMARK    5  A    between atoms: C_7  and  C_9
REMARK    6  A    between atoms: C_21  and  C_22
REMARK    7  A    between atoms: C_22  and  C_24
REMARK                            x       y       z     vdW  Elec       q    Type
REMARK                         _______ _______ _______ _____ _____    ______ ____
ROOT
ATOM      1  C   UNL     1       4.431   4.690  17.950  0.00  0.00    +0.000 A 
ATOM      2  C   UNL     1       4.389   3.287  17.849  0.00  0.00    +0.000 A 
ATOM      3  C   UNL     1       3.191   2.592  18.026  0.00  0.00    +0.000 A 
ATOM      4  C   UNL     1       2.022   3.297  18.276  0.00  0.00    +0.000 A 
ATOM      5 CL   UNL     1       0.536   2.463  18.502  0.00  0.00    +0.000 Cl
ATOM      6  C   UNL     1       2.038   4.686  18.356  0.00  0.00    +0.000 A 
ATOM      7  C   UNL     1       3.239   5.401  18.230  0.00  0.00    +0.000 A 
ENDROOT
BRANCH   1   9
ATOM      8  C   UNL     1       6.601   5.171  18.954  0.00  0.00    +0.000 C 
ATOM      9  N   UNL     1       5.713   5.288  17.805  0.00  0.00    +0.000 N 
ATOM     10  C   UNL     1       6.245   5.703  16.579  0.00  0.00    +0.000 C 
ATOM     11  O   UNL     1       7.419   6.068  16.448  0.00  0.00    +0.000 OA
BRANCH  10  12
ATOM     12  C   UNL     1       5.278   5.790  15.388  0.00  0.00    +0.000 C 
BRANCH  12  13
ATOM     13  N   UNL     1       5.444   4.680  14.468  0.00  0.00    +0.000 N 
ATOM     14  C   UNL     1       6.389   4.737  13.466  0.00  0.00    +0.000 C 
ATOM     15  O   UNL     1       7.117   5.709  13.290  0.00  0.00    +0.000 OA
ATOM     16  H   UNL     1       4.858   3.868  14.600  0.00  0.00    +0.000 HD
BRANCH  14  17
ATOM     17  C   UNL     1       6.458   3.579  12.538  0.00  0.00    +0.000 A 
ATOM     18  C   UNL     1       5.260   2.920  12.224  0.00  0.00    +0.000 A 
ATOM     19  C   UNL     1       5.271   1.816  11.369  0.00  0.00    +0.000 A 
ATOM     20  C   UNL     1       6.478   1.372  10.820  0.00  0.00    +0.000 A 
ATOM     21  C   UNL     1       7.668   2.032  11.126  0.00  0.00    +0.000 A 
ATOM     22  C   UNL     1       7.664   3.136  11.980  0.00  0.00    +0.000 A 
ENDBRANCH  14  17
ENDBRANCH  12  13
ENDBRANCH  10  12
ENDBRANCH   1   9
BRANCH   7  23
ATOM     23  C   UNL     1       3.192   6.891  18.372  0.00  0.00    +0.000 C 
ATOM     24  O   UNL     1       4.009   7.577  17.782  0.00  0.00    +0.000 OA
BRANCH  23  25
ATOM     25  C   UNL     1       2.214   7.562  19.295  0.00  0.00    +0.000 A 
ATOM     26  C   UNL     1       1.908   6.959  20.531  0.00  0.00    +0.000 A 
ATOM     27  C   UNL     1       1.098   7.607  21.465  0.00  0.00    +0.000 A 
ATOM     28  C   UNL     1       0.606   8.879  21.195  0.00  0.00    +0.000 A 
ATOM     29  C   UNL     1       0.871   9.474  19.962  0.00  0.00    +0.000 A 
ATOM     30  C   UNL     1       1.662   8.820  19.006  0.00  0.00    +0.000 A 
ATOM     31 CL   UNL     1       1.844   9.615  17.482  0.00  0.00    +0.000 Cl
ENDBRANCH  23  25
ENDBRANCH   7  23
TORSDOF 6
ENDMDL
MODEL 5
REMARK VINA RESULT:      -7.9      6.754      9.359
REMARK  Name = 
REMARK  7 active torsions:
REMARK  status: ('A' for Active; 'I' for Inactive)
REMARK    1  A    between atoms: C_1  and  N_2
REMARK    2  A    between atoms: N_2  and  C_15
REMARK    3  A    between atoms: C_3  and  C_5
REMARK    4  A    between atoms: C_5  and  N_6
REMARK    5  A    between atoms: C_7  and  C_9
REMARK    6  A    between atoms: C_21  and  C_22
REMARK    7  A    between atoms: C_22  and  C_24
REMARK                            x       y       z     vdW  Elec       q    Type
REMARK                         _______ _______ _______ _____ _____    ______ ____
ROOT
ATOM      1  C   UNL     1       0.300  12.087  20.756  0.00  0.00    +0.000 A 
ATOM      2  C   UNL     1       1.591  12.645  20.819  0.00  0.00    +0.000 A 
ATOM      3  C   UNL     1       1.890  13.833  20.149  0.00  0.00    +0.000 A 
ATOM      4  C   UNL     1       0.894  14.486  19.437  0.00  0.00    +0.000 A 
ATOM      5 CL   UNL     1       1.240  15.948  18.601  0.00  0.00    +0.000 Cl
ATOM      6  C   UNL     1      -0.394  13.963  19.382  0.00  0.00    +0.000 A 
ATOM      7  C   UNL     1      -0.704  12.745  20.007  0.00  0.00    +0.000 A 
ENDROOT
BRANCH   1   9
ATOM      8  C   UNL     1      -0.602  10.913  22.695  0.00  0.00    +0.000 C 
ATOM      9  N   UNL     1       0.123  10.848  21.432  0.00  0.00    +0.000 N 
ATOM     10  C   UNL     1       0.336   9.600  20.838  0.00  0.00    +0.000 C 
ATOM     11  O   UNL     1       0.021   8.535  21.385  0.00  0.00    +0.000 OA
BRANCH  10  12
ATOM     12  C   UNL     1       1.083   9.579  19.495  0.00  0.00    +0.000 C 
BRANCH  12  13
ATOM     13  N   UNL     1       1.747   8.311  19.259  0.00  0.00    +0.000 N 
ATOM     14  C   UNL     1       2.407   8.077  18.072  0.00  0.00    +0.000 C 
ATOM     15  O   UNL     1       2.460   8.902  17.165  0.00  0.00    +0.000 OA
ATOM     16  H   UNL     1       1.719   7.621  19.997  0.00  0.00    +0.000 HD
BRANCH  14  17
ATOM     17  C   UNL     1       3.017   6.735  17.893  0.00  0.00    +0.000 A 
ATOM     18  C   UNL     1       2.240   5.614  18.222  0.00  0.00    +0.000 A 
ATOM     19  C   UNL     1       2.770   4.329  18.086  0.00  0.00    +0.000 A 
ATOM     20  C   UNL     1       4.077   4.161  17.616  0.00  0.00    +0.000 A 
ATOM     21  C   UNL     1       4.846   5.275  17.281  0.00  0.00    +0.000 A 
ATOM     22  C   UNL     1       4.322   6.562  17.414  0.00  0.00    +0.000 A 
ENDBRANCH  14  17
ENDBRANCH  12  13
ENDBRANCH  10  12
ENDBRANCH   1   9
BRANCH   7  23
ATOM     23  C   UNL     1      -2.098  12.216  19.869  0.00  0.00    +0.000 C 
ATOM     24  O   UNL     1      -2.862  12.281  20.818  0.00  0.00    +0.000 OA
BRANCH  23  25
ATOM     25  C   UNL     1      -2.558  11.526  18.616  0.00  0.00    +0.000 A 
ATOM     26  C   UNL     1      -1.638  10.755  17.877  0.00  0.00    +0.000 A 
ATOM     27  C   UNL     1      -2.052  10.005  16.775  0.00  0.00    +0.000 A 
ATOM     28  C   UNL     1      -3.393   9.986  16.412  0.00  0.00    +0.000 A 
ATOM     29  C   UNL     1      -4.310  10.771  17.111  0.00  0.00    +0.000 A 
ATOM     30  C   UNL     1      -3.899  11.550  18.203  0.00  0.00    +0.000 A 
ATOM     31 CL   UNL     1      -5.105  12.551  18.932  0.00  0.00    +0.000 Cl
ENDBRANCH  23  25
ENDBRANCH   7  23
TORSDOF 6
ENDMDL
MODEL 6
REMARK VINA RESULT:      -7.8      8.907     10.212
REMARK  Name = 
REMARK  7 active torsions:
REMARK  status: ('A' for Active; 'I' for Inactive)
REMARK    1  A    between atoms: C_1  and  N_2
REMARK    2  A    between atoms: N_2  and  C_15
REMARK    3  A    between atoms: C_3  and  C_5
REMARK    4  A    between atoms: C_5  and  N_6
REMARK    5  A    between atoms: C_7  and  C_9
REMARK    6  A    between atoms: C_21  and  C_22
REMARK    7  A    between atoms: C_22  and  C_24
REMARK                            x       y       z     vdW  Elec       q    Type
REMARK                         _______ _______ _______ _____ _____    ______ ____
ROOT
ATOM      1  C   UNL     1      -0.373  11.288  21.436  0.00  0.00    +0.000 A 
ATOM      2  C   UNL     1       0.373  10.408  22.244  0.00  0.00    +0.000 A 
ATOM      3  C   UNL     1       1.060   9.331  21.684  0.00  0.00    +0.000 A 
ATOM      4  C   UNL     1       1.033   9.142  20.310  0.00  0.00    +0.000 A 
ATOM      5 CL   UNL     1       1.869   7.820  19.598  0.00  0.00    +0.000 Cl
ATOM      6  C   UNL     1       0.321  10.013  19.491  0.00  0.00    +0.000 A 
ATOM      7  C   UNL     1      -0.417  11.074  20.037  0.00  0.00    +0.000 A 
ENDROOT
BRANCH   1   9
ATOM      8  C   UNL     1      -2.252  11.893  22.869  0.00  0.00    +0.000 C 
ATOM      9  N   UNL     1      -1.076  12.318  22.119  0.00  0.00    +0.000 N 
ATOM     10  C   UNL     1      -0.561  13.600  22.339  0.00  0.00    +0.000 C 
ATOM     11  O   UNL     1      -1.115  14.428  23.072  0.00  0.00    +0.000 OA
BRANCH  10  12
ATOM     12  C   UNL     1       0.693  13.998  21.545  0.00  0.00    +0.000 C 
BRANCH  12  13
ATOM     13  N   UNL     1       0.383  14.897  20.449  0.00  0.00    +0.000 N 
ATOM     14  C   UNL     1       1.358  15.713  19.917  0.00  0.00    +0.000 C 
ATOM     15  O   UNL     1       2.511  15.734  20.334  0.00  0.00    +0.000 OA
ATOM     16  H   UNL     1      -0.560  14.889  20.087  0.00  0.00    +0.000 HD
BRANCH  14  17
ATOM     17  C   UNL     1       0.943  16.638  18.831  0.00  0.00    +0.000 A 
ATOM     18  C   UNL     1      -0.421  16.945  18.718  0.00  0.00    +0.000 A 
ATOM     19  C   UNL     1      -0.866  17.797  17.706  0.00  0.00    +0.000 A 
ATOM     20  C   UNL     1       0.052  18.351  16.808  0.00  0.00    +0.000 A 
ATOM     21  C   UNL     1       1.410  18.053  16.925  0.00  0.00    +0.000 A 
ATOM     22  C   UNL     1       1.861  17.201  17.935  0.00  0.00    +0.000 A 
ENDBRANCH  14  17
ENDBRANCH  12  13
ENDBRANCH  10  12
ENDBRANCH   1   9
BRANCH   7  23
ATOM     23  C   UNL     1      -1.198  11.946  19.103  0.00  0.00    +0.000 C 
ATOM     24  O   UNL     1      -0.660  12.916  18.596  0.00  0.00    +0.000 OA
BRANCH  23  25
ATOM     25  C   UNL     1      -2.657  11.706  18.838  0.00  0.00    +0.000 A 
ATOM     26  C   UNL     1      -3.619  12.377  19.621  0.00  0.00    +0.000 A 
ATOM     27  C   UNL     1      -4.980  12.273  19.330  0.00  0.00    +0.000 A 
ATOM     28  C   UNL     1      -5.402  11.525  18.237  0.00  0.00    +0.000 A 
ATOM     29  C   UNL     1      -4.466  10.828  17.474  0.00  0.00    +0.000 A 
ATOM     30  C   UNL     1      -3.098  10.904  17.774  0.00  0.00    +0.000 A 
ATOM     31 CL   UNL     1      -2.044   9.924  16.816  0.00  0.00    +0.000 Cl
ENDBRANCH  23  25
ENDBRANCH   7  23
TORSDOF 6
ENDMDL
MODEL 7
REMARK VINA RESULT:      -7.8      8.895      9.991
REMARK  Name = 
REMARK  7 active torsions:
REMARK  status: ('A' for Active; 'I' for Inactive)
REMARK    1  A    between atoms: C_1  and  N_2
REMARK    2  A    between atoms: N_2  and  C_15
REMARK    3  A    between atoms: C_3  and  C_5
REMARK    4  A    between atoms: C_5  and  N_6
REMARK    5  A    between atoms: C_7  and  C_9
REMARK    6  A    between atoms: C_21  and  C_22
REMARK    7  A    between atoms: C_22  and  C_24
REMARK                            x       y       z     vdW  Elec       q    Type
REMARK                         _______ _______ _______ _____ _____    ______ ____
ROOT
ATOM      1  C   UNL     1       0.074  11.164  20.574  0.00  0.00    +0.000 A 
ATOM      2  C   UNL     1       0.932  10.198  21.134  0.00  0.00    +0.000 A 
ATOM      3  C   UNL     1       1.463   9.173  20.350  0.00  0.00    +0.000 A 
ATOM      4  C   UNL     1       1.166   9.123  18.996  0.00  0.00    +0.000 A 
ATOM      5 CL   UNL     1       1.807   7.867  18.012  0.00  0.00    +0.000 Cl
ATOM      6  C   UNL     1       0.340  10.081  18.417  0.00  0.00    +0.000 A 
ATOM      7  C   UNL     1      -0.245  11.092  19.196  0.00  0.00    +0.000 A 
ENDROOT
BRANCH   1   9
ATOM      8  C   UNL     1      -1.548  11.677  22.322  0.00  0.00    +0.000 C 
ATOM      9  N   UNL     1      -0.451  12.130  21.475  0.00  0.00    +0.000 N 
ATOM     10  C   UNL     1       0.187  13.336  21.784  0.00  0.00    +0.000 C 
ATOM     11  O   UNL     1      -0.200  14.086  22.688  0.00  0.00    +0.000 OA
BRANCH  10  12
ATOM     12  C   UNL     1       1.353  13.765  20.880  0.00  0.00    +0.000 C 
BRANCH  12  13
ATOM     13  N   UNL     1       0.929  14.681  19.838  0.00  0.00    +0.000 N 
ATOM     14  C   UNL     1       1.285  16.011  19.888  0.00  0.00    +0.000 C 
ATOM     15  O   UNL     1       1.955  16.488  20.798  0.00  0.00    +0.000 OA
ATOM     16  H   UNL     1       0.382  14.305  19.076  0.00  0.00    +0.000 HD
BRANCH  14  17
ATOM     17  C   UNL     1       0.766  16.888  18.808  0.00  0.00    +0.000 A 
ATOM     18  C   UNL     1       1.683  17.382  17.867  0.00  0.00    +0.000 A 
ATOM     19  C   UNL     1       1.250  18.222  16.840  0.00  0.00    +0.000 A 
ATOM     20  C   UNL     1      -0.102  18.568  16.746  0.00  0.00    +0.000 A 
ATOM     21  C   UNL     1      -1.015  18.071  17.676  0.00  0.00    +0.000 A 
ATOM     22  C   UNL     1      -0.588  17.230  18.705  0.00  0.00    +0.000 A 
ENDBRANCH  14  17
ENDBRANCH  12  13
ENDBRANCH  10  12
ENDBRANCH   1   9
BRANCH   7  23
ATOM     23  C   UNL     1      -1.161  12.064  18.519  0.00  0.00    +0.000 C 
ATOM     24  O   UNL     1      -0.708  13.104  18.070  0.00  0.00    +0.000 OA
BRANCH  23  25
ATOM     25  C   UNL     1      -2.644  11.832  18.453  0.00  0.00    +0.000 A 
ATOM     26  C   UNL     1      -3.465  12.326  19.486  0.00  0.00    +0.000 A 
ATOM     27  C   UNL     1      -4.856  12.235  19.404  0.00  0.00    +0.000 A 
ATOM     28  C   UNL     1      -5.450  11.679  18.277  0.00  0.00    +0.000 A 
ATOM     29  C   UNL     1      -4.651  11.154  17.262  0.00  0.00    +0.000 A 
ATOM     30  C   UNL     1      -3.252  11.216  17.348  0.00  0.00    +0.000 A 
ATOM     31 CL   UNL     1      -2.367  10.450  16.075  0.00  0.00    +0.000 Cl
ENDBRANCH  23  25
ENDBRANCH   7  23
TORSDOF 6
ENDMDL
MODEL 8
REMARK VINA RESULT:      -7.8      2.154      3.712
REMARK  Name = 
REMARK  7 active torsions:
REMARK  status: ('A' for Active; 'I' for Inactive)
REMARK    1  A    between atoms: C_1  and  N_2
REMARK    2  A    between atoms: N_2  and  C_15
REMARK    3  A    between atoms: C_3  and  C_5
REMARK    4  A    between atoms: C_5  and  N_6
REMARK    5  A    between atoms: C_7  and  C_9
REMARK    6  A    between atoms: C_21  and  C_22
REMARK    7  A    between atoms: C_22  and  C_24
REMARK                            x       y       z     vdW  Elec       q    Type
REMARK                         _______ _______ _______ _____ _____    ______ ____
ROOT
ATOM      1  C   UNL     1       4.418   6.846  17.479  0.00  0.00    +0.000 A 
ATOM      2  C   UNL     1       3.942   8.095  17.036  0.00  0.00    +0.000 A 
ATOM      3  C   UNL     1       2.870   8.719  17.675  0.00  0.00    +0.000 A 
ATOM      4  C   UNL     1       2.284   8.114  18.778  0.00  0.00    +0.000 A 
ATOM      5 CL   UNL     1       0.959   8.862  19.578  0.00  0.00    +0.000 Cl
ATOM      6  C   UNL     1       2.754   6.891  19.246  0.00  0.00    +0.000 A 
ATOM      7  C   UNL     1       3.799   6.223  18.590  0.00  0.00    +0.000 A 
ENDROOT
BRANCH   1   9
ATOM      8  C   UNL     1       5.080   5.485  15.566  0.00  0.00    +0.000 C 
ATOM      9  N   UNL     1       5.480   6.279  16.722  0.00  0.00    +0.000 N 
ATOM     10  C   UNL     1       6.819   6.663  16.848  0.00  0.00    +0.000 C 
ATOM     11  O   UNL     1       7.702   6.279  16.071  0.00  0.00    +0.000 OA
BRANCH  10  12
ATOM     12  C   UNL     1       7.192   7.519  18.068  0.00  0.00    +0.000 C 
BRANCH  12  13
ATOM     13  N   UNL     1       7.767   8.795  17.685  0.00  0.00    +0.000 N 
ATOM     14  C   UNL     1       8.657   9.438  18.517  0.00  0.00    +0.000 C 
ATOM     15  O   UNL     1       8.997   8.988  19.607  0.00  0.00    +0.000 OA
ATOM     16  H   UNL     1       7.504   9.179  16.789  0.00  0.00    +0.000 HD
BRANCH  14  17
ATOM     17  C   UNL     1       9.160  10.763  18.071  0.00  0.00    +0.000 A 
ATOM     18  C   UNL     1       8.217  11.772  17.824  0.00  0.00    +0.000 A 
ATOM     19  C   UNL     1       8.634  13.031  17.388  0.00  0.00    +0.000 A 
ATOM     20  C   UNL     1       9.997  13.287  17.204  0.00  0.00    +0.000 A 
ATOM     21  C   UNL     1      10.935  12.287  17.457  0.00  0.00    +0.000 A 
ATOM     22  C   UNL     1      10.524  11.026  17.893  0.00  0.00    +0.000 A 
ENDBRANCH  14  17
ENDBRANCH  12  13
ENDBRANCH  10  12
ENDBRANCH   1   9
BRANCH   7  23
ATOM     23  C   UNL     1       4.226   4.889  19.118  0.00  0.00    +0.000 C 
ATOM     24  O   UNL     1       5.406   4.581  19.092  0.00  0.00    +0.000 OA
BRANCH  23  25
ATOM     25  C   UNL     1       3.225   3.879  19.605  0.00  0.00    +0.000 A 
ATOM     26  C   UNL     1       3.050   3.695  20.991  0.00  0.00    +0.000 A 
ATOM     27  C   UNL     1       2.050   2.855  21.483  0.00  0.00    +0.000 A 
ATOM     28  C   UNL     1       1.190   2.209  20.603  0.00  0.00    +0.000 A 
ATOM     29  C   UNL     1       1.372   2.353  19.228  0.00  0.00    +0.000 A 
ATOM     30  C   UNL     1       2.391   3.174  18.723  0.00  0.00    +0.000 A 
ATOM     31 CL   UNL     1       2.579   3.200  17.005  0.00  0.00    +0.000 Cl
ENDBRANCH  23  25
ENDBRANCH   7  23
TORSDOF 6
ENDMDL
MODEL 9
REMARK VINA RESULT:      -7.5      6.478      9.296
REMARK  Name = 
REMARK  7 active torsions:
REMARK  status: ('A' for Active; 'I' for Inactive)
REMARK    1  A    between atoms: C_1  and  N_2
REMARK    2  A    between atoms: N_2  and  C_15
REMARK    3  A    between atoms: C_3  and  C_5
REMARK    4  A    between atoms: C_5  and  N_6
REMARK    5  A    between atoms: C_7  and  C_9
REMARK    6  A    between atoms: C_21  and  C_22
REMARK    7  A    between atoms: C_22  and  C_24
REMARK                            x       y       z     vdW  Elec       q    Type
REMARK                         _______ _______ _______ _____ _____    ______ ____
ROOT
ATOM      1  C   UNL     1       0.424  11.537  20.410  0.00  0.00    +0.000 A 
ATOM      2  C   UNL     1       1.348  12.424  20.995  0.00  0.00    +0.000 A 
ATOM      3  C   UNL     1       1.778  13.563  20.313  0.00  0.00    +0.000 A 
ATOM      4  C   UNL     1       1.266  13.839  19.053  0.00  0.00    +0.000 A 
ATOM      5 CL   UNL     1       1.784  15.234  18.192  0.00  0.00    +0.000 Cl
ATOM      6  C   UNL     1       0.334  12.989  18.466  0.00  0.00    +0.000 A 
ATOM      7  C   UNL     1      -0.075  11.813  19.114  0.00  0.00    +0.000 A 
ENDROOT
BRANCH   1   9
ATOM      8  C   UNL     1      -1.013  10.532  22.105  0.00  0.00    +0.000 C 
ATOM      9  N   UNL     1       0.098  10.382  21.173  0.00  0.00    +0.000 N 
ATOM     10  C   UNL     1       0.566   9.098  20.880  0.00  0.00    +0.000 C 
ATOM     11  O   UNL     1       0.145   8.084  21.451  0.00  0.00    +0.000 OA
BRANCH  10  12
ATOM     12  C   UNL     1       1.722   8.984  19.874  0.00  0.00    +0.000 C 
BRANCH  12  13
ATOM     13  N   UNL     1       2.017   7.604  19.534  0.00  0.00    +0.000 N 
ATOM     14  C   UNL     1       2.619   7.293  18.334  0.00  0.00    +0.000 C 
ATOM     15  O   UNL     1       2.924   8.140  17.501  0.00  0.00    +0.000 OA
ATOM     16  H   UNL     1       1.779   6.893  20.210  0.00  0.00    +0.000 HD
BRANCH  14  17
ATOM     17  C   UNL     1       2.839   5.853  18.045  0.00  0.00    +0.000 A 
ATOM     18  C   UNL     1       4.107   5.463  17.587  0.00  0.00    +0.000 A 
ATOM     19  C   UNL     1       4.362   4.124  17.286  0.00  0.00    +0.000 A 
ATOM     20  C   UNL     1       3.353   3.169  17.448  0.00  0.00    +0.000 A 
ATOM     21  C   UNL     1       2.095   3.555  17.911  0.00  0.00    +0.000 A 
ATOM     22  C   UNL     1       1.834   4.892  18.213  0.00  0.00    +0.000 A 
ENDBRANCH  14  17
ENDBRANCH  12  13
ENDBRANCH  10  12
ENDBRANCH   1   9
BRANCH   7  23
ATOM     23  C   UNL     1      -1.045  10.918  18.406  0.00  0.00    +0.000 C 
ATOM     24  O   UNL     1      -0.635   9.931  17.819  0.00  0.00    +0.000 OA
BRANCH  23  25
ATOM     25  C   UNL     1      -2.508  11.251  18.327  0.00  0.00    +0.000 A 
ATOM     26  C   UNL     1      -3.129  11.889  19.420  0.00  0.00    +0.000 A 
ATOM     27  C   UNL     1      -4.455  12.320  19.341  0.00  0.00    +0.000 A 
ATOM     28  C   UNL     1      -5.171  12.152  18.162  0.00  0.00    +0.000 A 
ATOM     29  C   UNL     1      -4.582  11.493  17.083  0.00  0.00    +0.000 A 
ATOM     30  C   UNL     1      -3.259  11.031  17.162  0.00  0.00    +0.000 A 
ATOM     31 CL   UNL     1      -2.669  10.147  15.799  0.00  0.00    +0.000 Cl
ENDBRANCH  23  25
ENDBRANCH   7  23
TORSDOF 6
ENDMDL
