MODEL 1
REMARK VINA RESULT:      -8.2      0.000      0.000
REMARK  Name = 
REMARK  6 active torsions:
REMARK  status: ('A' for Active; 'I' for Inactive)
REMARK    1  A    between atoms: C_1  and  O_2
REMARK    2  A    between atoms: O_2  and  C_3
REMARK    3  A    between atoms: C_7  and  C_8
REMARK    4  A    between atoms: N_17  and  C_18
REMARK    5  A    between atoms: C_29  and  O_30
REMARK    6  A    between atoms: O_30  and  C_31
REMARK                            x       y       z     vdW  Elec       q    Type
REMARK                         _______ _______ _______ _____ _____    ______ ____
ROOT
ATOM      1  C   UNL     1      -3.583  11.277  17.487  0.00  0.00    +0.000 A 
ATOM      2  C   UNL     1      -3.369  11.827  18.764  0.00  0.00    +0.000 A 
ATOM      3  C   UNL     1      -2.214  11.595  19.502  0.00  0.00    +0.000 A 
ATOM      4  N   UNL     1      -2.070  12.224  20.667  0.00  0.00    +0.000 NA
ATOM      5  C   UNL     1      -0.938  11.999  21.350  0.00  0.00    +0.000 A 
ATOM      6  N   UNL     1       0.046  11.179  20.958  0.00  0.00    +0.000 NA
ATOM      7  C   UNL     1      -0.086  10.559  19.766  0.00  0.00    +0.000 A 
ATOM      8  N   UNL     1       0.958   9.756  19.369  0.00  0.00    +0.000 N 
ATOM      9  C   UNL     1       1.729   9.009  20.368  0.00  0.00    +0.000 C 
ATOM     10  C   UNL     1       1.775   7.524  19.929  0.00  0.00    +0.000 C 
ATOM     11  N   UNL     1       2.314   7.414  18.555  0.00  0.00    +0.000 N 
ATOM     12  C   UNL     1       1.600   8.219  17.542  0.00  0.00    +0.000 C 
ATOM     13  C   UNL     1       1.526   9.697  18.015  0.00  0.00    +0.000 C 
ATOM     14  C   UNL     1      -1.253  10.726  18.992  0.00  0.00    +0.000 A 
ATOM     15  C   UNL     1      -1.544  10.071  17.776  0.00  0.00    +0.000 A 
ATOM     16  C   UNL     1      -2.661  10.361  16.991  0.00  0.00    +0.000 A 
ENDROOT
BRANCH  11  17
ATOM     17  C   UNL     1       3.224   6.440  18.186  0.00  0.00    +0.000 A 
ATOM     18  C   UNL     1       4.422   6.811  17.553  0.00  0.00    +0.000 A 
ATOM     19  C   UNL     1       5.328   5.862  17.074  0.00  0.00    +0.000 A 
ATOM     20  C   UNL     1       5.062   4.504  17.216  0.00  0.00    +0.000 A 
ATOM     21  C   UNL     1       3.897   4.098  17.855  0.00  0.00    +0.000 A 
ATOM     22  C   UNL     1       3.004   5.053  18.334  0.00  0.00    +0.000 A 
ATOM     23  F   UNL     1       1.902   4.602  18.962  0.00  0.00    +0.000 F 
ENDBRANCH  11  17
BRANCH   5  24
ATOM     24  C   UNL     1      -0.769  12.786  22.682  0.00  0.00    +0.000 C 
ATOM     25  C   UNL     1      -0.474  14.313  22.646  0.00  0.00    +0.000 C 
ATOM     26  C   UNL     1      -1.357  14.457  23.900  0.00  0.00    +0.000 C 
ATOM     27  C   UNL     1      -2.062  13.161  23.470  0.00  0.00    +0.000 C 
ENDBRANCH   5  24
BRANCH   1  29
ATOM     28  C   UNL     1      -5.813  12.071  17.468  0.00  0.00    +0.000 C 
ATOM     29  O   UNL     1      -4.681  11.599  16.734  0.00  0.00    +0.000 OA
ENDBRANCH   1  29
BRANCH  16  30
ATOM     30  O   UNL     1      -2.627   9.688  15.806  0.00  0.00    +0.000 OA
ATOM     31  C   UNL     1      -2.996  10.343  14.608  0.00  0.00    +0.000 C 
ENDBRANCH  16  30
TORSDOF 4
ENDMDL
MODEL 2
REMARK VINA RESULT:      -8.0      0.899      1.223
REMARK  Name = 
REMARK  6 active torsions:
REMARK  status: ('A' for Active; 'I' for Inactive)
REMARK    1  A    between atoms: C_1  and  O_2
REMARK    2  A    between atoms: O_2  and  C_3
REMARK    3  A    between atoms: C_7  and  C_8
REMARK    4  A    between atoms: N_17  and  C_18
REMARK    5  A    between atoms: C_29  and  O_30
REMARK    6  A    between atoms: O_30  and  C_31
REMARK                            x       y       z     vdW  Elec       q    Type
REMARK                         _______ _______ _______ _____ _____    ______ ____
ROOT
ATOM      1  C   UNL     1      -3.396  11.322  17.429  0.00  0.00    +0.000 A 
ATOM      2  C   UNL     1      -3.251  11.890  18.708  0.00  0.00    +0.000 A 
ATOM      3  C   UNL     1      -2.156  11.637  19.526  0.00  0.00    +0.000 A 
ATOM      4  N   UNL     1      -2.069  12.285  20.687  0.00  0.00    +0.000 NA
ATOM      5  C   UNL     1      -0.994  12.037  21.449  0.00  0.00    +0.000 A 
ATOM      6  N   UNL     1      -0.015  11.177  21.140  0.00  0.00    +0.000 NA
ATOM      7  C   UNL     1      -0.087  10.538  19.953  0.00  0.00    +0.000 A 
ATOM      8  N   UNL     1       0.953   9.693  19.644  0.00  0.00    +0.000 N 
ATOM      9  C   UNL     1       1.630   8.941  20.706  0.00  0.00    +0.000 C 
ATOM     10  C   UNL     1       1.654   7.448  20.299  0.00  0.00    +0.000 C 
ATOM     11  N   UNL     1       2.280   7.291  18.967  0.00  0.00    +0.000 N 
ATOM     12  C   UNL     1       1.664   8.097  17.894  0.00  0.00    +0.000 C 
ATOM     13  C   UNL     1       1.608   9.586  18.332  0.00  0.00    +0.000 C 
ATOM     14  C   UNL     1      -1.194  10.726  19.099  0.00  0.00    +0.000 A 
ATOM     15  C   UNL     1      -1.424  10.056  17.878  0.00  0.00    +0.000 A 
ATOM     16  C   UNL     1      -2.475  10.365  17.014  0.00  0.00    +0.000 A 
ENDROOT
BRANCH  11  17
ATOM     17  C   UNL     1       3.180   6.280  18.679  0.00  0.00    +0.000 A 
ATOM     18  C   UNL     1       3.081   5.049  19.348  0.00  0.00    +0.000 A 
ATOM     19  C   UNL     1       4.021   4.032  19.165  0.00  0.00    +0.000 A 
ATOM     20  C   UNL     1       5.095   4.217  18.299  0.00  0.00    +0.000 A 
ATOM     21  C   UNL     1       5.215   5.414  17.605  0.00  0.00    +0.000 A 
ATOM     22  C   UNL     1       4.269   6.419  17.791  0.00  0.00    +0.000 A 
ATOM     23  F   UNL     1       4.425   7.549  17.077  0.00  0.00    +0.000 F 
ENDBRANCH  11  17
BRANCH   5  24
ATOM     24  C   UNL     1      -0.888  12.846  22.774  0.00  0.00    +0.000 C 
ATOM     25  C   UNL     1      -0.593  14.373  22.727  0.00  0.00    +0.000 C 
ATOM     26  C   UNL     1      -1.534  14.536  23.936  0.00  0.00    +0.000 C 
ATOM     27  C   UNL     1      -2.217  13.232  23.494  0.00  0.00    +0.000 C 
ENDBRANCH   5  24
BRANCH   1  29
ATOM     28  C   UNL     1      -5.625  12.098  17.249  0.00  0.00    +0.000 C 
ATOM     29  O   UNL     1      -4.430  11.663  16.597  0.00  0.00    +0.000 OA
ENDBRANCH   1  29
BRANCH  16  30
ATOM     30  O   UNL     1      -2.384   9.667  15.847  0.00  0.00    +0.000 OA
ATOM     31  C   UNL     1      -2.917  10.209  14.654  0.00  0.00    +0.000 C 
ENDBRANCH  16  30
TORSDOF 4
ENDMDL
MODEL 3
REMARK VINA RESULT:      -7.4      1.388      1.974
REMARK  Name = 
REMARK  6 active torsions:
REMARK  status: ('A' for Active; 'I' for Inactive)
REMARK    1  A    between atoms: C_1  and  O_2
REMARK    2  A    between atoms: O_2  and  C_3
REMARK    3  A    between atoms: C_7  and  C_8
REMARK    4  A    between atoms: N_17  and  C_18
REMARK    5  A    between atoms: C_29  and  O_30
REMARK    6  A    between atoms: O_30  and  C_31
REMARK                            x       y       z     vdW  Elec       q    Type
REMARK                         _______ _______ _______ _____ _____    ______ ____
ROOT
ATOM      1  C   UNL     1      -4.954  12.199  18.291  0.00  0.00    +0.000 A 
ATOM      2  C   UNL     1      -4.768  12.780  19.560  0.00  0.00    +0.000 A 
ATOM      3  C   UNL     1      -3.586  12.654  20.281  0.00  0.00    +0.000 A 
ATOM      4  N   UNL     1      -3.477  13.308  21.436  0.00  0.00    +0.000 NA
ATOM      5  C   UNL     1      -2.320  13.185  22.103  0.00  0.00    +0.000 A 
ATOM      6  N   UNL     1      -1.278  12.445  21.704  0.00  0.00    +0.000 NA
ATOM      7  C   UNL     1      -1.376  11.802  20.521  0.00  0.00    +0.000 A 
ATOM      8  N   UNL     1      -0.274  11.084  20.117  0.00  0.00    +0.000 N 
ATOM      9  C   UNL     1       0.572  10.415  21.111  0.00  0.00    +0.000 C 
ATOM     10  C   UNL     1       0.734   8.935  20.688  0.00  0.00    +0.000 C 
ATOM     11  N   UNL     1       1.259   8.852  19.307  0.00  0.00    +0.000 N 
ATOM     12  C   UNL     1       0.466   9.582  18.297  0.00  0.00    +0.000 C 
ATOM     13  C   UNL     1       0.275  11.055  18.754  0.00  0.00    +0.000 C 
ATOM     14  C   UNL     1      -2.565  11.862  19.764  0.00  0.00    +0.000 A 
ATOM     15  C   UNL     1      -2.818  11.170  18.561  0.00  0.00    +0.000 A 
ATOM     16  C   UNL     1      -3.967  11.356  17.791  0.00  0.00    +0.000 A 
ENDROOT
BRANCH  11  17
ATOM     17  C   UNL     1       2.242   7.953  18.933  0.00  0.00    +0.000 A 
ATOM     18  C   UNL     1       3.010   8.199  17.784  0.00  0.00    +0.000 A 
ATOM     19  C   UNL     1       3.947   7.277  17.311  0.00  0.00    +0.000 A 
ATOM     20  C   UNL     1       4.145   6.073  17.979  0.00  0.00    +0.000 A 
ATOM     21  C   UNL     1       3.417   5.802  19.130  0.00  0.00    +0.000 A 
ATOM     22  C   UNL     1       2.491   6.731  19.597  0.00  0.00    +0.000 A 
ATOM     23  F   UNL     1       1.829   6.424  20.728  0.00  0.00    +0.000 F 
ENDBRANCH  11  17
BRANCH   5  24
ATOM     24  C   UNL     1      -2.197  14.001  23.423  0.00  0.00    +0.000 C 
ATOM     25  C   UNL     1      -2.428  15.538  23.407  0.00  0.00    +0.000 C 
ATOM     26  C   UNL     1      -3.086  15.399  24.793  0.00  0.00    +0.000 C 
ATOM     27  C   UNL     1      -3.390  13.937  24.426  0.00  0.00    +0.000 C 
ENDBRANCH   5  24
BRANCH   1  29
ATOM     28  C   UNL     1      -7.232  12.844  18.296  0.00  0.00    +0.000 C 
ATOM     29  O   UNL     1      -6.087  12.419  17.553  0.00  0.00    +0.000 OA
ENDBRANCH   1  29
BRANCH  16  30
ATOM     30  O   UNL     1      -3.895  10.674  16.614  0.00  0.00    +0.000 OA
ATOM     31  C   UNL     1      -2.650  10.189  16.151  0.00  0.00    +0.000 C 
ENDBRANCH  16  30
TORSDOF 4
ENDMDL
MODEL 4
REMARK VINA RESULT:      -7.2      1.196      1.459
REMARK  Name = 
REMARK  6 active torsions:
REMARK  status: ('A' for Active; 'I' for Inactive)
REMARK    1  A    between atoms: C_1  and  O_2
REMARK    2  A    between atoms: O_2  and  C_3
REMARK    3  A    between atoms: C_7  and  C_8
REMARK    4  A    between atoms: N_17  and  C_18
REMARK    5  A    between atoms: C_29  and  O_30
REMARK    6  A    between atoms: O_30  and  C_31
REMARK                            x       y       z     vdW  Elec       q    Type
REMARK                         _______ _______ _______ _____ _____    ______ ____
ROOT
ATOM      1  C   UNL     1      -4.571  11.602  17.569  0.00  0.00    +0.000 A 
ATOM      2  C   UNL     1      -4.390  12.386  18.723  0.00  0.00    +0.000 A 
ATOM      3  C   UNL     1      -3.215  12.375  19.466  0.00  0.00    +0.000 A 
ATOM      4  N   UNL     1      -3.110  13.212  20.497  0.00  0.00    +0.000 NA
ATOM      5  C   UNL     1      -1.960  13.196  21.186  0.00  0.00    +0.000 A 
ATOM      6  N   UNL     1      -0.920  12.391  20.926  0.00  0.00    +0.000 NA
ATOM      7  C   UNL     1      -1.014  11.559  19.868  0.00  0.00    +0.000 A 
ATOM      8  N   UNL     1       0.084  10.775  19.600  0.00  0.00    +0.000 N 
ATOM      9  C   UNL     1       0.916  10.277  20.700  0.00  0.00    +0.000 C 
ATOM     10  C   UNL     1       1.069   8.745  20.533  0.00  0.00    +0.000 C 
ATOM     11  N   UNL     1       1.605   8.428  19.191  0.00  0.00    +0.000 N 
ATOM     12  C   UNL     1       0.826   8.984  18.065  0.00  0.00    +0.000 C 
ATOM     13  C   UNL     1       0.645  10.514  18.267  0.00  0.00    +0.000 C 
ATOM     14  C   UNL     1      -2.196  11.499  19.100  0.00  0.00    +0.000 A 
ATOM     15  C   UNL     1      -2.446  10.617  18.028  0.00  0.00    +0.000 A 
ATOM     16  C   UNL     1      -3.587  10.679  17.226  0.00  0.00    +0.000 A 
ENDROOT
BRANCH  11  17
ATOM     17  C   UNL     1       2.583   7.472  18.983  0.00  0.00    +0.000 A 
ATOM     18  C   UNL     1       3.467   7.605  17.900  0.00  0.00    +0.000 A 
ATOM     19  C   UNL     1       4.407   6.619  17.591  0.00  0.00    +0.000 A 
ATOM     20  C   UNL     1       4.492   5.464  18.361  0.00  0.00    +0.000 A 
ATOM     21  C   UNL     1       3.648   5.306  19.453  0.00  0.00    +0.000 A 
ATOM     22  C   UNL     1       2.718   6.298  19.756  0.00  0.00    +0.000 A 
ATOM     23  F   UNL     1       1.940   6.100  20.836  0.00  0.00    +0.000 F 
ENDBRANCH  11  17
BRANCH   5  24
ATOM     24  C   UNL     1      -1.840  14.220  22.351  0.00  0.00    +0.000 C 
ATOM     25  C   UNL     1      -2.130  13.769  23.811  0.00  0.00    +0.000 C 
ATOM     26  C   UNL     1      -1.000  14.711  24.268  0.00  0.00    +0.000 C 
ATOM     27  C   UNL     1      -0.407  14.575  22.856  0.00  0.00    +0.000 C 
ENDBRANCH   5  24
BRANCH   1  29
ATOM     28  C   UNL     1      -6.877  12.127  17.477  0.00  0.00    +0.000 C 
ATOM     29  O   UNL     1      -5.695  11.702  16.793  0.00  0.00    +0.000 OA
ENDBRANCH   1  29
BRANCH  16  30
ATOM     30  O   UNL     1      -3.512   9.809  16.181  0.00  0.00    +0.000 OA
ATOM     31  C   UNL     1      -3.061  10.256  14.917  0.00  0.00    +0.000 C 
ENDBRANCH  16  30
TORSDOF 4
ENDMDL
MODEL 5
REMARK VINA RESULT:      -7.2      2.884      8.214
REMARK  Name = 
REMARK  6 active torsions:
REMARK  status: ('A' for Active; 'I' for Inactive)
REMARK    1  A    between atoms: C_1  and  O_2
REMARK    2  A    between atoms: O_2  and  C_3
REMARK    3  A    between atoms: C_7  and  C_8
REMARK    4  A    between atoms: N_17  and  C_18
REMARK    5  A    between atoms: C_29  and  O_30
REMARK    6  A    between atoms: O_30  and  C_31
REMARK                            x       y       z     vdW  Elec       q    Type
REMARK                         _______ _______ _______ _____ _____    ______ ____
ROOT
ATOM      1  C   UNL     1      -3.322  10.647  16.592  0.00  0.00    +0.000 A 
ATOM      2  C   UNL     1      -2.051  10.049  16.675  0.00  0.00    +0.000 A 
ATOM      3  C   UNL     1      -1.203  10.225  17.763  0.00  0.00    +0.000 A 
ATOM      4  N   UNL     1      -0.054   9.553  17.786  0.00  0.00    +0.000 NA
ATOM      5  C   UNL     1       0.737   9.726  18.855  0.00  0.00    +0.000 A 
ATOM      6  N   UNL     1       0.465  10.533  19.889  0.00  0.00    +0.000 NA
ATOM      7  C   UNL     1      -0.710  11.197  19.881  0.00  0.00    +0.000 A 
ATOM      8  N   UNL     1      -0.981  11.986  20.975  0.00  0.00    +0.000 N 
ATOM      9  C   UNL     1       0.110  12.679  21.667  0.00  0.00    +0.000 C 
ATOM     10  C   UNL     1      -0.268  14.175  21.786  0.00  0.00    +0.000 C 
ATOM     11  N   UNL     1      -1.582  14.319  22.451  0.00  0.00    +0.000 N 
ATOM     12  C   UNL     1      -2.684  13.568  21.816  0.00  0.00    +0.000 C 
ATOM     13  C   UNL     1      -2.275  12.077  21.665  0.00  0.00    +0.000 C 
ATOM     14  C   UNL     1      -1.593  11.087  18.786  0.00  0.00    +0.000 A 
ATOM     15  C   UNL     1      -2.805  11.790  18.622  0.00  0.00    +0.000 A 
ATOM     16  C   UNL     1      -3.698  11.556  17.575  0.00  0.00    +0.000 A 
ENDROOT
BRANCH  11  17
ATOM     17  C   UNL     1      -1.832  15.282  23.413  0.00  0.00    +0.000 A 
ATOM     18  C   UNL     1      -1.424  15.062  24.739  0.00  0.00    +0.000 A 
ATOM     19  C   UNL     1      -1.737  15.957  25.765  0.00  0.00    +0.000 A 
ATOM     20  C   UNL     1      -2.471  17.107  25.493  0.00  0.00    +0.000 A 
ATOM     21  C   UNL     1      -2.875  17.368  24.190  0.00  0.00    +0.000 A 
ATOM     22  C   UNL     1      -2.552  16.472  23.174  0.00  0.00    +0.000 A 
ATOM     23  F   UNL     1      -2.953  16.787  21.928  0.00  0.00    +0.000 F 
ENDBRANCH  11  17
BRANCH   5  24
ATOM     24  C   UNL     1       2.048   8.889  18.884  0.00  0.00    +0.000 C 
ATOM     25  C   UNL     1       2.094   7.548  19.672  0.00  0.00    +0.000 C 
ATOM     26  C   UNL     1       3.009   6.992  18.564  0.00  0.00    +0.000 C 
ATOM     27  C   UNL     1       2.391   8.038  17.622  0.00  0.00    +0.000 C 
ENDBRANCH   5  24
BRANCH   1  29
ATOM     28  C   UNL     1      -3.565  10.110  14.299  0.00  0.00    +0.000 C 
ATOM     29  O   UNL     1      -4.182  10.380  15.561  0.00  0.00    +0.000 OA
ENDBRANCH   1  29
BRANCH  16  30
ATOM     30  O   UNL     1      -4.849  12.268  17.733  0.00  0.00    +0.000 OA
ATOM     31  C   UNL     1      -5.495  12.301  18.991  0.00  0.00    +0.000 C 
ENDBRANCH  16  30
TORSDOF 4
ENDMDL
MODEL 6
REMARK VINA RESULT:      -7.0      1.465      1.881
REMARK  Name = 
REMARK  6 active torsions:
REMARK  status: ('A' for Active; 'I' for Inactive)
REMARK    1  A    between atoms: C_1  and  O_2
REMARK    2  A    between atoms: O_2  and  C_3
REMARK    3  A    between atoms: C_7  and  C_8
REMARK    4  A    between atoms: N_17  and  C_18
REMARK    5  A    between atoms: C_29  and  O_30
REMARK    6  A    between atoms: O_30  and  C_31
REMARK                            x       y       z     vdW  Elec       q    Type
REMARK                         _______ _______ _______ _____ _____    ______ ____
ROOT
ATOM      1  C   UNL     1      -4.425  12.115  18.440  0.00  0.00    +0.000 A 
ATOM      2  C   UNL     1      -4.199  12.672  19.712  0.00  0.00    +0.000 A 
ATOM      3  C   UNL     1      -3.023  12.468  20.427  0.00  0.00    +0.000 A 
ATOM      4  N   UNL     1      -2.870  13.104  21.587  0.00  0.00    +0.000 NA
ATOM      5  C   UNL     1      -1.720  12.906  22.247  0.00  0.00    +0.000 A 
ATOM      6  N   UNL     1      -0.726  12.107  21.837  0.00  0.00    +0.000 NA
ATOM      7  C   UNL     1      -0.868  11.481  20.649  0.00  0.00    +0.000 A 
ATOM      8  N   UNL     1       0.185  10.700  20.234  0.00  0.00    +0.000 N 
ATOM      9  C   UNL     1       0.993   9.972  21.218  0.00  0.00    +0.000 C 
ATOM     10  C   UNL     1       1.062   8.488  20.782  0.00  0.00    +0.000 C 
ATOM     11  N   UNL     1       1.576   8.386  19.398  0.00  0.00    +0.000 N 
ATOM     12  C   UNL     1       0.824   9.171  18.398  0.00  0.00    +0.000 C 
ATOM     13  C   UNL     1       0.726  10.649  18.868  0.00  0.00    +0.000 C 
ATOM     14  C   UNL     1      -2.055  11.619  19.899  0.00  0.00    +0.000 A 
ATOM     15  C   UNL     1      -2.355  10.954  18.691  0.00  0.00    +0.000 A 
ATOM     16  C   UNL     1      -3.494  11.217  17.928  0.00  0.00    +0.000 A 
ENDROOT
BRANCH  11  17
ATOM     17  C   UNL     1       2.500   7.431  19.012  0.00  0.00    +0.000 A 
ATOM     18  C   UNL     1       2.779   6.350  19.864  0.00  0.00    +0.000 A 
ATOM     19  C   UNL     1       3.772   5.413  19.565  0.00  0.00    +0.000 A 
ATOM     20  C   UNL     1       4.520   5.531  18.398  0.00  0.00    +0.000 A 
ATOM     21  C   UNL     1       4.259   6.577  17.522  0.00  0.00    +0.000 A 
ATOM     22  C   UNL     1       3.262   7.501  17.826  0.00  0.00    +0.000 A 
ATOM     23  F   UNL     1       3.040   8.481  16.930  0.00  0.00    +0.000 F 
ENDBRANCH  11  17
BRANCH   5  24
ATOM     24  C   UNL     1      -1.541  13.700  23.573  0.00  0.00    +0.000 C 
ATOM     25  C   UNL     1      -0.939  15.134  23.541  0.00  0.00    +0.000 C 
ATOM     26  C   UNL     1      -1.906  15.507  24.680  0.00  0.00    +0.000 C 
ATOM     27  C   UNL     1      -2.809  14.361  24.197  0.00  0.00    +0.000 C 
ENDBRANCH   5  24
BRANCH   1  29
ATOM     28  C   UNL     1      -6.785  12.000  18.291  0.00  0.00    +0.000 C 
ATOM     29  O   UNL     1      -5.546  12.410  17.709  0.00  0.00    +0.000 OA
ENDBRANCH   1  29
BRANCH  16  30
ATOM     30  O   UNL     1      -3.469  10.542  16.745  0.00  0.00    +0.000 OA
ATOM     31  C   UNL     1      -2.290   9.877  16.333  0.00  0.00    +0.000 C 
ENDBRANCH  16  30
TORSDOF 4
ENDMDL
MODEL 7
REMARK VINA RESULT:      -7.0      3.829      5.617
REMARK  Name = 
REMARK  6 active torsions:
REMARK  status: ('A' for Active; 'I' for Inactive)
REMARK    1  A    between atoms: C_1  and  O_2
REMARK    2  A    between atoms: O_2  and  C_3
REMARK    3  A    between atoms: C_7  and  C_8
REMARK    4  A    between atoms: N_17  and  C_18
REMARK    5  A    between atoms: C_29  and  O_30
REMARK    6  A    between atoms: O_30  and  C_31
REMARK                            x       y       z     vdW  Elec       q    Type
REMARK                         _______ _______ _______ _____ _____    ______ ____
ROOT
ATOM      1  C   UNL     1      -4.272  15.240  22.049  0.00  0.00    +0.000 A 
ATOM      2  C   UNL     1      -3.504  16.249  21.439  0.00  0.00    +0.000 A 
ATOM      3  C   UNL     1      -2.424  15.976  20.606  0.00  0.00    +0.000 A 
ATOM      4  N   UNL     1      -1.810  16.997  20.011  0.00  0.00    +0.000 NA
ATOM      5  C   UNL     1      -0.784  16.706  19.198  0.00  0.00    +0.000 A 
ATOM      6  N   UNL     1      -0.322  15.472  18.955  0.00  0.00    +0.000 NA
ATOM      7  C   UNL     1      -0.959  14.434  19.537  0.00  0.00    +0.000 A 
ATOM      8  N   UNL     1      -0.490  13.176  19.236  0.00  0.00    +0.000 N 
ATOM      9  C   UNL     1       0.942  12.964  18.999  0.00  0.00    +0.000 C 
ATOM     10  C   UNL     1       1.413  11.799  19.904  0.00  0.00    +0.000 C 
ATOM     11  N   UNL     1       0.585  10.597  19.662  0.00  0.00    +0.000 N 
ATOM     12  C   UNL     1      -0.870  10.803  19.820  0.00  0.00    +0.000 C 
ATOM     13  C   UNL     1      -1.321  12.001  18.939  0.00  0.00    +0.000 C 
ATOM     14  C   UNL     1      -2.036  14.652  20.421  0.00  0.00    +0.000 A 
ATOM     15  C   UNL     1      -2.724  13.660  21.152  0.00  0.00    +0.000 A 
ATOM     16  C   UNL     1      -3.859  13.917  21.922  0.00  0.00    +0.000 A 
ENDROOT
BRANCH  11  17
ATOM     17  C   UNL     1       1.122   9.326  19.568  0.00  0.00    +0.000 A 
ATOM     18  C   UNL     1       1.098   8.476  20.686  0.00  0.00    +0.000 A 
ATOM     19  C   UNL     1       1.713   7.222  20.673  0.00  0.00    +0.000 A 
ATOM     20  C   UNL     1       2.373   6.776  19.532  0.00  0.00    +0.000 A 
ATOM     21  C   UNL     1       2.402   7.581  18.400  0.00  0.00    +0.000 A 
ATOM     22  C   UNL     1       1.780   8.826  18.423  0.00  0.00    +0.000 A 
ATOM     23  F   UNL     1       1.823   9.554  17.291  0.00  0.00    +0.000 F 
ENDBRANCH  11  17
BRANCH   5  24
ATOM     24  C   UNL     1      -0.117  17.910  18.473  0.00  0.00    +0.000 C 
ATOM     25  C   UNL     1       1.378  17.828  18.051  0.00  0.00    +0.000 C 
ATOM     26  C   UNL     1       1.008  18.628  16.787  0.00  0.00    +0.000 C 
ATOM     27  C   UNL     1      -0.426  18.102  16.956  0.00  0.00    +0.000 C 
ENDBRANCH   5  24
BRANCH   1  29
ATOM     28  C   UNL     1      -5.161  16.205  24.019  0.00  0.00    +0.000 C 
ATOM     29  O   UNL     1      -5.392  15.526  22.783  0.00  0.00    +0.000 OA
ENDBRANCH   1  29
BRANCH  16  30
ATOM     30  O   UNL     1      -4.406  12.766  22.405  0.00  0.00    +0.000 OA
ATOM     31  C   UNL     1      -4.411  12.513  23.796  0.00  0.00    +0.000 C 
ENDBRANCH  16  30
TORSDOF 4
ENDMDL
MODEL 8
REMARK VINA RESULT:      -7.0      2.778      8.239
REMARK  Name = 
REMARK  6 active torsions:
REMARK  status: ('A' for Active; 'I' for Inactive)
REMARK    1  A    between atoms: C_1  and  O_2
REMARK    2  A    between atoms: O_2  and  C_3
REMARK    3  A    between atoms: C_7  and  C_8
REMARK    4  A    between atoms: N_17  and  C_18
REMARK    5  A    between atoms: C_29  and  O_30
REMARK    6  A    between atoms: O_30  and  C_31
REMARK                            x       y       z     vdW  Elec       q    Type
REMARK                         _______ _______ _______ _____ _____    ______ ____
ROOT
ATOM      1  C   UNL     1      -3.399  10.580  16.359  0.00  0.00    +0.000 A 
ATOM      2  C   UNL     1      -2.125  10.019  16.560  0.00  0.00    +0.000 A 
ATOM      3  C   UNL     1      -1.371  10.248  17.706  0.00  0.00    +0.000 A 
ATOM      4  N   UNL     1      -0.211   9.607  17.839  0.00  0.00    +0.000 NA
ATOM      5  C   UNL     1       0.487   9.830  18.962  0.00  0.00    +0.000 A 
ATOM      6  N   UNL     1       0.114  10.658  19.947  0.00  0.00    +0.000 NA
ATOM      7  C   UNL     1      -1.073  11.289  19.826  0.00  0.00    +0.000 A 
ATOM      8  N   UNL     1      -1.449  12.100  20.871  0.00  0.00    +0.000 N 
ATOM      9  C   UNL     1      -0.434  12.841  21.628  0.00  0.00    +0.000 C 
ATOM     10  C   UNL     1      -0.857  14.330  21.672  0.00  0.00    +0.000 C 
ATOM     11  N   UNL     1      -2.223  14.457  22.227  0.00  0.00    +0.000 N 
ATOM     12  C   UNL     1      -3.253  13.659  21.528  0.00  0.00    +0.000 C 
ATOM     13  C   UNL     1      -2.796  12.176  21.454  0.00  0.00    +0.000 C 
ATOM     14  C   UNL     1      -1.862  11.126  18.668  0.00  0.00    +0.000 A 
ATOM     15  C   UNL     1      -3.074  11.792  18.389  0.00  0.00    +0.000 A 
ATOM     16  C   UNL     1      -3.875  11.506  17.282  0.00  0.00    +0.000 A 
ENDROOT
BRANCH  11  17
ATOM     17  C   UNL     1      -2.572  15.438  23.137  0.00  0.00    +0.000 A 
ATOM     18  C   UNL     1      -2.255  16.780  22.870  0.00  0.00    +0.000 A 
ATOM     19  C   UNL     1      -2.498  17.795  23.799  0.00  0.00    +0.000 A 
ATOM     20  C   UNL     1      -3.070  17.496  25.030  0.00  0.00    +0.000 A 
ATOM     21  C   UNL     1      -3.416  16.182  25.323  0.00  0.00    +0.000 A 
ATOM     22  C   UNL     1      -3.175  15.180  24.388  0.00  0.00    +0.000 A 
ATOM     23  F   UNL     1      -3.549  13.929  24.718  0.00  0.00    +0.000 F 
ENDBRANCH  11  17
BRANCH   5  24
ATOM     24  C   UNL     1       1.812   9.030  19.119  0.00  0.00    +0.000 C 
ATOM     25  C   UNL     1       1.835   7.730  19.974  0.00  0.00    +0.000 C 
ATOM     26  C   UNL     1       2.835   7.145  18.959  0.00  0.00    +0.000 C 
ATOM     27  C   UNL     1       2.258   8.128  17.927  0.00  0.00    +0.000 C 
ENDBRANCH   5  24
BRANCH   1  29
ATOM     28  C   UNL     1      -3.447  10.006  14.063  0.00  0.00    +0.000 C 
ATOM     29  O   UNL     1      -4.168  10.262  15.271  0.00  0.00    +0.000 OA
ENDBRANCH   1  29
BRANCH  16  30
ATOM     30  O   UNL     1      -5.052  12.191  17.327  0.00  0.00    +0.000 OA
ATOM     31  C   UNL     1      -5.919  12.038  18.434  0.00  0.00    +0.000 C 
ENDBRANCH  16  30
TORSDOF 4
ENDMDL
MODEL 9
REMARK VINA RESULT:      -6.9      1.760      2.720
REMARK  Name = 
REMARK  6 active torsions:
REMARK  status: ('A' for Active; 'I' for Inactive)
REMARK    1  A    between atoms: C_1  and  O_2
REMARK    2  A    between atoms: O_2  and  C_3
REMARK    3  A    between atoms: C_7  and  C_8
REMARK    4  A    between atoms: N_17  and  C_18
REMARK    5  A    between atoms: C_29  and  O_30
REMARK    6  A    between atoms: O_30  and  C_31
REMARK                            x       y       z     vdW  Elec       q    Type
REMARK                         _______ _______ _______ _____ _____    ______ ____
ROOT
ATOM      1  C   UNL     1      -5.236  12.848  19.437  0.00  0.00    +0.000 A 
ATOM      2  C   UNL     1      -4.796  13.551  20.574  0.00  0.00    +0.000 A 
ATOM      3  C   UNL     1      -3.499  13.456  21.065  0.00  0.00    +0.000 A 
ATOM      4  N   UNL     1      -3.156  14.222  22.099  0.00  0.00    +0.000 NA
ATOM      5  C   UNL     1      -1.893  14.127  22.541  0.00  0.00    +0.000 A 
ATOM      6  N   UNL     1      -0.961  13.310  22.033  0.00  0.00    +0.000 NA
ATOM      7  C   UNL     1      -1.299  12.551  20.969  0.00  0.00    +0.000 A 
ATOM      8  N   UNL     1      -0.310  11.753  20.442  0.00  0.00    +0.000 N 
ATOM      9  C   UNL     1       0.702  11.160  21.322  0.00  0.00    +0.000 C 
ATOM     10  C   UNL     1       0.754   9.638  21.041  0.00  0.00    +0.000 C 
ATOM     11  N   UNL     1       0.999   9.392  19.602  0.00  0.00    +0.000 N 
ATOM     12  C   UNL     1       0.036  10.043  18.689  0.00  0.00    +0.000 C 
ATOM     13  C   UNL     1      -0.037  11.561  19.010  0.00  0.00    +0.000 C 
ATOM     14  C   UNL     1      -2.611  12.576  20.452  0.00  0.00    +0.000 A 
ATOM     15  C   UNL     1      -3.106  11.773  19.403  0.00  0.00    +0.000 A 
ATOM     16  C   UNL     1      -4.380  11.921  18.852  0.00  0.00    +0.000 A 
ENDROOT
BRANCH  11  17
ATOM     17  C   UNL     1       1.874   8.423  19.148  0.00  0.00    +0.000 A 
ATOM     18  C   UNL     1       2.552   8.611  17.933  0.00  0.00    +0.000 A 
ATOM     19  C   UNL     1       3.371   7.622  17.384  0.00  0.00    +0.000 A 
ATOM     20  C   UNL     1       3.539   6.406  18.039  0.00  0.00    +0.000 A 
ATOM     21  C   UNL     1       2.899   6.190  19.253  0.00  0.00    +0.000 A 
ATOM     22  C   UNL     1       2.090   7.186  19.795  0.00  0.00    +0.000 A 
ATOM     23  F   UNL     1       1.513   6.928  20.983  0.00  0.00    +0.000 F 
ENDBRANCH  11  17
BRANCH   5  24
ATOM     24  C   UNL     1      -1.501  15.070  23.715  0.00  0.00    +0.000 C 
ATOM     25  C   UNL     1      -1.875  16.578  23.654  0.00  0.00    +0.000 C 
ATOM     26  C   UNL     1      -2.123  16.522  25.173  0.00  0.00    +0.000 C 
ATOM     27  C   UNL     1      -2.372  15.014  25.008  0.00  0.00    +0.000 C 
ENDBRANCH   5  24
BRANCH   1  29
ATOM     28  C   UNL     1      -7.511  12.193  19.449  0.00  0.00    +0.000 C 
ATOM     29  O   UNL     1      -6.487  13.033  18.910  0.00  0.00    +0.000 OA
ENDBRANCH   1  29
BRANCH  16  30
ATOM     30  O   UNL     1      -4.550  11.117  17.765  0.00  0.00    +0.000 OA
ATOM     31  C   UNL     1      -3.424  10.634  17.058  0.00  0.00    +0.000 C 
ENDBRANCH  16  30
TORSDOF 4
ENDMDL
