MODEL 1
REMARK VINA RESULT:      -7.1      0.000      0.000
REMARK  Name = 
REMARK  0 active torsions:
REMARK  status: ('A' for Active; 'I' for Inactive)
REMARK                            x       y       z     vdW  Elec       q    Type
REMARK                         _______ _______ _______ _____ _____    ______ ____
ROOT
ATOM      1  O   UNL     1       3.790   1.618  17.828  0.00  0.00    +0.000 OA
ATOM      2  C   UNL     1       3.347   2.726  18.146  0.00  0.00    +0.000 C 
ATOM      3  C   UNL     1       3.930   3.935  17.545  0.00  0.00    +0.000 A 
ATOM      4  C   UNL     1       4.898   3.773  16.545  0.00  0.00    +0.000 A 
ATOM      5  C   UNL     1       5.390   4.882  15.879  0.00  0.00    +0.000 A 
ATOM      6  C   UNL     1       4.941   6.159  16.232  0.00  0.00    +0.000 A 
ATOM      7  C   UNL     1       3.996   6.333  17.260  0.00  0.00    +0.000 A 
ATOM      8  C   UNL     1       3.562   7.612  17.630  0.00  0.00    +0.000 A 
ATOM      9  C   UNL     1       2.624   7.778  18.641  0.00  0.00    +0.000 A 
ATOM     10  C   UNL     1       2.056   6.662  19.259  0.00  0.00    +0.000 A 
ATOM     11  C   UNL     1       2.462   5.376  18.886  0.00  0.00    +0.000 A 
ATOM     12  C   UNL     1       3.462   5.199  17.917  0.00  0.00    +0.000 A 
ATOM     13  C   UNL     1       1.768   4.177  19.456  0.00  0.00    +0.000 C 
ATOM     14  O   UNL     1       0.858   4.364  20.258  0.00  0.00    +0.000 OA
ATOM     15  N   UNL     1       2.233   2.941  18.964  0.00  0.00    +0.000 N 
ATOM     16  O   UNL     1       1.508   1.796  19.334  0.00  0.00    +0.000 OA
ENDROOT
TORSDOF 0
ENDMDL
MODEL 2
REMARK VINA RESULT:      -7.1      1.961      3.723
REMARK  Name = 
REMARK  0 active torsions:
REMARK  status: ('A' for Active; 'I' for Inactive)
REMARK                            x       y       z     vdW  Elec       q    Type
REMARK                         _______ _______ _______ _____ _____    ______ ____
ROOT
ATOM      1  O   UNL     1       3.865   1.768  17.365  0.00  0.00    +0.000 OA
ATOM      2  C   UNL     1       3.717   2.965  17.630  0.00  0.00    +0.000 C 
ATOM      3  C   UNL     1       2.857   3.353  18.757  0.00  0.00    +0.000 A 
ATOM      4  C   UNL     1       2.323   2.336  19.560  0.00  0.00    +0.000 A 
ATOM      5  C   UNL     1       1.599   2.664  20.693  0.00  0.00    +0.000 A 
ATOM      6  C   UNL     1       1.378   4.008  21.010  0.00  0.00    +0.000 A 
ATOM      7  C   UNL     1       1.880   5.036  20.189  0.00  0.00    +0.000 A 
ATOM      8  C   UNL     1       1.640   6.381  20.493  0.00  0.00    +0.000 A 
ATOM      9  C   UNL     1       2.144   7.391  19.682  0.00  0.00    +0.000 A 
ATOM     10  C   UNL     1       2.948   7.074  18.587  0.00  0.00    +0.000 A 
ATOM     11  C   UNL     1       3.216   5.736  18.282  0.00  0.00    +0.000 A 
ATOM     12  C   UNL     1       2.653   4.704  19.051  0.00  0.00    +0.000 A 
ATOM     13  C   UNL     1       4.177   5.395  17.185  0.00  0.00    +0.000 C 
ATOM     14  O   UNL     1       4.698   6.318  16.568  0.00  0.00    +0.000 OA
ATOM     15  N   UNL     1       4.401   4.015  17.009  0.00  0.00    +0.000 N 
ATOM     16  O   UNL     1       5.418   3.645  16.113  0.00  0.00    +0.000 OA
ENDROOT
TORSDOF 0
ENDMDL
MODEL 3
REMARK VINA RESULT:      -7.0      0.345      3.326
REMARK  Name = 
REMARK  0 active torsions:
REMARK  status: ('A' for Active; 'I' for Inactive)
REMARK                            x       y       z     vdW  Elec       q    Type
REMARK                         _______ _______ _______ _____ _____    ______ ____
ROOT
ATOM      1  O   UNL     1       0.886   4.637  20.368  0.00  0.00    +0.000 OA
ATOM      2  C   UNL     1       1.778   4.370  19.557  0.00  0.00    +0.000 C 
ATOM      3  C   UNL     1       2.412   5.459  18.799  0.00  0.00    +0.000 A 
ATOM      4  C   UNL     1       2.051   6.776  19.110  0.00  0.00    +0.000 A 
ATOM      5  C   UNL     1       2.704   7.832  18.496  0.00  0.00    +0.000 A 
ATOM      6  C   UNL     1       3.697   7.573  17.545  0.00  0.00    +0.000 A 
ATOM      7  C   UNL     1       4.041   6.253  17.200  0.00  0.00    +0.000 A 
ATOM      8  C   UNL     1       5.018   5.993  16.232  0.00  0.00    +0.000 A 
ATOM      9  C   UNL     1       5.358   4.688  15.900  0.00  0.00    +0.000 A 
ATOM     10  C   UNL     1       4.769   3.618  16.575  0.00  0.00    +0.000 A 
ATOM     11  C   UNL     1       3.806   3.860  17.561  0.00  0.00    +0.000 A 
ATOM     12  C   UNL     1       3.402   5.172  17.854  0.00  0.00    +0.000 A 
ATOM     13  C   UNL     1       3.264   2.724  18.373  0.00  0.00    +0.000 C 
ATOM     14  O   UNL     1       3.678   1.594  18.134  0.00  0.00    +0.000 OA
ATOM     15  N   UNL     1       2.339   3.103  19.367  0.00  0.00    +0.000 N 
ATOM     16  O   UNL     1       1.928   2.105  20.267  0.00  0.00    +0.000 OA
ENDROOT
TORSDOF 0
ENDMDL
MODEL 4
REMARK VINA RESULT:      -6.9      2.554      3.843
REMARK  Name = 
REMARK  0 active torsions:
REMARK  status: ('A' for Active; 'I' for Inactive)
REMARK                            x       y       z     vdW  Elec       q    Type
REMARK                         _______ _______ _______ _____ _____    ______ ____
ROOT
ATOM      1  O   UNL     1       5.086   3.974  15.725  0.00  0.00    +0.000 OA
ATOM      2  C   UNL     1       4.502   4.609  16.608  0.00  0.00    +0.000 C 
ATOM      3  C   UNL     1       3.776   3.880  17.659  0.00  0.00    +0.000 A 
ATOM      4  C   UNL     1       3.869   2.482  17.677  0.00  0.00    +0.000 A 
ATOM      5  C   UNL     1       3.290   1.768  18.712  0.00  0.00    +0.000 A 
ATOM      6  C   UNL     1       2.589   2.445  19.715  0.00  0.00    +0.000 A 
ATOM      7  C   UNL     1       2.460   3.847  19.685  0.00  0.00    +0.000 A 
ATOM      8  C   UNL     1       1.739   4.524  20.676  0.00  0.00    +0.000 A 
ATOM      9  C   UNL     1       1.620   5.908  20.645  0.00  0.00    +0.000 A 
ATOM     10  C   UNL     1       2.272   6.644  19.655  0.00  0.00    +0.000 A 
ATOM     11  C   UNL     1       3.015   5.985  18.670  0.00  0.00    +0.000 A 
ATOM     12  C   UNL     1       3.082   4.583  18.649  0.00  0.00    +0.000 A 
ATOM     13  C   UNL     1       3.817   6.775  17.682  0.00  0.00    +0.000 C 
ATOM     14  O   UNL     1       3.785   7.999  17.760  0.00  0.00    +0.000 OA
ATOM     15  N   UNL     1       4.561   5.996  16.773  0.00  0.00    +0.000 N 
ATOM     16  O   UNL     1       5.461   6.679  15.937  0.00  0.00    +0.000 OA
ENDROOT
TORSDOF 0
ENDMDL
MODEL 5
REMARK VINA RESULT:      -6.9      2.543      4.955
REMARK  Name = 
REMARK  0 active torsions:
REMARK  status: ('A' for Active; 'I' for Inactive)
REMARK                            x       y       z     vdW  Elec       q    Type
REMARK                         _______ _______ _______ _____ _____    ______ ____
ROOT
ATOM      1  O   UNL     1       4.074   7.908  17.749  0.00  0.00    +0.000 OA
ATOM      2  C   UNL     1       4.021   6.675  17.686  0.00  0.00    +0.000 C 
ATOM      3  C   UNL     1       3.219   5.937  18.673  0.00  0.00    +0.000 A 
ATOM      4  C   UNL     1       2.454   6.675  19.586  0.00  0.00    +0.000 A 
ATOM      5  C   UNL     1       1.603   6.019  20.458  0.00  0.00    +0.000 A 
ATOM      6  C   UNL     1       1.538   4.622  20.444  0.00  0.00    +0.000 A 
ATOM      7  C   UNL     1       2.331   3.871  19.556  0.00  0.00    +0.000 A 
ATOM      8  C   UNL     1       2.284   2.472  19.557  0.00  0.00    +0.000 A 
ATOM      9  C   UNL     1       3.064   1.736  18.673  0.00  0.00    +0.000 A 
ATOM     10  C   UNL     1       3.860   2.390  17.731  0.00  0.00    +0.000 A 
ATOM     11  C   UNL     1       3.901   3.787  17.701  0.00  0.00    +0.000 A 
ATOM     12  C   UNL     1       3.174   4.540  18.637  0.00  0.00    +0.000 A 
ATOM     13  C   UNL     1       4.653   4.492  16.614  0.00  0.00    +0.000 C 
ATOM     14  O   UNL     1       5.233   3.808  15.777  0.00  0.00    +0.000 OA
ATOM     15  N   UNL     1       4.578   5.898  16.665  0.00  0.00    +0.000 N 
ATOM     16  O   UNL     1       5.120   6.604  15.578  0.00  0.00    +0.000 OA
ENDROOT
TORSDOF 0
ENDMDL
MODEL 6
REMARK VINA RESULT:      -6.9      2.927      4.843
REMARK  Name = 
REMARK  0 active torsions:
REMARK  status: ('A' for Active; 'I' for Inactive)
REMARK                            x       y       z     vdW  Elec       q    Type
REMARK                         _______ _______ _______ _____ _____    ______ ____
ROOT
ATOM      1  O   UNL     1       6.414   7.676  16.716  0.00  0.00    +0.000 OA
ATOM      2  C   UNL     1       5.810   6.599  16.727  0.00  0.00    +0.000 C 
ATOM      3  C   UNL     1       4.478   6.527  17.345  0.00  0.00    +0.000 A 
ATOM      4  C   UNL     1       3.897   7.717  17.803  0.00  0.00    +0.000 A 
ATOM      5  C   UNL     1       2.602   7.707  18.290  0.00  0.00    +0.000 A 
ATOM      6  C   UNL     1       1.894   6.502  18.353  0.00  0.00    +0.000 A 
ATOM      7  C   UNL     1       2.483   5.295  17.930  0.00  0.00    +0.000 A 
ATOM      8  C   UNL     1       1.784   4.085  18.013  0.00  0.00    +0.000 A 
ATOM      9  C   UNL     1       2.368   2.898  17.588  0.00  0.00    +0.000 A 
ATOM     10  C   UNL     1       3.640   2.911  17.014  0.00  0.00    +0.000 A 
ATOM     11  C   UNL     1       4.343   4.114  16.902  0.00  0.00    +0.000 A 
ATOM     12  C   UNL     1       3.793   5.308  17.395  0.00  0.00    +0.000 A 
ATOM     13  C   UNL     1       5.653   4.152  16.176  0.00  0.00    +0.000 C 
ATOM     14  O   UNL     1       6.082   3.103  15.705  0.00  0.00    +0.000 OA
ATOM     15  N   UNL     1       6.238   5.431  16.088  0.00  0.00    +0.000 N 
ATOM     16  O   UNL     1       7.377   5.555  15.274  0.00  0.00    +0.000 OA
ENDROOT
TORSDOF 0
ENDMDL
MODEL 7
REMARK VINA RESULT:      -6.9      1.986      3.685
REMARK  Name = 
REMARK  0 active torsions:
REMARK  status: ('A' for Active; 'I' for Inactive)
REMARK                            x       y       z     vdW  Elec       q    Type
REMARK                         _______ _______ _______ _____ _____    ______ ____
ROOT
ATOM      1  O   UNL     1       3.242   8.226  17.968  0.00  0.00    +0.000 OA
ATOM      2  C   UNL     1       3.032   7.062  18.325  0.00  0.00    +0.000 C 
ATOM      3  C   UNL     1       3.681   5.959  17.603  0.00  0.00    +0.000 A 
ATOM      4  C   UNL     1       4.604   6.279  16.599  0.00  0.00    +0.000 A 
ATOM      5  C   UNL     1       5.316   5.272  15.972  0.00  0.00    +0.000 A 
ATOM      6  C   UNL     1       5.084   3.938  16.322  0.00  0.00    +0.000 A 
ATOM      7  C   UNL     1       4.131   3.604  17.303  0.00  0.00    +0.000 A 
ATOM      8  C   UNL     1       3.882   2.268  17.638  0.00  0.00    +0.000 A 
ATOM      9  C   UNL     1       2.945   1.944  18.613  0.00  0.00    +0.000 A 
ATOM     10  C   UNL     1       2.285   2.956  19.312  0.00  0.00    +0.000 A 
ATOM     11  C   UNL     1       2.539   4.297  19.006  0.00  0.00    +0.000 A 
ATOM     12  C   UNL     1       3.429   4.634  17.973  0.00  0.00    +0.000 A 
ATOM     13  C   UNL     1       1.930   5.384  19.836  0.00  0.00    +0.000 C 
ATOM     14  O   UNL     1       1.201   5.058  20.768  0.00  0.00    +0.000 OA
ATOM     15  N   UNL     1       2.302   6.690  19.458  0.00  0.00    +0.000 N 
ATOM     16  O   UNL     1       1.897   7.736  20.304  0.00  0.00    +0.000 OA
ENDROOT
TORSDOF 0
ENDMDL
MODEL 8
REMARK VINA RESULT:      -6.9      2.571      4.977
REMARK  Name = 
REMARK  0 active torsions:
REMARK  status: ('A' for Active; 'I' for Inactive)
REMARK                            x       y       z     vdW  Elec       q    Type
REMARK                         _______ _______ _______ _____ _____    ______ ____
ROOT
ATOM      1  O   UNL     1       1.724   7.514  20.304  0.00  0.00    +0.000 OA
ATOM      2  C   UNL     1       2.309   6.779  19.503  0.00  0.00    +0.000 C 
ATOM      3  C   UNL     1       2.199   5.320  19.650  0.00  0.00    +0.000 A 
ATOM      4  C   UNL     1       1.338   4.820  20.635  0.00  0.00    +0.000 A 
ATOM      5  C   UNL     1       1.123   3.456  20.733  0.00  0.00    +0.000 A 
ATOM      6  C   UNL     1       1.794   2.585  19.867  0.00  0.00    +0.000 A 
ATOM      7  C   UNL     1       2.688   3.077  18.898  0.00  0.00    +0.000 A 
ATOM      8  C   UNL     1       3.377   2.205  18.047  0.00  0.00    +0.000 A 
ATOM      9  C   UNL     1       4.254   2.696  17.088  0.00  0.00    +0.000 A 
ATOM     10  C   UNL     1       4.411   4.073  16.923  0.00  0.00    +0.000 A 
ATOM     11  C   UNL     1       3.714   4.959  17.750  0.00  0.00    +0.000 A 
ATOM     12  C   UNL     1       2.881   4.473  18.771  0.00  0.00    +0.000 A 
ATOM     13  C   UNL     1       3.782   6.434  17.496  0.00  0.00    +0.000 C 
ATOM     14  O   UNL     1       4.474   6.826  16.561  0.00  0.00    +0.000 OA
ATOM     15  N   UNL     1       2.997   7.216  18.366  0.00  0.00    +0.000 N 
ATOM     16  O   UNL     1       2.890   8.585  18.068  0.00  0.00    +0.000 OA
ENDROOT
TORSDOF 0
ENDMDL
MODEL 9
REMARK VINA RESULT:      -6.8      2.447      4.017
REMARK  Name = 
REMARK  0 active torsions:
REMARK  status: ('A' for Active; 'I' for Inactive)
REMARK                            x       y       z     vdW  Elec       q    Type
REMARK                         _______ _______ _______ _____ _____    ______ ____
ROOT
ATOM      1  O   UNL     1       5.376   3.016  19.561  0.00  0.00    +0.000 OA
ATOM      2  C   UNL     1       5.081   4.103  19.055  0.00  0.00    +0.000 C 
ATOM      3  C   UNL     1       3.846   4.782  19.474  0.00  0.00    +0.000 A 
ATOM      4  C   UNL     1       3.104   4.216  20.519  0.00  0.00    +0.000 A 
ATOM      5  C   UNL     1       1.996   4.881  21.015  0.00  0.00    +0.000 A 
ATOM      6  C   UNL     1       1.607   6.098  20.446  0.00  0.00    +0.000 A 
ATOM      7  C   UNL     1       2.325   6.656  19.372  0.00  0.00    +0.000 A 
ATOM      8  C   UNL     1       1.923   7.863  18.787  0.00  0.00    +0.000 A 
ATOM      9  C   UNL     1       2.639   8.412  17.731  0.00  0.00    +0.000 A 
ATOM     10  C   UNL     1       3.807   7.795  17.282  0.00  0.00    +0.000 A 
ATOM     11  C   UNL     1       4.235   6.600  17.869  0.00  0.00    +0.000 A 
ATOM     12  C   UNL     1       3.480   5.997  18.888  0.00  0.00    +0.000 A 
ATOM     13  C   UNL     1       5.551   6.001  17.476  0.00  0.00    +0.000 C 
ATOM     14  O   UNL     1       6.217   6.580  16.624  0.00  0.00    +0.000 OA
ATOM     15  N   UNL     1       5.893   4.826  18.175  0.00  0.00    +0.000 N 
ATOM     16  O   UNL     1       7.186   4.317  17.970  0.00  0.00    +0.000 OA
ENDROOT
TORSDOF 0
ENDMDL
