MODEL 1
REMARK VINA RESULT:      -8.3      0.000      0.000
REMARK  Name = 
REMARK  9 active torsions:
REMARK  status: ('A' for Active; 'I' for Inactive)
REMARK    1  A    between atoms: C_1  and  C_2
REMARK    2  A    between atoms: C_2  and  C_3
REMARK    3  A    between atoms: C_3  and  N_4
REMARK    4  A    between atoms: C_5  and  C_7
REMARK    5  A    between atoms: C_12  and  C_14
REMARK    6  A    between atoms: C_14  and  N_15
REMARK    7  A    between atoms: C_14  and  C_16
REMARK    8  A    between atoms: C_16  and  C_17
REMARK    9  A    between atoms: C_16  and  C_23
REMARK                            x       y       z     vdW  Elec       q    Type
REMARK                         _______ _______ _______ _____ _____    ______ ____
ROOT
ATOM      1  C   UNL     1       4.441   4.014  16.588  0.00  0.00    +0.000 C 
ENDROOT
BRANCH   1   7
ATOM      2  C   UNL     1       1.541   4.481  19.193  0.00  0.00    +0.000 C 
ATOM      3  C   UNL     1       0.931   3.207  19.821  0.00  0.00    +0.000 C 
ATOM      4  C   UNL     1       1.115   2.092  18.796  0.00  0.00    +0.000 C 
ATOM      5  C   UNL     1       2.198   2.595  17.854  0.00  0.00    +0.000 C 
ATOM      6  N   UNL     1       2.602   3.909  18.332  0.00  0.00    +0.000 N 
ATOM      7  C   UNL     1       3.542   4.675  17.661  0.00  0.00    +0.000 C 
ATOM      8  O   UNL     1       3.705   5.864  17.931  0.00  0.00    +0.000 OA
BRANCH   2  10
ATOM      9  N   UNL     1       1.437   6.849  20.008  0.00  0.00    +0.000 N 
ATOM     10  C   UNL     1       1.835   5.565  20.308  0.00  0.00    +0.000 C 
ATOM     11  O   UNL     1       2.232   5.253  21.434  0.00  0.00    +0.000 OA
ATOM     12  H   UNL     1       1.157   7.020  19.045  0.00  0.00    +0.000 HD
BRANCH   9  13
ATOM     13  C   UNL     1       1.615   8.016  20.841  0.00  0.00    +0.000 C 
BRANCH  13  15
ATOM     14  C   UNL     1       0.466   9.483  22.673  0.00  0.00    +0.000 C 
ATOM     15  C   UNL     1       0.318   8.537  21.486  0.00  0.00    +0.000 C 
ENDBRANCH  13  15
ENDBRANCH   9  13
ENDBRANCH   2  10
ENDBRANCH   1   7
BRANCH   1  16
ATOM     16  N   UNL     1       5.101   2.817  17.156  0.00  0.00    +0.000 NA
ATOM     17  H   UNL     1       5.895   3.109  17.725  0.00  0.00    +0.000 HD
ATOM     18  H   UNL     1       5.481   2.245  16.407  0.00  0.00    +0.000 HD
ENDBRANCH   1  16
BRANCH   1  19
ATOM     19  C   UNL     1       5.364   5.086  15.866  0.00  0.00    +0.000 C 
BRANCH  19  20
ATOM     20  C   UNL     1       6.260   5.783  16.935  0.00  0.00    +0.000 A 
ATOM     21  C   UNL     1       6.530   7.162  16.951  0.00  0.00    +0.000 A 
ATOM     22  C   UNL     1       7.497   7.701  17.816  0.00  0.00    +0.000 A 
ATOM     23  C   UNL     1       8.200   6.873  18.690  0.00  0.00    +0.000 A 
ATOM     24  C   UNL     1       7.926   5.515  18.723  0.00  0.00    +0.000 A 
ATOM     25  C   UNL     1       6.963   4.983  17.864  0.00  0.00    +0.000 A 
ENDBRANCH  19  20
BRANCH  19  26
ATOM     26  C   UNL     1       6.023   4.715  14.510  0.00  0.00    +0.000 A 
ATOM     27  C   UNL     1       5.361   3.808  13.654  0.00  0.00    +0.000 A 
ATOM     28  C   UNL     1       5.863   3.469  12.388  0.00  0.00    +0.000 A 
ATOM     29  C   UNL     1       7.048   4.037  11.936  0.00  0.00    +0.000 A 
ATOM     30  C   UNL     1       7.745   4.906  12.771  0.00  0.00    +0.000 A 
ATOM     31  C   UNL     1       7.251   5.222  14.049  0.00  0.00    +0.000 A 
ENDBRANCH  19  26
ENDBRANCH   1  19
TORSDOF 8
ENDMDL
MODEL 2
REMARK VINA RESULT:      -8.3      0.421      1.358
REMARK  Name = 
REMARK  9 active torsions:
REMARK  status: ('A' for Active; 'I' for Inactive)
REMARK    1  A    between atoms: C_1  and  C_2
REMARK    2  A    between atoms: C_2  and  C_3
REMARK    3  A    between atoms: C_3  and  N_4
REMARK    4  A    between atoms: C_5  and  C_7
REMARK    5  A    between atoms: C_12  and  C_14
REMARK    6  A    between atoms: C_14  and  N_15
REMARK    7  A    between atoms: C_14  and  C_16
REMARK    8  A    between atoms: C_16  and  C_17
REMARK    9  A    between atoms: C_16  and  C_23
REMARK                            x       y       z     vdW  Elec       q    Type
REMARK                         _______ _______ _______ _____ _____    ______ ____
ROOT
ATOM      1  C   UNL     1       4.488   3.962  16.522  0.00  0.00    +0.000 C 
ENDROOT
BRANCH   1   7
ATOM      2  C   UNL     1       1.568   4.639  19.057  0.00  0.00    +0.000 C 
ATOM      3  C   UNL     1       0.926   3.416  19.751  0.00  0.00    +0.000 C 
ATOM      4  C   UNL     1       1.099   2.239  18.797  0.00  0.00    +0.000 C 
ATOM      5  C   UNL     1       2.203   2.664  17.840  0.00  0.00    +0.000 C 
ATOM      6  N   UNL     1       2.627   3.996  18.245  0.00  0.00    +0.000 N 
ATOM      7  C   UNL     1       3.590   4.703  17.542  0.00  0.00    +0.000 C 
ATOM      8  O   UNL     1       3.774   5.903  17.743  0.00  0.00    +0.000 OA
BRANCH   2  10
ATOM      9  N   UNL     1       1.736   7.071  19.643  0.00  0.00    +0.000 N 
ATOM     10  C   UNL     1       1.871   5.781  20.109  0.00  0.00    +0.000 C 
ATOM     11  O   UNL     1       2.042   5.537  21.307  0.00  0.00    +0.000 OA
ATOM     12  H   UNL     1       1.631   7.175  18.636  0.00  0.00    +0.000 HD
BRANCH   9  13
ATOM     13  C   UNL     1       1.980   8.281  20.392  0.00  0.00    +0.000 C 
BRANCH  13  15
ATOM     14  C   UNL     1      -0.302   8.464  21.651  0.00  0.00    +0.000 C 
ATOM     15  C   UNL     1       0.713   9.097  20.706  0.00  0.00    +0.000 C 
ENDBRANCH  13  15
ENDBRANCH   9  13
ENDBRANCH   2  10
ENDBRANCH   1   7
BRANCH   1  16
ATOM     16  N   UNL     1       5.107   2.781  17.164  0.00  0.00    +0.000 NA
ATOM     17  H   UNL     1       4.592   1.943  16.894  0.00  0.00    +0.000 HD
ATOM     18  H   UNL     1       5.022   2.855  18.175  0.00  0.00    +0.000 HD
ENDBRANCH   1  16
BRANCH   1  19
ATOM     19  C   UNL     1       5.450   4.969  15.759  0.00  0.00    +0.000 C 
BRANCH  19  20
ATOM     20  C   UNL     1       6.500   5.528  16.770  0.00  0.00    +0.000 A 
ATOM     21  C   UNL     1       7.155   4.741  17.732  0.00  0.00    +0.000 A 
ATOM     22  C   UNL     1       7.937   5.330  18.739  0.00  0.00    +0.000 A 
ATOM     23  C   UNL     1       8.090   6.715  18.793  0.00  0.00    +0.000 A 
ATOM     24  C   UNL     1       7.486   7.512  17.834  0.00  0.00    +0.000 A 
ATOM     25  C   UNL     1       6.712   6.924  16.833  0.00  0.00    +0.000 A 
ENDBRANCH  19  20
BRANCH  19  26
ATOM     26  C   UNL     1       5.952   4.596  14.338  0.00  0.00    +0.000 A 
ATOM     27  C   UNL     1       7.155   5.168  13.867  0.00  0.00    +0.000 A 
ATOM     28  C   UNL     1       7.704   4.836  12.619  0.00  0.00    +0.000 A 
ATOM     29  C   UNL     1       7.066   3.910  11.804  0.00  0.00    +0.000 A 
ATOM     30  C   UNL     1       5.860   3.355  12.223  0.00  0.00    +0.000 A 
ATOM     31  C   UNL     1       5.300   3.712  13.463  0.00  0.00    +0.000 A 
ENDBRANCH  19  26
ENDBRANCH   1  19
TORSDOF 8
ENDMDL
MODEL 3
REMARK VINA RESULT:      -8.1      3.316      6.006
REMARK  Name = 
REMARK  9 active torsions:
REMARK  status: ('A' for Active; 'I' for Inactive)
REMARK    1  A    between atoms: C_1  and  C_2
REMARK    2  A    between atoms: C_2  and  C_3
REMARK    3  A    between atoms: C_3  and  N_4
REMARK    4  A    between atoms: C_5  and  C_7
REMARK    5  A    between atoms: C_12  and  C_14
REMARK    6  A    between atoms: C_14  and  N_15
REMARK    7  A    between atoms: C_14  and  C_16
REMARK    8  A    between atoms: C_16  and  C_17
REMARK    9  A    between atoms: C_16  and  C_23
REMARK                            x       y       z     vdW  Elec       q    Type
REMARK                         _______ _______ _______ _____ _____    ______ ____
ROOT
ATOM      1  C   UNL     1       3.254   7.579  18.386  0.00  0.00    +0.000 C 
ENDROOT
BRANCH   1   7
ATOM      2  C   UNL     1      -0.046   9.346  19.570  0.00  0.00    +0.000 C 
ATOM      3  C   UNL     1      -0.094   9.874  21.022  0.00  0.00    +0.000 C 
ATOM      4  C   UNL     1       0.854   8.995  21.832  0.00  0.00    +0.000 C 
ATOM      5  C   UNL     1       1.751   8.325  20.801  0.00  0.00    +0.000 C 
ATOM      6  N   UNL     1       1.333   8.812  19.494  0.00  0.00    +0.000 N 
ATOM      7  C   UNL     1       1.915   8.353  18.322  0.00  0.00    +0.000 C 
ATOM      8  O   UNL     1       1.407   8.586  17.226  0.00  0.00    +0.000 OA
BRANCH   2  10
ATOM      9  N   UNL     1      -1.535   9.983  17.657  0.00  0.00    +0.000 N 
ATOM     10  C   UNL     1      -0.600  10.433  18.564  0.00  0.00    +0.000 C 
ATOM     11  O   UNL     1      -0.347  11.634  18.695  0.00  0.00    +0.000 OA
ATOM     12  H   UNL     1      -1.652   8.974  17.596  0.00  0.00    +0.000 HD
BRANCH   9  13
ATOM     13  C   UNL     1      -2.169  10.767  16.622  0.00  0.00    +0.000 C 
BRANCH  13  15
ATOM     14  C   UNL     1      -3.209  10.079  14.326  0.00  0.00    +0.000 C 
ATOM     15  C   UNL     1      -3.270  10.021  15.849  0.00  0.00    +0.000 C 
ENDBRANCH  13  15
ENDBRANCH   9  13
ENDBRANCH   2  10
ENDBRANCH   1   7
BRANCH   1  16
ATOM     16  N   UNL     1       4.344   8.420  17.844  0.00  0.00    +0.000 NA
ATOM     17  H   UNL     1       4.720   7.982  17.003  0.00  0.00    +0.000 HD
ATOM     18  H   UNL     1       5.111   8.463  18.511  0.00  0.00    +0.000 HD
ENDBRANCH   1  16
BRANCH   1  19
ATOM     19  C   UNL     1       3.101   6.110  17.802  0.00  0.00    +0.000 C 
BRANCH  19  20
ATOM     20  C   UNL     1       4.481   5.643  17.245  0.00  0.00    +0.000 A 
ATOM     21  C   UNL     1       4.802   5.606  15.877  0.00  0.00    +0.000 A 
ATOM     22  C   UNL     1       5.982   4.993  15.426  0.00  0.00    +0.000 A 
ATOM     23  C   UNL     1       6.870   4.419  16.335  0.00  0.00    +0.000 A 
ATOM     24  C   UNL     1       6.598   4.474  17.692  0.00  0.00    +0.000 A 
ATOM     25  C   UNL     1       5.426   5.087  18.138  0.00  0.00    +0.000 A 
ENDBRANCH  19  20
BRANCH  19  26
ATOM     26  C   UNL     1       2.259   5.073  18.592  0.00  0.00    +0.000 A 
ATOM     27  C   UNL     1       1.683   3.988  17.895  0.00  0.00    +0.000 A 
ATOM     28  C   UNL     1       0.959   2.978  18.547  0.00  0.00    +0.000 A 
ATOM     29  C   UNL     1       0.795   3.020  19.926  0.00  0.00    +0.000 A 
ATOM     30  C   UNL     1       1.318   4.096  20.638  0.00  0.00    +0.000 A 
ATOM     31  C   UNL     1       2.021   5.119  19.977  0.00  0.00    +0.000 A 
ENDBRANCH  19  26
ENDBRANCH   1  19
TORSDOF 8
ENDMDL
MODEL 4
REMARK VINA RESULT:      -8.1      0.529      1.051
REMARK  Name = 
REMARK  9 active torsions:
REMARK  status: ('A' for Active; 'I' for Inactive)
REMARK    1  A    between atoms: C_1  and  C_2
REMARK    2  A    between atoms: C_2  and  C_3
REMARK    3  A    between atoms: C_3  and  N_4
REMARK    4  A    between atoms: C_5  and  C_7
REMARK    5  A    between atoms: C_12  and  C_14
REMARK    6  A    between atoms: C_14  and  N_15
REMARK    7  A    between atoms: C_14  and  C_16
REMARK    8  A    between atoms: C_16  and  C_17
REMARK    9  A    between atoms: C_16  and  C_23
REMARK                            x       y       z     vdW  Elec       q    Type
REMARK                         _______ _______ _______ _____ _____    ______ ____
ROOT
ATOM      1  C   UNL     1       4.292   3.977  16.620  0.00  0.00    +0.000 C 
ENDROOT
BRANCH   1   7
ATOM      2  C   UNL     1       1.468   4.465  19.303  0.00  0.00    +0.000 C 
ATOM      3  C   UNL     1       0.843   3.195  19.923  0.00  0.00    +0.000 C 
ATOM      4  C   UNL     1       0.976   2.094  18.875  0.00  0.00    +0.000 C 
ATOM      5  C   UNL     1       2.048   2.589  17.915  0.00  0.00    +0.000 C 
ATOM      6  N   UNL     1       2.494   3.884  18.406  0.00  0.00    +0.000 N 
ATOM      7  C   UNL     1       3.436   4.640  17.726  0.00  0.00    +0.000 C 
ATOM      8  O   UNL     1       3.633   5.819  18.013  0.00  0.00    +0.000 OA
BRANCH   2  10
ATOM      9  N   UNL     1       1.379   6.807  20.193  0.00  0.00    +0.000 N 
ATOM     10  C   UNL     1       1.815   5.521  20.429  0.00  0.00    +0.000 C 
ATOM     11  O   UNL     1       2.285   5.184  21.518  0.00  0.00    +0.000 OA
ATOM     12  H   UNL     1       1.037   7.000  19.253  0.00  0.00    +0.000 HD
BRANCH   9  13
ATOM     13  C   UNL     1       1.591   7.952  21.047  0.00  0.00    +0.000 C 
BRANCH  13  15
ATOM     14  C   UNL     1      -0.340   9.646  20.573  0.00  0.00    +0.000 C 
ATOM     15  C   UNL     1       1.136   9.290  20.437  0.00  0.00    +0.000 C 
ENDBRANCH  13  15
ENDBRANCH   9  13
ENDBRANCH   2  10
ENDBRANCH   1   7
BRANCH   1  16
ATOM     16  N   UNL     1       4.951   2.765  17.156  0.00  0.00    +0.000 NA
ATOM     17  H   UNL     1       4.275   2.227  17.699  0.00  0.00    +0.000 HD
ATOM     18  H   UNL     1       5.689   3.031  17.802  0.00  0.00    +0.000 HD
ENDBRANCH   1  16
BRANCH   1  19
ATOM     19  C   UNL     1       5.210   5.043  15.882  0.00  0.00    +0.000 C 
BRANCH  19  20
ATOM     20  C   UNL     1       6.147   5.715  16.932  0.00  0.00    +0.000 A 
ATOM     21  C   UNL     1       6.416   7.094  16.972  0.00  0.00    +0.000 A 
ATOM     22  C   UNL     1       7.417   7.613  17.810  0.00  0.00    +0.000 A 
ATOM     23  C   UNL     1       8.156   6.765  18.634  0.00  0.00    +0.000 A 
ATOM     24  C   UNL     1       7.886   5.406  18.642  0.00  0.00    +0.000 A 
ATOM     25  C   UNL     1       6.889   4.894  17.810  0.00  0.00    +0.000 A 
ENDBRANCH  19  20
BRANCH  19  26
ATOM     26  C   UNL     1       5.823   4.678  14.504  0.00  0.00    +0.000 A 
ATOM     27  C   UNL     1       7.063   5.247  14.136  0.00  0.00    +0.000 A 
ATOM     28  C   UNL     1       7.710   4.920  12.934  0.00  0.00    +0.000 A 
ATOM     29  C   UNL     1       7.135   4.004  12.062  0.00  0.00    +0.000 A 
ATOM     30  C   UNL     1       5.896   3.453  12.377  0.00  0.00    +0.000 A 
ATOM     31  C   UNL     1       5.239   3.803  13.571  0.00  0.00    +0.000 A 
ENDBRANCH  19  26
ENDBRANCH   1  19
TORSDOF 8
ENDMDL
MODEL 5
REMARK VINA RESULT:      -7.8      3.050      5.786
REMARK  Name = 
REMARK  9 active torsions:
REMARK  status: ('A' for Active; 'I' for Inactive)
REMARK    1  A    between atoms: C_1  and  C_2
REMARK    2  A    between atoms: C_2  and  C_3
REMARK    3  A    between atoms: C_3  and  N_4
REMARK    4  A    between atoms: C_5  and  C_7
REMARK    5  A    between atoms: C_12  and  C_14
REMARK    6  A    between atoms: C_14  and  N_15
REMARK    7  A    between atoms: C_14  and  C_16
REMARK    8  A    between atoms: C_16  and  C_17
REMARK    9  A    between atoms: C_16  and  C_23
REMARK                            x       y       z     vdW  Elec       q    Type
REMARK                         _______ _______ _______ _____ _____    ______ ____
ROOT
ATOM      1  C   UNL     1       3.744   7.124  18.296  0.00  0.00    +0.000 C 
ENDROOT
BRANCH   1   7
ATOM      2  C   UNL     1       0.486   9.049  19.342  0.00  0.00    +0.000 C 
ATOM      3  C   UNL     1       0.276   9.334  20.846  0.00  0.00    +0.000 C 
ATOM      4  C   UNL     1       1.008   8.228  21.601  0.00  0.00    +0.000 C 
ATOM      5  C   UNL     1       1.979   7.636  20.590  0.00  0.00    +0.000 C 
ATOM      6  N   UNL     1       1.806   8.376  19.349  0.00  0.00    +0.000 N 
ATOM      7  C   UNL     1       2.508   8.050  18.199  0.00  0.00    +0.000 C 
ATOM      8  O   UNL     1       2.191   8.518  17.106  0.00  0.00    +0.000 OA
BRANCH   2  10
ATOM      9  N   UNL     1      -1.101  10.472  18.023  0.00  0.00    +0.000 N 
ATOM     10  C   UNL     1       0.191  10.344  18.483  0.00  0.00    +0.000 C 
ATOM     11  O   UNL     1       1.011  11.261  18.381  0.00  0.00    +0.000 OA
ATOM     12  H   UNL     1      -1.696   9.651  18.121  0.00  0.00    +0.000 HD
BRANCH   9  13
ATOM     13  C   UNL     1      -1.615  11.542  17.200  0.00  0.00    +0.000 C 
BRANCH  13  15
ATOM     14  C   UNL     1      -2.799   9.767  15.693  0.00  0.00    +0.000 C 
ATOM     15  C   UNL     1      -2.825  11.150  16.335  0.00  0.00    +0.000 C 
ENDBRANCH  13  15
ENDBRANCH   9  13
ENDBRANCH   2  10
ENDBRANCH   1   7
BRANCH   1  16
ATOM     16  N   UNL     1       4.940   7.830  17.785  0.00  0.00    +0.000 NA
ATOM     17  H   UNL     1       5.652   7.857  18.515  0.00  0.00    +0.000 HD
ATOM     18  H   UNL     1       4.706   8.798  17.579  0.00  0.00    +0.000 HD
ENDBRANCH   1  16
BRANCH   1  19
ATOM     19  C   UNL     1       3.435   5.683  17.702  0.00  0.00    +0.000 C 
BRANCH  19  20
ATOM     20  C   UNL     1       4.724   5.132  17.018  0.00  0.00    +0.000 A 
ATOM     21  C   UNL     1       5.886   4.764  17.718  0.00  0.00    +0.000 A 
ATOM     22  C   UNL     1       7.077   4.463  17.038  0.00  0.00    +0.000 A 
ATOM     23  C   UNL     1       7.125   4.511  15.645  0.00  0.00    +0.000 A 
ATOM     24  C   UNL     1       5.984   4.834  14.928  0.00  0.00    +0.000 A 
ATOM     25  C   UNL     1       4.801   5.130  15.606  0.00  0.00    +0.000 A 
ENDBRANCH  19  20
BRANCH  19  26
ATOM     26  C   UNL     1       2.591   4.690  18.545  0.00  0.00    +0.000 A 
ATOM     27  C   UNL     1       2.901   4.522  19.913  0.00  0.00    +0.000 A 
ATOM     28  C   UNL     1       2.148   3.688  20.755  0.00  0.00    +0.000 A 
ATOM     29  C   UNL     1       1.052   2.999  20.250  0.00  0.00    +0.000 A 
ATOM     30  C   UNL     1       0.742   3.114  18.898  0.00  0.00    +0.000 A 
ATOM     31  C   UNL     1       1.516   3.931  18.053  0.00  0.00    +0.000 A 
ENDBRANCH  19  26
ENDBRANCH   1  19
TORSDOF 8
ENDMDL
MODEL 6
REMARK VINA RESULT:      -7.7      2.878      5.511
REMARK  Name = 
REMARK  9 active torsions:
REMARK  status: ('A' for Active; 'I' for Inactive)
REMARK    1  A    between atoms: C_1  and  C_2
REMARK    2  A    between atoms: C_2  and  C_3
REMARK    3  A    between atoms: C_3  and  N_4
REMARK    4  A    between atoms: C_5  and  C_7
REMARK    5  A    between atoms: C_12  and  C_14
REMARK    6  A    between atoms: C_14  and  N_15
REMARK    7  A    between atoms: C_14  and  C_16
REMARK    8  A    between atoms: C_16  and  C_17
REMARK    9  A    between atoms: C_16  and  C_23
REMARK                            x       y       z     vdW  Elec       q    Type
REMARK                         _______ _______ _______ _____ _____    ______ ____
ROOT
ATOM      1  C   UNL     1       2.623   6.437  18.484  0.00  0.00    +0.000 C 
ENDROOT
BRANCH   1   7
ATOM      2  C   UNL     1       1.232   9.726  20.114  0.00  0.00    +0.000 C 
ATOM      3  C   UNL     1       0.787  10.862  19.165  0.00  0.00    +0.000 C 
ATOM      4  C   UNL     1       1.618  10.712  17.894  0.00  0.00    +0.000 C 
ATOM      5  C   UNL     1       2.147   9.285  17.934  0.00  0.00    +0.000 C 
ATOM      6  N   UNL     1       1.632   8.675  19.151  0.00  0.00    +0.000 N 
ATOM      7  C   UNL     1       1.972   7.383  19.522  0.00  0.00    +0.000 C 
ATOM      8  O   UNL     1       1.729   6.960  20.651  0.00  0.00    +0.000 OA
BRANCH   2  10
ATOM      9  N   UNL     1      -0.093  10.558  22.073  0.00  0.00    +0.000 N 
ATOM     10  C   UNL     1       0.147   9.487  21.241  0.00  0.00    +0.000 C 
ATOM     11  O   UNL     1      -0.559   8.475  21.263  0.00  0.00    +0.000 OA
ATOM     12  H   UNL     1       0.563  11.334  22.006  0.00  0.00    +0.000 HD
BRANCH   9  13
ATOM     13  C   UNL     1      -1.009  10.586  23.189  0.00  0.00    +0.000 C 
BRANCH  13  15
ATOM     14  C   UNL     1      -1.530  13.146  23.219  0.00  0.00    +0.000 C 
ATOM     15  C   UNL     1      -2.052  11.716  23.124  0.00  0.00    +0.000 C 
ENDBRANCH  13  15
ENDBRANCH   9  13
ENDBRANCH   2  10
ENDBRANCH   1   7
BRANCH   1  16
ATOM     16  N   UNL     1       1.569   5.711  17.739  0.00  0.00    +0.000 NA
ATOM     17  H   UNL     1       1.015   5.158  18.393  0.00  0.00    +0.000 HD
ATOM     18  H   UNL     1       1.996   5.050  17.095  0.00  0.00    +0.000 HD
ENDBRANCH   1  16
BRANCH   1  19
ATOM     19  C   UNL     1       3.785   5.573  19.137  0.00  0.00    +0.000 C 
BRANCH  19  20
ATOM     20  C   UNL     1       3.338   4.080  19.185  0.00  0.00    +0.000 A 
ATOM     21  C   UNL     1       3.703   3.121  18.224  0.00  0.00    +0.000 A 
ATOM     22  C   UNL     1       3.113   1.847  18.210  0.00  0.00    +0.000 A 
ATOM     23  C   UNL     1       2.159   1.502  19.166  0.00  0.00    +0.000 A 
ATOM     24  C   UNL     1       1.808   2.414  20.149  0.00  0.00    +0.000 A 
ATOM     25  C   UNL     1       2.398   3.679  20.161  0.00  0.00    +0.000 A 
ENDBRANCH  19  20
BRANCH  19  26
ATOM     26  C   UNL     1       5.255   5.868  18.734  0.00  0.00    +0.000 A 
ATOM     27  C   UNL     1       5.503   6.690  17.612  0.00  0.00    +0.000 A 
ATOM     28  C   UNL     1       6.802   7.050  17.221  0.00  0.00    +0.000 A 
ATOM     29  C   UNL     1       7.897   6.603  17.950  0.00  0.00    +0.000 A 
ATOM     30  C   UNL     1       7.688   5.761  19.039  0.00  0.00    +0.000 A 
ATOM     31  C   UNL     1       6.386   5.381  19.411  0.00  0.00    +0.000 A 
ENDBRANCH  19  26
ENDBRANCH   1  19
TORSDOF 8
ENDMDL
MODEL 7
REMARK VINA RESULT:      -7.7      0.850      1.331
REMARK  Name = 
REMARK  9 active torsions:
REMARK  status: ('A' for Active; 'I' for Inactive)
REMARK    1  A    between atoms: C_1  and  C_2
REMARK    2  A    between atoms: C_2  and  C_3
REMARK    3  A    between atoms: C_3  and  N_4
REMARK    4  A    between atoms: C_5  and  C_7
REMARK    5  A    between atoms: C_12  and  C_14
REMARK    6  A    between atoms: C_14  and  N_15
REMARK    7  A    between atoms: C_14  and  C_16
REMARK    8  A    between atoms: C_16  and  C_17
REMARK    9  A    between atoms: C_16  and  C_23
REMARK                            x       y       z     vdW  Elec       q    Type
REMARK                         _______ _______ _______ _____ _____    ______ ____
ROOT
ATOM      1  C   UNL     1       5.241   4.362  17.210  0.00  0.00    +0.000 C 
ENDROOT
BRANCH   1   7
ATOM      2  C   UNL     1       1.809   4.821  19.059  0.00  0.00    +0.000 C 
ATOM      3  C   UNL     1       1.027   3.544  19.443  0.00  0.00    +0.000 C 
ATOM      4  C   UNL     1       1.422   2.475  18.429  0.00  0.00    +0.000 C 
ATOM      5  C   UNL     1       2.717   2.978  17.808  0.00  0.00    +0.000 C 
ATOM      6  N   UNL     1       3.030   4.248  18.448  0.00  0.00    +0.000 N 
ATOM      7  C   UNL     1       4.128   5.006  18.071  0.00  0.00    +0.000 C 
ATOM      8  O   UNL     1       4.255   6.172  18.444  0.00  0.00    +0.000 OA
BRANCH   2  10
ATOM      9  N   UNL     1       1.565   7.144  19.968  0.00  0.00    +0.000 N 
ATOM     10  C   UNL     1       1.854   5.832  20.275  0.00  0.00    +0.000 C 
ATOM     11  O   UNL     1       1.965   5.447  21.442  0.00  0.00    +0.000 OA
ATOM     12  H   UNL     1       1.526   7.375  18.977  0.00  0.00    +0.000 HD
BRANCH   9  13
ATOM     13  C   UNL     1       1.566   8.258  20.888  0.00  0.00    +0.000 C 
BRANCH  13  15
ATOM     14  C   UNL     1       0.282   9.938  19.354  0.00  0.00    +0.000 C 
ATOM     15  C   UNL     1       0.390   9.233  20.702  0.00  0.00    +0.000 C 
ENDBRANCH  13  15
ENDBRANCH   9  13
ENDBRANCH   2  10
ENDBRANCH   1   7
BRANCH   1  16
ATOM     16  N   UNL     1       6.145   3.569  18.072  0.00  0.00    +0.000 NA
ATOM     17  H   UNL     1       6.826   4.190  18.509  0.00  0.00    +0.000 HD
ATOM     18  H   UNL     1       6.678   2.915  17.503  0.00  0.00    +0.000 HD
ENDBRANCH   1  16
BRANCH   1  19
ATOM     19  C   UNL     1       5.906   5.425  16.235  0.00  0.00    +0.000 C 
BRANCH  19  20
ATOM     20  C   UNL     1       6.905   6.303  17.050  0.00  0.00    +0.000 A 
ATOM     21  C   UNL     1       7.623   5.840  18.167  0.00  0.00    +0.000 A 
ATOM     22  C   UNL     1       8.354   6.725  18.976  0.00  0.00    +0.000 A 
ATOM     23  C   UNL     1       8.393   8.086  18.675  0.00  0.00    +0.000 A 
ATOM     24  C   UNL     1       7.726   8.564  17.558  0.00  0.00    +0.000 A 
ATOM     25  C   UNL     1       7.003   7.681  16.754  0.00  0.00    +0.000 A 
ENDBRANCH  19  20
BRANCH  19  26
ATOM     26  C   UNL     1       6.344   4.971  14.817  0.00  0.00    +0.000 A 
ATOM     27  C   UNL     1       5.540   4.042  14.119  0.00  0.00    +0.000 A 
ATOM     28  C   UNL     1       5.837   3.628  12.811  0.00  0.00    +0.000 A 
ATOM     29  C   UNL     1       6.950   4.140  12.157  0.00  0.00    +0.000 A 
ATOM     30  C   UNL     1       7.784   5.028  12.830  0.00  0.00    +0.000 A 
ATOM     31  C   UNL     1       7.497   5.420  14.150  0.00  0.00    +0.000 A 
ENDBRANCH  19  26
ENDBRANCH   1  19
TORSDOF 8
ENDMDL
MODEL 8
REMARK VINA RESULT:      -7.7      1.101      1.468
REMARK  Name = 
REMARK  9 active torsions:
REMARK  status: ('A' for Active; 'I' for Inactive)
REMARK    1  A    between atoms: C_1  and  C_2
REMARK    2  A    between atoms: C_2  and  C_3
REMARK    3  A    between atoms: C_3  and  N_4
REMARK    4  A    between atoms: C_5  and  C_7
REMARK    5  A    between atoms: C_12  and  C_14
REMARK    6  A    between atoms: C_14  and  N_15
REMARK    7  A    between atoms: C_14  and  C_16
REMARK    8  A    between atoms: C_16  and  C_17
REMARK    9  A    between atoms: C_16  and  C_23
REMARK                            x       y       z     vdW  Elec       q    Type
REMARK                         _______ _______ _______ _____ _____    ______ ____
ROOT
ATOM      1  C   UNL     1       4.593   4.396  16.717  0.00  0.00    +0.000 C 
ENDROOT
BRANCH   1   7
ATOM      2  C   UNL     1       2.042   5.415  19.522  0.00  0.00    +0.000 C 
ATOM      3  C   UNL     1       2.039   4.580  20.823  0.00  0.00    +0.000 C 
ATOM      4  C   UNL     1       2.520   3.184  20.440  0.00  0.00    +0.000 C 
ATOM      5  C   UNL     1       3.217   3.360  19.099  0.00  0.00    +0.000 C 
ATOM      6  N   UNL     1       3.139   4.773  18.761  0.00  0.00    +0.000 N 
ATOM      7  C   UNL     1       3.634   5.268  17.565  0.00  0.00    +0.000 C 
ATOM      8  O   UNL     1       3.360   6.404  17.183  0.00  0.00    +0.000 OA
BRANCH   2  10
ATOM      9  N   UNL     1       1.484   7.302  21.076  0.00  0.00    +0.000 N 
ATOM     10  C   UNL     1       2.022   6.962  19.853  0.00  0.00    +0.000 C 
ATOM     11  O   UNL     1       2.605   7.789  19.147  0.00  0.00    +0.000 OA
ATOM     12  H   UNL     1       0.993   6.560  21.572  0.00  0.00    +0.000 HD
BRANCH   9  13
ATOM     13  C   UNL     1       1.326   8.639  21.599  0.00  0.00    +0.000 C 
BRANCH  13  15
ATOM     14  C   UNL     1      -0.370  10.390  22.538  0.00  0.00    +0.000 C 
ATOM     15  C   UNL     1      -0.086   8.950  22.125  0.00  0.00    +0.000 C 
ENDBRANCH  13  15
ENDBRANCH   9  13
ENDBRANCH   2  10
ENDBRANCH   1   7
BRANCH   1  16
ATOM     16  N   UNL     1       5.116   3.283  17.539  0.00  0.00    +0.000 NA
ATOM     17  H   UNL     1       4.356   2.636  17.753  0.00  0.00    +0.000 HD
ATOM     18  H   UNL     1       5.447   3.640  18.432  0.00  0.00    +0.000 HD
ENDBRANCH   1  16
BRANCH   1  19
ATOM     19  C   UNL     1       5.649   5.290  15.936  0.00  0.00    +0.000 C 
BRANCH  19  20
ATOM     20  C   UNL     1       6.700   5.832  16.953  0.00  0.00    +0.000 A 
ATOM     21  C   UNL     1       7.255   5.064  17.991  0.00  0.00    +0.000 A 
ATOM     22  C   UNL     1       8.043   5.658  18.990  0.00  0.00    +0.000 A 
ATOM     23  C   UNL     1       8.304   7.027  18.961  0.00  0.00    +0.000 A 
ATOM     24  C   UNL     1       7.802   7.802  17.928  0.00  0.00    +0.000 A 
ATOM     25  C   UNL     1       7.021   7.209  16.935  0.00  0.00    +0.000 A 
ENDBRANCH  19  20
BRANCH  19  26
ATOM     26  C   UNL     1       6.170   4.802  14.558  0.00  0.00    +0.000 A 
ATOM     27  C   UNL     1       5.404   3.864  13.831  0.00  0.00    +0.000 A 
ATOM     28  C   UNL     1       5.778   3.420  12.553  0.00  0.00    +0.000 A 
ATOM     29  C   UNL     1       6.934   3.909  11.959  0.00  0.00    +0.000 A 
ATOM     30  C   UNL     1       7.731   4.806  12.664  0.00  0.00    +0.000 A 
ATOM     31  C   UNL     1       7.366   5.228  13.955  0.00  0.00    +0.000 A 
ENDBRANCH  19  26
ENDBRANCH   1  19
TORSDOF 8
ENDMDL
MODEL 9
REMARK VINA RESULT:      -7.6      1.493      3.993
REMARK  Name = 
REMARK  9 active torsions:
REMARK  status: ('A' for Active; 'I' for Inactive)
REMARK    1  A    between atoms: C_1  and  C_2
REMARK    2  A    between atoms: C_2  and  C_3
REMARK    3  A    between atoms: C_3  and  N_4
REMARK    4  A    between atoms: C_5  and  C_7
REMARK    5  A    between atoms: C_12  and  C_14
REMARK    6  A    between atoms: C_14  and  N_15
REMARK    7  A    between atoms: C_14  and  C_16
REMARK    8  A    between atoms: C_16  and  C_17
REMARK    9  A    between atoms: C_16  and  C_23
REMARK                            x       y       z     vdW  Elec       q    Type
REMARK                         _______ _______ _______ _____ _____    ______ ____
ROOT
ATOM      1  C   UNL     1       4.795   3.666  16.670  0.00  0.00    +0.000 C 
ENDROOT
BRANCH   1   7
ATOM      2  C   UNL     1       2.004   5.499  18.736  0.00  0.00    +0.000 C 
ATOM      3  C   UNL     1       1.498   4.809  20.023  0.00  0.00    +0.000 C 
ATOM      4  C   UNL     1       1.693   3.310  19.814  0.00  0.00    +0.000 C 
ATOM      5  C   UNL     1       2.699   3.197  18.678  0.00  0.00    +0.000 C 
ATOM      6  N   UNL     1       3.052   4.553  18.285  0.00  0.00    +0.000 N 
ATOM      7  C   UNL     1       3.914   4.809  17.231  0.00  0.00    +0.000 C 
ATOM      8  O   UNL     1       4.024   5.939  16.757  0.00  0.00    +0.000 OA
BRANCH   2  10
ATOM      9  N   UNL     1       2.087   7.871  17.929  0.00  0.00    +0.000 N 
ATOM     10  C   UNL     1       2.292   7.032  19.002  0.00  0.00    +0.000 C 
ATOM     11  O   UNL     1       2.512   7.467  20.136  0.00  0.00    +0.000 OA
ATOM     12  H   UNL     1       1.945   7.420  17.027  0.00  0.00    +0.000 HD
BRANCH   9  13
ATOM     13  C   UNL     1       2.303   9.299  17.906  0.00  0.00    +0.000 C 
BRANCH  13  15
ATOM     14  C   UNL     1      -0.204   9.999  18.128  0.00  0.00    +0.000 C 
ATOM     15  C   UNL     1       1.226  10.113  18.644  0.00  0.00    +0.000 C 
ENDBRANCH  13  15
ENDBRANCH   9  13
ENDBRANCH   2  10
ENDBRANCH   1   7
BRANCH   1  16
ATOM     16  N   UNL     1       4.702   2.483  17.555  0.00  0.00    +0.000 NA
ATOM     17  H   UNL     1       3.894   2.584  18.168  0.00  0.00    +0.000 HD
ATOM     18  H   UNL     1       5.518   2.442  18.161  0.00  0.00    +0.000 HD
ENDBRANCH   1  16
BRANCH   1  19
ATOM     19  C   UNL     1       6.247   4.187  16.293  0.00  0.00    +0.000 C 
BRANCH  19  20
ATOM     20  C   UNL     1       6.359   4.288  14.740  0.00  0.00    +0.000 A 
ATOM     21  C   UNL     1       5.543   3.572  13.847  0.00  0.00    +0.000 A 
ATOM     22  C   UNL     1       5.819   3.552  12.471  0.00  0.00    +0.000 A 
ATOM     23  C   UNL     1       6.906   4.259  11.959  0.00  0.00    +0.000 A 
ATOM     24  C   UNL     1       7.704   5.005  12.811  0.00  0.00    +0.000 A 
ATOM     25  C   UNL     1       7.427   5.025  14.179  0.00  0.00    +0.000 A 
ENDBRANCH  19  20
BRANCH  19  26
ATOM     26  C   UNL     1       6.874   5.332  17.132  0.00  0.00    +0.000 A 
ATOM     27  C   UNL     1       7.383   5.037  18.416  0.00  0.00    +0.000 A 
ATOM     28  C   UNL     1       8.018   6.004  19.211  0.00  0.00    +0.000 A 
ATOM     29  C   UNL     1       8.170   7.301  18.738  0.00  0.00    +0.000 A 
ATOM     30  C   UNL     1       7.647   7.634  17.492  0.00  0.00    +0.000 A 
ATOM     31  C   UNL     1       6.988   6.668  16.710  0.00  0.00    +0.000 A 
ENDBRANCH  19  26
ENDBRANCH   1  19
TORSDOF 8
ENDMDL
