MODEL 1
REMARK VINA RESULT:      -7.3      0.000      0.000
REMARK  Name = 
REMARK  5 active torsions:
REMARK  status: ('A' for Active; 'I' for Inactive)
REMARK    1  A    between atoms: C_1  and  C_2
REMARK    2  A    between atoms: C_2  and  C_3
REMARK    3  A    between atoms: C_3  and  N_4
REMARK    4  A    between atoms: C_7  and  C_8
REMARK    5  A    between atoms: C_12  and  O_13
REMARK                            x       y       z     vdW  Elec       q    Type
REMARK                         _______ _______ _______ _____ _____    ______ ____
ROOT
ATOM      1  N   UNL     1       1.974   3.691  19.676  0.00  0.00    +0.000 NA
ATOM      2  C   UNL     1       0.977   4.127  18.626  0.00  0.00    +0.000 C 
ATOM      3  C   UNL     1       1.682   4.614  17.228  0.00  0.00    +0.000 C 
ATOM      4  C   UNL     1       3.119   4.872  17.659  0.00  0.00    +0.000 C 
ATOM      5  C   UNL     1       3.067   3.107  17.785  0.00  0.00    +0.000 C 
ATOM      6  C   UNL     1       3.062   2.792  19.244  0.00  0.00    +0.000 C 
ATOM      7  C   UNL     1       4.598   2.896  19.522  0.00  0.00    +0.000 C 
ATOM      8  C   UNL     1       5.263   3.957  18.654  0.00  0.00    +0.000 A 
ATOM      9  N   UNL     1       6.614   4.092  18.526  0.00  0.00    +0.000 N 
ATOM     10  C   UNL     1       6.865   5.385  18.156  0.00  0.00    +0.000 A 
ATOM     11  C   UNL     1       8.043   6.128  18.318  0.00  0.00    +0.000 A 
ATOM     12  C   UNL     1       7.982   7.496  18.084  0.00  0.00    +0.000 A 
ATOM     13  C   UNL     1       6.804   8.067  17.611  0.00  0.00    +0.000 A 
ATOM     14  C   UNL     1       5.658   7.264  17.342  0.00  0.00    +0.000 A 
ATOM     15  C   UNL     1       5.660   5.903  17.659  0.00  0.00    +0.000 A 
ATOM     16  C   UNL     1       4.636   4.882  17.794  0.00  0.00    +0.000 A 
ATOM     17  H   UNL     1       7.310   3.465  18.906  0.00  0.00    +0.000 HD
ENDROOT
BRANCH   4  18
ATOM     18  C   UNL     1       2.808   6.227  18.388  0.00  0.00    +0.000 A 
ATOM     19  C   UNL     1       2.732   6.437  19.769  0.00  0.00    +0.000 A 
ATOM     20  C   UNL     1       2.117   7.588  20.282  0.00  0.00    +0.000 A 
ATOM     21  C   UNL     1       1.625   8.582  19.433  0.00  0.00    +0.000 A 
ATOM     22  C   UNL     1       1.849   8.469  18.074  0.00  0.00    +0.000 A 
ATOM     23  C   UNL     1       2.478   7.341  17.562  0.00  0.00    +0.000 A 
BRANCH  22  24
ATOM     24  O   UNL     1       1.419   9.409  17.186  0.00  0.00    +0.000 OA
ATOM     25  H   UNL     1       0.802   8.989  16.566  0.00  0.00    +0.000 HD
ENDBRANCH  22  24
ENDBRANCH   4  18
BRANCH   1  26
ATOM     26  C   UNL     1       1.568   3.755  21.067  0.00  0.00    +0.000 C 
BRANCH  26  28
ATOM     27  C   UNL     1       0.918   1.907  22.647  0.00  0.00    +0.000 C 
ATOM     28  C   UNL     1       2.066   2.590  21.915  0.00  0.00    +0.000 C 
ENDBRANCH  26  28
ENDBRANCH   1  26
TORSDOF 4
ENDMDL
MODEL 2
REMARK VINA RESULT:      -6.7     10.563     12.963
REMARK  Name = 
REMARK  5 active torsions:
REMARK  status: ('A' for Active; 'I' for Inactive)
REMARK    1  A    between atoms: C_1  and  C_2
REMARK    2  A    between atoms: C_2  and  C_3
REMARK    3  A    between atoms: C_3  and  N_4
REMARK    4  A    between atoms: C_7  and  C_8
REMARK    5  A    between atoms: C_12  and  O_13
REMARK                            x       y       z     vdW  Elec       q    Type
REMARK                         _______ _______ _______ _____ _____    ______ ____
ROOT
ATOM      1  N   UNL     1      -2.462  14.684  22.925  0.00  0.00    +0.000 NA
ATOM      2  C   UNL     1      -2.941  14.006  24.189  0.00  0.00    +0.000 C 
ATOM      3  C   UNL     1      -3.628  12.542  23.919  0.00  0.00    +0.000 C 
ATOM      4  C   UNL     1      -3.938  12.598  22.428  0.00  0.00    +0.000 C 
ATOM      5  C   UNL     1      -2.170  12.509  22.378  0.00  0.00    +0.000 C 
ATOM      6  C   UNL     1      -1.696  13.863  21.967  0.00  0.00    +0.000 C 
ATOM      7  C   UNL     1      -1.876  13.726  20.419  0.00  0.00    +0.000 C 
ATOM      8  C   UNL     1      -3.071  12.852  20.061  0.00  0.00    +0.000 A 
ATOM      9  N   UNL     1      -3.314  12.382  18.803  0.00  0.00    +0.000 N 
ATOM     10  C   UNL     1      -4.655  12.123  18.713  0.00  0.00    +0.000 A 
ATOM     11  C   UNL     1      -5.457  12.053  17.566  0.00  0.00    +0.000 A 
ATOM     12  C   UNL     1      -6.835  12.019  17.739  0.00  0.00    +0.000 A 
ATOM     13  C   UNL     1      -7.370  11.958  19.023  0.00  0.00    +0.000 A 
ATOM     14  C   UNL     1      -6.523  11.910  20.168  0.00  0.00    +0.000 A 
ATOM     15  C   UNL     1      -5.139  12.041  20.027  0.00  0.00    +0.000 A 
ATOM     16  C   UNL     1      -4.039  12.318  20.936  0.00  0.00    +0.000 A 
ATOM     17  H   UNL     1      -2.700  12.477  18.007  0.00  0.00    +0.000 HD
ENDROOT
BRANCH   4  18
ATOM     18  C   UNL     1      -5.178  13.549  22.576  0.00  0.00    +0.000 A 
ATOM     19  C   UNL     1      -5.369  14.781  21.941  0.00  0.00    +0.000 A 
ATOM     20  C   UNL     1      -6.335  15.681  22.410  0.00  0.00    +0.000 A 
ATOM     21  C   UNL     1      -7.175  15.348  23.476  0.00  0.00    +0.000 A 
ATOM     22  C   UNL     1      -7.114  14.070  23.998  0.00  0.00    +0.000 A 
ATOM     23  C   UNL     1      -6.173  13.167  23.522  0.00  0.00    +0.000 A 
BRANCH  22  24
ATOM     24  O   UNL     1      -7.916  13.665  25.022  0.00  0.00    +0.000 OA
ATOM     25  H   UNL     1      -7.716  14.206  25.804  0.00  0.00    +0.000 HD
ENDBRANCH  22  24
ENDBRANCH   4  18
BRANCH   1  26
ATOM     26  C   UNL     1      -2.342  16.129  22.933  0.00  0.00    +0.000 C 
BRANCH  26  28
ATOM     27  C   UNL     1      -3.522  18.219  23.691  0.00  0.00    +0.000 C 
ATOM     28  C   UNL     1      -3.087  16.810  24.075  0.00  0.00    +0.000 C 
ENDBRANCH  26  28
ENDBRANCH   1  26
TORSDOF 4
ENDMDL
MODEL 3
REMARK VINA RESULT:      -6.6      9.750     11.063
REMARK  Name = 
REMARK  5 active torsions:
REMARK  status: ('A' for Active; 'I' for Inactive)
REMARK    1  A    between atoms: C_1  and  C_2
REMARK    2  A    between atoms: C_2  and  C_3
REMARK    3  A    between atoms: C_3  and  N_4
REMARK    4  A    between atoms: C_7  and  C_8
REMARK    5  A    between atoms: C_12  and  O_13
REMARK                            x       y       z     vdW  Elec       q    Type
REMARK                         _______ _______ _______ _____ _____    ______ ____
ROOT
ATOM      1  N   UNL     1       5.979  15.589  20.130  0.00  0.00    +0.000 NA
ATOM      2  C   UNL     1       6.519  16.724  20.969  0.00  0.00    +0.000 C 
ATOM      3  C   UNL     1       8.104  17.038  20.691  0.00  0.00    +0.000 C 
ATOM      4  C   UNL     1       8.573  15.763  20.001  0.00  0.00    +0.000 C 
ATOM      5  C   UNL     1       7.539  16.444  18.734  0.00  0.00    +0.000 C 
ATOM      6  C   UNL     1       6.315  15.592  18.692  0.00  0.00    +0.000 C 
ATOM      7  C   UNL     1       6.858  14.426  17.802  0.00  0.00    +0.000 C 
ATOM      8  C   UNL     1       8.339  14.166  18.047  0.00  0.00    +0.000 A 
ATOM      9  N   UNL     1       9.111  13.373  17.249  0.00  0.00    +0.000 N 
ATOM     10  C   UNL     1      10.166  12.934  18.002  0.00  0.00    +0.000 A 
ATOM     11  C   UNL     1      10.964  11.798  17.808  0.00  0.00    +0.000 A 
ATOM     12  C   UNL     1      11.819  11.425  18.838  0.00  0.00    +0.000 A 
ATOM     13  C   UNL     1      11.929  12.225  19.972  0.00  0.00    +0.000 A 
ATOM     14  C   UNL     1      11.190  13.438  20.086  0.00  0.00    +0.000 A 
ATOM     15  C   UNL     1      10.253  13.788  19.111  0.00  0.00    +0.000 A 
ATOM     16  C   UNL     1       9.163  14.745  19.035  0.00  0.00    +0.000 A 
ATOM     17  H   UNL     1       8.822  12.954  16.376  0.00  0.00    +0.000 HD
ENDROOT
BRANCH   4  18
ATOM     18  C   UNL     1       8.609  14.898  21.309  0.00  0.00    +0.000 A 
ATOM     19  C   UNL     1       8.023  13.641  21.499  0.00  0.00    +0.000 A 
ATOM     20  C   UNL     1       7.830  13.133  22.791  0.00  0.00    +0.000 A 
ATOM     21  C   UNL     1       8.274  13.833  23.916  0.00  0.00    +0.000 A 
ATOM     22  C   UNL     1       9.007  14.991  23.734  0.00  0.00    +0.000 A 
ATOM     23  C   UNL     1       9.221  15.486  22.454  0.00  0.00    +0.000 A 
BRANCH  22  24
ATOM     24  O   UNL     1       9.493  15.714  24.781  0.00  0.00    +0.000 OA
ATOM     25  H   UNL     1      10.032  15.129  25.338  0.00  0.00    +0.000 HD
ENDBRANCH  22  24
ENDBRANCH   4  18
BRANCH   1  26
ATOM     26  C   UNL     1       4.820  14.870  20.623  0.00  0.00    +0.000 C 
BRANCH  26  28
ATOM     27  C   UNL     1       3.189  15.644  22.377  0.00  0.00    +0.000 C 
ATOM     28  C   UNL     1       4.566  15.047  22.116  0.00  0.00    +0.000 C 
ENDBRANCH  26  28
ENDBRANCH   1  26
TORSDOF 4
ENDMDL
MODEL 4
REMARK VINA RESULT:      -6.6      6.879      9.794
REMARK  Name = 
REMARK  5 active torsions:
REMARK  status: ('A' for Active; 'I' for Inactive)
REMARK    1  A    between atoms: C_1  and  C_2
REMARK    2  A    between atoms: C_2  and  C_3
REMARK    3  A    between atoms: C_3  and  N_4
REMARK    4  A    between atoms: C_7  and  C_8
REMARK    5  A    between atoms: C_12  and  O_13
REMARK                            x       y       z     vdW  Elec       q    Type
REMARK                         _______ _______ _______ _____ _____    ______ ____
ROOT
ATOM      1  N   UNL     1       0.259  10.892  20.017  0.00  0.00    +0.000 NA
ATOM      2  C   UNL     1      -1.148  10.487  19.640  0.00  0.00    +0.000 C 
ATOM      3  C   UNL     1      -1.987  11.680  18.891  0.00  0.00    +0.000 C 
ATOM      4  C   UNL     1      -1.180  12.921  19.251  0.00  0.00    +0.000 C 
ATOM      5  C   UNL     1      -0.050  12.123  18.146  0.00  0.00    +0.000 C 
ATOM      6  C   UNL     1       1.058  11.593  18.993  0.00  0.00    +0.000 C 
ATOM      7  C   UNL     1       1.909  12.898  19.127  0.00  0.00    +0.000 C 
ATOM      8  C   UNL     1       1.036  14.146  19.159  0.00  0.00    +0.000 A 
ATOM      9  N   UNL     1       1.524  15.414  19.036  0.00  0.00    +0.000 N 
ATOM     10  C   UNL     1       0.623  16.260  19.624  0.00  0.00    +0.000 A 
ATOM     11  C   UNL     1       0.840  17.545  20.142  0.00  0.00    +0.000 A 
ATOM     12  C   UNL     1      -0.170  18.113  20.908  0.00  0.00    +0.000 A 
ATOM     13  C   UNL     1      -1.384  17.446  21.058  0.00  0.00    +0.000 A 
ATOM     14  C   UNL     1      -1.615  16.194  20.420  0.00  0.00    +0.000 A 
ATOM     15  C   UNL     1      -0.585  15.556  19.724  0.00  0.00    +0.000 A 
ATOM     16  C   UNL     1      -0.371  14.210  19.220  0.00  0.00    +0.000 A 
ATOM     17  H   UNL     1       2.480  15.662  18.823  0.00  0.00    +0.000 HD
ENDROOT
BRANCH   4  18
ATOM     18  C   UNL     1      -1.696  13.002  20.731  0.00  0.00    +0.000 A 
ATOM     19  C   UNL     1      -0.913  13.079  21.888  0.00  0.00    +0.000 A 
ATOM     20  C   UNL     1      -1.470  12.800  23.144  0.00  0.00    +0.000 A 
ATOM     21  C   UNL     1      -2.829  12.506  23.283  0.00  0.00    +0.000 A 
ATOM     22  C   UNL     1      -3.647  12.598  22.172  0.00  0.00    +0.000 A 
ATOM     23  C   UNL     1      -3.104  12.895  20.929  0.00  0.00    +0.000 A 
BRANCH  22  24
ATOM     24  O   UNL     1      -4.985  12.347  22.234  0.00  0.00    +0.000 OA
ATOM     25  H   UNL     1      -5.383  12.583  21.380  0.00  0.00    +0.000 HD
ENDBRANCH  22  24
ENDBRANCH   4  18
BRANCH   1  26
ATOM     26  C   UNL     1       0.900  10.184  21.108  0.00  0.00    +0.000 C 
BRANCH  26  28
ATOM     27  C   UNL     1      -0.056   9.493  23.331  0.00  0.00    +0.000 C 
ATOM     28  C   UNL     1      -0.012   9.203  21.836  0.00  0.00    +0.000 C 
ENDBRANCH  26  28
ENDBRANCH   1  26
TORSDOF 4
ENDMDL
MODEL 5
REMARK VINA RESULT:      -6.6      8.740     12.245
REMARK  Name = 
REMARK  5 active torsions:
REMARK  status: ('A' for Active; 'I' for Inactive)
REMARK    1  A    between atoms: C_1  and  C_2
REMARK    2  A    between atoms: C_2  and  C_3
REMARK    3  A    between atoms: C_3  and  N_4
REMARK    4  A    between atoms: C_7  and  C_8
REMARK    5  A    between atoms: C_12  and  O_13
REMARK                            x       y       z     vdW  Elec       q    Type
REMARK                         _______ _______ _______ _____ _____    ______ ____
ROOT
ATOM      1  N   UNL     1       9.628  17.467  19.636  0.00  0.00    +0.000 NA
ATOM      2  C   UNL     1      10.407  17.722  20.907  0.00  0.00    +0.000 C 
ATOM      3  C   UNL     1      11.446  16.511  21.284  0.00  0.00    +0.000 C 
ATOM      4  C   UNL     1      10.919  15.356  20.444  0.00  0.00    +0.000 C 
ATOM      5  C   UNL     1      11.567  16.400  19.169  0.00  0.00    +0.000 C 
ATOM      6  C   UNL     1      10.386  16.982  18.466  0.00  0.00    +0.000 C 
ATOM      7  C   UNL     1      10.062  15.791  17.505  0.00  0.00    +0.000 C 
ATOM      8  C   UNL     1      10.376  14.443  18.143  0.00  0.00    +0.000 A 
ATOM      9  N   UNL     1      10.409  13.268  17.451  0.00  0.00    +0.000 N 
ATOM     10  C   UNL     1      10.182  12.257  18.346  0.00  0.00    +0.000 A 
ATOM     11  C   UNL     1       9.694  10.966  18.102  0.00  0.00    +0.000 A 
ATOM     12  C   UNL     1       9.318  10.199  19.197  0.00  0.00    +0.000 A 
ATOM     13  C   UNL     1       9.521  10.684  20.486  0.00  0.00    +0.000 A 
ATOM     14  C   UNL     1      10.130  11.953  20.703  0.00  0.00    +0.000 A 
ATOM     15  C   UNL     1      10.429  12.786  19.622  0.00  0.00    +0.000 A 
ATOM     16  C   UNL     1      10.766  14.192  19.475  0.00  0.00    +0.000 A 
ATOM     17  H   UNL     1      10.323  13.168  16.450  0.00  0.00    +0.000 HD
ENDROOT
BRANCH   4  18
ATOM     18  C   UNL     1       9.684  15.060  21.366  0.00  0.00    +0.000 A 
ATOM     19  C   UNL     1       8.367  14.833  20.954  0.00  0.00    +0.000 A 
ATOM     20  C   UNL     1       7.309  14.924  21.869  0.00  0.00    +0.000 A 
ATOM     21  C   UNL     1       7.545  15.177  23.223  0.00  0.00    +0.000 A 
ATOM     22  C   UNL     1       8.851  15.231  23.673  0.00  0.00    +0.000 A 
ATOM     23  C   UNL     1       9.903  15.120  22.774  0.00  0.00    +0.000 A 
BRANCH  22  24
ATOM     24  O   UNL     1       9.159  15.452  24.982  0.00  0.00    +0.000 OA
ATOM     25  H   UNL     1       9.424  16.381  25.085  0.00  0.00    +0.000 HD
ENDBRANCH  22  24
ENDBRANCH   4  18
BRANCH   1  26
ATOM     26  C   UNL     1       8.354  18.138  19.474  0.00  0.00    +0.000 C 
BRANCH  26  28
ATOM     27  C   UNL     1       5.940  17.427  19.495  0.00  0.00    +0.000 C 
ATOM     28  C   UNL     1       7.285  17.290  18.793  0.00  0.00    +0.000 C 
ENDBRANCH  26  28
ENDBRANCH   1  26
TORSDOF 4
ENDMDL
MODEL 6
REMARK VINA RESULT:      -6.6      7.514     10.845
REMARK  Name = 
REMARK  5 active torsions:
REMARK  status: ('A' for Active; 'I' for Inactive)
REMARK    1  A    between atoms: C_1  and  C_2
REMARK    2  A    between atoms: C_2  and  C_3
REMARK    3  A    between atoms: C_3  and  N_4
REMARK    4  A    between atoms: C_7  and  C_8
REMARK    5  A    between atoms: C_12  and  O_13
REMARK                            x       y       z     vdW  Elec       q    Type
REMARK                         _______ _______ _______ _____ _____    ______ ____
ROOT
ATOM      1  N   UNL     1      10.005  11.426  18.890  0.00  0.00    +0.000 NA
ATOM      2  C   UNL     1      11.189  12.022  18.164  0.00  0.00    +0.000 C 
ATOM      3  C   UNL     1      11.924  13.225  19.002  0.00  0.00    +0.000 C 
ATOM      4  C   UNL     1      10.860  13.607  20.024  0.00  0.00    +0.000 C 
ATOM      5  C   UNL     1      11.321  12.010  20.634  0.00  0.00    +0.000 C 
ATOM      6  C   UNL     1      10.182  11.099  20.319  0.00  0.00    +0.000 C 
ATOM      7  C   UNL     1       9.255  11.437  21.532  0.00  0.00    +0.000 C 
ATOM      8  C   UNL     1       9.378  12.897  21.952  0.00  0.00    +0.000 A 
ATOM      9  N   UNL     1       8.864  13.395  23.114  0.00  0.00    +0.000 N 
ATOM     10  C   UNL     1       8.672  14.739  22.935  0.00  0.00    +0.000 A 
ATOM     11  C   UNL     1       7.800  15.595  23.620  0.00  0.00    +0.000 A 
ATOM     12  C   UNL     1       7.603  16.869  23.100  0.00  0.00    +0.000 A 
ATOM     13  C   UNL     1       8.334  17.286  21.991  0.00  0.00    +0.000 A 
ATOM     14  C   UNL     1       9.302  16.431  21.389  0.00  0.00    +0.000 A 
ATOM     15  C   UNL     1       9.451  15.114  21.831  0.00  0.00    +0.000 A 
ATOM     16  C   UNL     1      10.092  13.923  21.299  0.00  0.00    +0.000 A 
ATOM     17  H   UNL     1       8.437  12.854  23.852  0.00  0.00    +0.000 HD
ENDROOT
BRANCH   4  18
ATOM     18  C   UNL     1       9.958  14.388  19.004  0.00  0.00    +0.000 A 
ATOM     19  C   UNL     1      10.363  15.406  18.136  0.00  0.00    +0.000 A 
ATOM     20  C   UNL     1       9.417  16.249  17.535  0.00  0.00    +0.000 A 
ATOM     21  C   UNL     1       8.048  16.054  17.733  0.00  0.00    +0.000 A 
ATOM     22  C   UNL     1       7.629  14.947  18.448  0.00  0.00    +0.000 A 
ATOM     23  C   UNL     1       8.562  14.097  19.027  0.00  0.00    +0.000 A 
BRANCH  22  24
ATOM     24  O   UNL     1       6.311  14.678  18.663  0.00  0.00    +0.000 OA
ATOM     25  H   UNL     1       6.237  14.087  19.431  0.00  0.00    +0.000 HD
ENDBRANCH  22  24
ENDBRANCH   4  18
BRANCH   1  26
ATOM     26  C   UNL     1       8.980  10.775  18.098  0.00  0.00    +0.000 C 
BRANCH  26  28
ATOM     27  C   UNL     1       7.778   8.639  17.526  0.00  0.00    +0.000 C 
ATOM     28  C   UNL     1       8.651   9.356  18.548  0.00  0.00    +0.000 C 
ENDBRANCH  26  28
ENDBRANCH   1  26
TORSDOF 4
ENDMDL
MODEL 7
REMARK VINA RESULT:      -6.5      7.714     10.942
REMARK  Name = 
REMARK  5 active torsions:
REMARK  status: ('A' for Active; 'I' for Inactive)
REMARK    1  A    between atoms: C_1  and  C_2
REMARK    2  A    between atoms: C_2  and  C_3
REMARK    3  A    between atoms: C_3  and  N_4
REMARK    4  A    between atoms: C_7  and  C_8
REMARK    5  A    between atoms: C_12  and  O_13
REMARK                            x       y       z     vdW  Elec       q    Type
REMARK                         _______ _______ _______ _____ _____    ______ ____
ROOT
ATOM      1  N   UNL     1       9.919  11.600  19.013  0.00  0.00    +0.000 NA
ATOM      2  C   UNL     1      11.036  12.367  18.342  0.00  0.00    +0.000 C 
ATOM      3  C   UNL     1      11.684  13.533  19.294  0.00  0.00    +0.000 C 
ATOM      4  C   UNL     1      10.613  13.715  20.362  0.00  0.00    +0.000 C 
ATOM      5  C   UNL     1      11.216  12.107  20.794  0.00  0.00    +0.000 C 
ATOM      6  C   UNL     1      10.151  11.141  20.396  0.00  0.00    +0.000 C 
ATOM      7  C   UNL     1       9.222  11.271  21.649  0.00  0.00    +0.000 C 
ATOM      8  C   UNL     1       9.233  12.684  22.220  0.00  0.00    +0.000 A 
ATOM      9  N   UNL     1       8.702  13.013  23.433  0.00  0.00    +0.000 N 
ATOM     10  C   UNL     1       8.396  14.347  23.400  0.00  0.00    +0.000 A 
ATOM     11  C   UNL     1       7.470  15.050  24.180  0.00  0.00    +0.000 A 
ATOM     12  C   UNL     1       7.157  16.350  23.801  0.00  0.00    +0.000 A 
ATOM     13  C   UNL     1       7.830  16.941  22.735  0.00  0.00    +0.000 A 
ATOM     14  C   UNL     1       8.853  16.238  22.035  0.00  0.00    +0.000 A 
ATOM     15  C   UNL     1       9.120  14.900  22.333  0.00  0.00    +0.000 A 
ATOM     16  C   UNL     1       9.846  13.829  21.672  0.00  0.00    +0.000 A 
ATOM     17  H   UNL     1       8.336  12.363  24.114  0.00  0.00    +0.000 HD
ENDROOT
BRANCH   4  18
ATOM     18  C   UNL     1       9.629  14.519  19.441  0.00  0.00    +0.000 A 
ATOM     19  C   UNL     1       8.270  14.256  19.236  0.00  0.00    +0.000 A 
ATOM     20  C   UNL     1       7.593  14.818  18.145  0.00  0.00    +0.000 A 
ATOM     21  C   UNL     1       8.234  15.704  17.276  0.00  0.00    +0.000 A 
ATOM     22  C   UNL     1       9.524  16.106  17.566  0.00  0.00    +0.000 A 
ATOM     23  C   UNL     1      10.192  15.569  18.658  0.00  0.00    +0.000 A 
BRANCH  22  24
ATOM     24  O   UNL     1      10.205  16.984  16.778  0.00  0.00    +0.000 OA
ATOM     25  H   UNL     1      10.418  16.545  15.939  0.00  0.00    +0.000 HD
ENDBRANCH  22  24
ENDBRANCH   4  18
BRANCH   1  26
ATOM     26  C   UNL     1       8.936  10.952  18.167  0.00  0.00    +0.000 C 
BRANCH  26  28
ATOM     27  C   UNL     1       7.809   8.809  17.477  0.00  0.00    +0.000 C 
ATOM     28  C   UNL     1       8.652   9.501  18.541  0.00  0.00    +0.000 C 
ENDBRANCH  26  28
ENDBRANCH   1  26
TORSDOF 4
ENDMDL
MODEL 8
REMARK VINA RESULT:      -6.4      6.089     10.043
REMARK  Name = 
REMARK  5 active torsions:
REMARK  status: ('A' for Active; 'I' for Inactive)
REMARK    1  A    between atoms: C_1  and  C_2
REMARK    2  A    between atoms: C_2  and  C_3
REMARK    3  A    between atoms: C_3  and  N_4
REMARK    4  A    between atoms: C_7  and  C_8
REMARK    5  A    between atoms: C_12  and  O_13
REMARK                            x       y       z     vdW  Elec       q    Type
REMARK                         _______ _______ _______ _____ _____    ______ ____
ROOT
ATOM      1  N   UNL     1       0.425  11.024  19.906  0.00  0.00    +0.000 NA
ATOM      2  C   UNL     1       0.667  11.745  18.599  0.00  0.00    +0.000 C 
ATOM      3  C   UNL     1      -0.307  13.047  18.388  0.00  0.00    +0.000 C 
ATOM      4  C   UNL     1      -1.418  12.790  19.397  0.00  0.00    +0.000 C 
ATOM      5  C   UNL     1      -0.076  13.150  20.495  0.00  0.00    +0.000 C 
ATOM      6  C   UNL     1       0.309  11.852  21.123  0.00  0.00    +0.000 C 
ATOM      7  C   UNL     1      -0.771  11.798  22.254  0.00  0.00    +0.000 C 
ATOM      8  C   UNL     1      -2.085  12.432  21.816  0.00  0.00    +0.000 A 
ATOM      9  N   UNL     1      -3.106  12.726  22.672  0.00  0.00    +0.000 N 
ATOM     10  C   UNL     1      -4.261  12.760  21.939  0.00  0.00    +0.000 A 
ATOM     11  C   UNL     1      -5.580  12.584  22.379  0.00  0.00    +0.000 A 
ATOM     12  C   UNL     1      -6.567  12.420  21.415  0.00  0.00    +0.000 A 
ATOM     13  C   UNL     1      -6.242  12.528  20.065  0.00  0.00    +0.000 A 
ATOM     14  C   UNL     1      -4.911  12.826  19.654  0.00  0.00    +0.000 A 
ATOM     15  C   UNL     1      -3.882  12.901  20.596  0.00  0.00    +0.000 A 
ATOM     16  C   UNL     1      -2.431  12.895  20.529  0.00  0.00    +0.000 A 
ATOM     17  H   UNL     1      -3.074  12.647  23.679  0.00  0.00    +0.000 HD
ENDROOT
BRANCH   4  18
ATOM     18  C   UNL     1      -2.128  11.677  18.548  0.00  0.00    +0.000 A 
ATOM     19  C   UNL     1      -2.434  10.376  18.962  0.00  0.00    +0.000 A 
ATOM     20  C   UNL     1      -2.746   9.385  18.021  0.00  0.00    +0.000 A 
ATOM     21  C   UNL     1      -2.825   9.682  16.658  0.00  0.00    +0.000 A 
ATOM     22  C   UNL     1      -2.696  10.998  16.255  0.00  0.00    +0.000 A 
ATOM     23  C   UNL     1      -2.409  11.987  17.186  0.00  0.00    +0.000 A 
BRANCH  22  24
ATOM     24  O   UNL     1      -2.784  11.368  14.946  0.00  0.00    +0.000 OA
ATOM     25  H   UNL     1      -3.673  11.148  14.622  0.00  0.00    +0.000 HD
ENDBRANCH  22  24
ENDBRANCH   4  18
BRANCH   1  26
ATOM     26  C   UNL     1       0.795   9.625  19.988  0.00  0.00    +0.000 C 
BRANCH  26  28
ATOM     27  C   UNL     1       2.237   7.811  19.005  0.00  0.00    +0.000 C 
ATOM     28  C   UNL     1       1.433   9.073  18.718  0.00  0.00    +0.000 C 
ENDBRANCH  26  28
ENDBRANCH   1  26
TORSDOF 4
ENDMDL
MODEL 9
REMARK VINA RESULT:      -6.4      7.484     10.122
REMARK  Name = 
REMARK  5 active torsions:
REMARK  status: ('A' for Active; 'I' for Inactive)
REMARK    1  A    between atoms: C_1  and  C_2
REMARK    2  A    between atoms: C_2  and  C_3
REMARK    3  A    between atoms: C_3  and  N_4
REMARK    4  A    between atoms: C_7  and  C_8
REMARK    5  A    between atoms: C_12  and  O_13
REMARK                            x       y       z     vdW  Elec       q    Type
REMARK                         _______ _______ _______ _____ _____    ______ ____
ROOT
ATOM      1  N   UNL     1      -3.465  13.761  21.428  0.00  0.00    +0.000 NA
ATOM      2  C   UNL     1      -3.244  12.633  22.410  0.00  0.00    +0.000 C 
ATOM      3  C   UNL     1      -1.682  12.488  22.888  0.00  0.00    +0.000 C 
ATOM      4  C   UNL     1      -0.938  13.271  21.815  0.00  0.00    +0.000 C 
ATOM      5  C   UNL     1      -1.760  14.596  22.656  0.00  0.00    +0.000 C 
ATOM      6  C   UNL     1      -2.843  15.062  21.742  0.00  0.00    +0.000 C 
ATOM      7  C   UNL     1      -1.998  16.001  20.820  0.00  0.00    +0.000 C 
ATOM      8  C   UNL     1      -0.579  15.480  20.627  0.00  0.00    +0.000 A 
ATOM      9  N   UNL     1       0.427  16.214  20.067  0.00  0.00    +0.000 N 
ATOM     10  C   UNL     1       1.348  15.335  19.565  0.00  0.00    +0.000 A 
ATOM     11  C   UNL     1       2.294  15.544  18.553  0.00  0.00    +0.000 A 
ATOM     12  C   UNL     1       2.956  14.432  18.046  0.00  0.00    +0.000 A 
ATOM     13  C   UNL     1       2.737  13.178  18.610  0.00  0.00    +0.000 A 
ATOM     14  C   UNL     1       1.856  13.018  19.718  0.00  0.00    +0.000 A 
ATOM     15  C   UNL     1       1.105  14.100  20.185  0.00  0.00    +0.000 A 
ATOM     16  C   UNL     1      -0.049  14.246  21.056  0.00  0.00    +0.000 A 
ATOM     17  H   UNL     1       0.374  17.189  19.810  0.00  0.00    +0.000 HD
ENDROOT
BRANCH   4  18
ATOM     18  C   UNL     1      -1.073  12.164  20.711  0.00  0.00    +0.000 A 
ATOM     19  C   UNL     1      -0.755  10.808  20.842  0.00  0.00    +0.000 A 
ATOM     20  C   UNL     1      -0.591  10.002  19.706  0.00  0.00    +0.000 A 
ATOM     21  C   UNL     1      -0.806  10.512  18.423  0.00  0.00    +0.000 A 
ATOM     22  C   UNL     1      -1.288  11.800  18.289  0.00  0.00    +0.000 A 
ATOM     23  C   UNL     1      -1.473  12.595  19.412  0.00  0.00    +0.000 A 
BRANCH  22  24
ATOM     24  O   UNL     1      -1.543  12.357  17.072  0.00  0.00    +0.000 OA
ATOM     25  H   UNL     1      -2.392  12.016  16.748  0.00  0.00    +0.000 HD
ENDBRANCH  22  24
ENDBRANCH   4  18
BRANCH   1  26
ATOM     26  C   UNL     1      -4.610  13.676  20.543  0.00  0.00    +0.000 C 
BRANCH  26  28
ATOM     27  C   UNL     1      -5.022  11.908  18.799  0.00  0.00    +0.000 C 
ATOM     28  C   UNL     1      -5.092  12.253  20.281  0.00  0.00    +0.000 C 
ENDBRANCH  26  28
ENDBRANCH   1  26
TORSDOF 4
ENDMDL
