MODEL 1
REMARK VINA RESULT:      -7.7      0.000      0.000
REMARK  Name = 
REMARK  7 active torsions:
REMARK  status: ('A' for Active; 'I' for Inactive)
REMARK    1  A    between atoms: C_1  and  C_2
REMARK    2  A    between atoms: C_2  and  C_3
REMARK    3  A    between atoms: N_5  and  C_6
REMARK    4  A    between atoms: C_9  and  N_10
REMARK    5  A    between atoms: N_19  and  C_20
REMARK    6  A    between atoms: C_23  and  O_24
REMARK    7  A    between atoms: O_24  and  C_25
REMARK                            x       y       z     vdW  Elec       q    Type
REMARK                         _______ _______ _______ _____ _____    ______ ____
ROOT
ATOM      1  N   UNL     1      -1.841  11.156  19.194  0.00  0.00    +0.000 N 
ATOM      2  C   UNL     1      -2.495  12.028  20.056  0.00  0.00    +0.000 A 
ATOM      3  O   UNL     1      -3.534  12.651  19.852  0.00  0.00    +0.000 OA
ATOM      4  C   UNL     1      -1.828  12.274  21.381  0.00  0.00    +0.000 A 
ATOM      5  N   UNL     1      -0.730  11.706  21.761  0.00  0.00    +0.000 NA
ATOM      6  C   UNL     1      -0.125  10.826  20.847  0.00  0.00    +0.000 A 
ATOM      7  C   UNL     1       1.024  10.155  21.195  0.00  0.00    +0.000 A 
ATOM      8  N   UNL     1       1.677   9.308  20.380  0.00  0.00    +0.000 NA
ATOM      9  C   UNL     1       1.183   9.132  19.147  0.00  0.00    +0.000 A 
ATOM     10  N   UNL     1       1.898   8.353  18.239  0.00  0.00    +0.000 N 
ATOM     11  N   UNL     1       0.059   9.726  18.716  0.00  0.00    +0.000 NA
ATOM     12  C   UNL     1      -0.595  10.557  19.567  0.00  0.00    +0.000 A 
ATOM     13  H   UNL     1       1.491   8.391  17.315  0.00  0.00    +0.000 HD
ENDROOT
BRANCH   1  17
ATOM     14  C   UNL     1      -3.595  10.347  15.415  0.00  0.00    +0.000 A 
ATOM     15  C   UNL     1      -2.828  11.495  15.630  0.00  0.00    +0.000 A 
ATOM     16  C   UNL     1      -2.223  11.744  16.859  0.00  0.00    +0.000 A 
ATOM     17  C   UNL     1      -2.398  10.866  17.921  0.00  0.00    +0.000 A 
ATOM     18  C   UNL     1      -3.201   9.726  17.728  0.00  0.00    +0.000 A 
ATOM     19  C   UNL     1      -3.789   9.465  16.480  0.00  0.00    +0.000 A 
BRANCH  14  22
ATOM     20  C   UNL     1      -3.508   9.762  13.010  0.00  0.00    +0.000 C 
ATOM     21  O   UNL     1      -2.293   9.557  12.940  0.00  0.00    +0.000 OA
ATOM     22  N   UNL     1      -4.200  10.071  14.170  0.00  0.00    +0.000 N 
ATOM     23  H   UNL     1      -5.210   9.999  14.149  0.00  0.00    +0.000 HD
BRANCH  20  25
ATOM     24  C   UNL     1      -5.815   9.357  12.173  0.00  0.00    +0.000 C 
ATOM     25  C   UNL     1      -4.378   9.675  11.776  0.00  0.00    +0.000 C 
ENDBRANCH  20  25
ENDBRANCH  14  22
ENDBRANCH   1  17
BRANCH  10  26
ATOM     26  C   UNL     1       2.715   7.239  18.499  0.00  0.00    +0.000 A 
ATOM     27  C   UNL     1       2.470   6.369  19.567  0.00  0.00    +0.000 A 
ATOM     28  C   UNL     1       3.305   5.275  19.813  0.00  0.00    +0.000 A 
ATOM     29  C   UNL     1       4.406   5.033  18.997  0.00  0.00    +0.000 A 
ATOM     30  C   UNL     1       4.689   5.913  17.953  0.00  0.00    +0.000 A 
ATOM     31  C   UNL     1       3.841   7.003  17.701  0.00  0.00    +0.000 A 
BRANCH  29  32
ATOM     32  O   UNL     1       5.155   3.941  19.336  0.00  0.00    +0.000 OA
ATOM     33  C   UNL     1       4.425   2.733  19.510  0.00  0.00    +0.000 C 
ENDBRANCH  29  32
ENDBRANCH  10  26
TORSDOF 5
ENDMDL
MODEL 2
REMARK VINA RESULT:      -7.4      0.262      1.245
REMARK  Name = 
REMARK  7 active torsions:
REMARK  status: ('A' for Active; 'I' for Inactive)
REMARK    1  A    between atoms: C_1  and  C_2
REMARK    2  A    between atoms: C_2  and  C_3
REMARK    3  A    between atoms: N_5  and  C_6
REMARK    4  A    between atoms: C_9  and  N_10
REMARK    5  A    between atoms: N_19  and  C_20
REMARK    6  A    between atoms: C_23  and  O_24
REMARK    7  A    between atoms: O_24  and  C_25
REMARK                            x       y       z     vdW  Elec       q    Type
REMARK                         _______ _______ _______ _____ _____    ______ ____
ROOT
ATOM      1  N   UNL     1      -1.991  11.313  19.346  0.00  0.00    +0.000 N 
ATOM      2  C   UNL     1      -2.627  12.155  20.252  0.00  0.00    +0.000 A 
ATOM      3  O   UNL     1      -3.680  12.768  20.097  0.00  0.00    +0.000 OA
ATOM      4  C   UNL     1      -1.919  12.377  21.559  0.00  0.00    +0.000 A 
ATOM      5  N   UNL     1      -0.802  11.814  21.887  0.00  0.00    +0.000 NA
ATOM      6  C   UNL     1      -0.217  10.966  20.932  0.00  0.00    +0.000 A 
ATOM      7  C   UNL     1       0.951  10.302  21.225  0.00  0.00    +0.000 A 
ATOM      8  N   UNL     1       1.588   9.485  20.368  0.00  0.00    +0.000 NA
ATOM      9  C   UNL     1       1.055   9.332  19.148  0.00  0.00    +0.000 A 
ATOM     10  N   UNL     1       1.749   8.586  18.197  0.00  0.00    +0.000 N 
ATOM     11  N   UNL     1      -0.090   9.921  18.769  0.00  0.00    +0.000 NA
ATOM     12  C   UNL     1      -0.726  10.722  19.662  0.00  0.00    +0.000 A 
ATOM     13  H   UNL     1       1.311   8.642  17.288  0.00  0.00    +0.000 HD
ENDROOT
BRANCH   1  17
ATOM     14  C   UNL     1      -3.693  10.446  15.557  0.00  0.00    +0.000 A 
ATOM     15  C   UNL     1      -4.012   9.690  16.688  0.00  0.00    +0.000 A 
ATOM     16  C   UNL     1      -3.482   9.996  17.938  0.00  0.00    +0.000 A 
ATOM     17  C   UNL     1      -2.587  11.047  18.085  0.00  0.00    +0.000 A 
ATOM     18  C   UNL     1      -2.227  11.791  16.946  0.00  0.00    +0.000 A 
ATOM     19  C   UNL     1      -2.784  11.496  15.691  0.00  0.00    +0.000 A 
BRANCH  14  22
ATOM     20  C   UNL     1      -3.494   9.805  13.172  0.00  0.00    +0.000 C 
ATOM     21  O   UNL     1      -2.283   9.563  13.173  0.00  0.00    +0.000 OA
ATOM     22  N   UNL     1      -4.237  10.160  14.286  0.00  0.00    +0.000 N 
ATOM     23  H   UNL     1      -5.247  10.117  14.211  0.00  0.00    +0.000 HD
BRANCH  20  25
ATOM     24  C   UNL     1      -5.726   9.287  12.207  0.00  0.00    +0.000 C 
ATOM     25  C   UNL     1      -4.297   9.714  11.895  0.00  0.00    +0.000 C 
ENDBRANCH  20  25
ENDBRANCH  14  22
ENDBRANCH   1  17
BRANCH  10  26
ATOM     26  C   UNL     1       2.588   7.477  18.402  0.00  0.00    +0.000 A 
ATOM     27  C   UNL     1       3.675   7.200  17.565  0.00  0.00    +0.000 A 
ATOM     28  C   UNL     1       4.487   6.084  17.782  0.00  0.00    +0.000 A 
ATOM     29  C   UNL     1       4.224   5.217  18.839  0.00  0.00    +0.000 A 
ATOM     30  C   UNL     1       3.121   5.455  19.658  0.00  0.00    +0.000 A 
ATOM     31  C   UNL     1       2.316   6.584  19.445  0.00  0.00    +0.000 A 
BRANCH  29  32
ATOM     32  O   UNL     1       5.078   4.155  18.950  0.00  0.00    +0.000 OA
ATOM     33  C   UNL     1       4.526   2.993  19.557  0.00  0.00    +0.000 C 
ENDBRANCH  29  32
ENDBRANCH  10  26
TORSDOF 5
ENDMDL
MODEL 3
REMARK VINA RESULT:      -7.1      8.348     12.395
REMARK  Name = 
REMARK  7 active torsions:
REMARK  status: ('A' for Active; 'I' for Inactive)
REMARK    1  A    between atoms: C_1  and  C_2
REMARK    2  A    between atoms: C_2  and  C_3
REMARK    3  A    between atoms: N_5  and  C_6
REMARK    4  A    between atoms: C_9  and  N_10
REMARK    5  A    between atoms: N_19  and  C_20
REMARK    6  A    between atoms: C_23  and  O_24
REMARK    7  A    between atoms: O_24  and  C_25
REMARK                            x       y       z     vdW  Elec       q    Type
REMARK                         _______ _______ _______ _____ _____    ______ ____
ROOT
ATOM      1  N   UNL     1       9.993  14.629  19.016  0.00  0.00    +0.000 N 
ATOM      2  C   UNL     1      11.307  15.078  18.925  0.00  0.00    +0.000 A 
ATOM      3  O   UNL     1      12.333  14.403  18.911  0.00  0.00    +0.000 OA
ATOM      4  C   UNL     1      11.496  16.568  18.885  0.00  0.00    +0.000 A 
ATOM      5  N   UNL     1      10.527  17.427  18.894  0.00  0.00    +0.000 NA
ATOM      6  C   UNL     1       9.224  16.908  18.975  0.00  0.00    +0.000 A 
ATOM      7  C   UNL     1       8.143  17.757  18.950  0.00  0.00    +0.000 A 
ATOM      8  N   UNL     1       6.865  17.350  19.039  0.00  0.00    +0.000 NA
ATOM      9  C   UNL     1       6.642  16.038  19.183  0.00  0.00    +0.000 A 
ATOM     10  N   UNL     1       5.338  15.593  19.394  0.00  0.00    +0.000 N 
ATOM     11  N   UNL     1       7.626  15.124  19.200  0.00  0.00    +0.000 NA
ATOM     12  C   UNL     1       8.907  15.560  19.085  0.00  0.00    +0.000 A 
ATOM     13  H   UNL     1       5.311  14.605  19.605  0.00  0.00    +0.000 HD
ENDROOT
BRANCH   1  17
ATOM     14  C   UNL     1       9.285  10.447  19.148  0.00  0.00    +0.000 A 
ATOM     15  C   UNL     1       9.477  11.190  20.316  0.00  0.00    +0.000 A 
ATOM     16  C   UNL     1       9.675  12.567  20.276  0.00  0.00    +0.000 A 
ATOM     17  C   UNL     1       9.721  13.237  19.061  0.00  0.00    +0.000 A 
ATOM     18  C   UNL     1       9.568  12.494  17.875  0.00  0.00    +0.000 A 
ATOM     19  C   UNL     1       9.344  11.109  17.920  0.00  0.00    +0.000 A 
BRANCH  14  22
ATOM     20  C   UNL     1       8.245   8.369  18.292  0.00  0.00    +0.000 C 
ATOM     21  O   UNL     1       7.706   8.859  17.296  0.00  0.00    +0.000 OA
ATOM     22  N   UNL     1       9.066   9.053  19.174  0.00  0.00    +0.000 N 
ATOM     23  H   UNL     1       9.624   8.506  19.819  0.00  0.00    +0.000 HD
BRANCH  20  25
ATOM     24  C   UNL     1       7.293   6.207  17.513  0.00  0.00    +0.000 C 
ATOM     25  C   UNL     1       8.049   6.909  18.635  0.00  0.00    +0.000 C 
ENDBRANCH  20  25
ENDBRANCH  14  22
ENDBRANCH   1  17
BRANCH  10  26
ATOM     26  C   UNL     1       4.140  16.145  18.909  0.00  0.00    +0.000 A 
ATOM     27  C   UNL     1       3.878  16.272  17.540  0.00  0.00    +0.000 A 
ATOM     28  C   UNL     1       2.684  16.836  17.083  0.00  0.00    +0.000 A 
ATOM     29  C   UNL     1       1.728  17.291  17.987  0.00  0.00    +0.000 A 
ATOM     30  C   UNL     1       1.990  17.210  19.355  0.00  0.00    +0.000 A 
ATOM     31  C   UNL     1       3.184  16.631  19.810  0.00  0.00    +0.000 A 
BRANCH  29  32
ATOM     32  O   UNL     1       0.604  17.831  17.428  0.00  0.00    +0.000 OA
ATOM     33  C   UNL     1      -0.601  17.611  18.151  0.00  0.00    +0.000 C 
ENDBRANCH  29  32
ENDBRANCH  10  26
TORSDOF 5
ENDMDL
MODEL 4
REMARK VINA RESULT:      -7.1      4.457      9.153
REMARK  Name = 
REMARK  7 active torsions:
REMARK  status: ('A' for Active; 'I' for Inactive)
REMARK    1  A    between atoms: C_1  and  C_2
REMARK    2  A    between atoms: C_2  and  C_3
REMARK    3  A    between atoms: N_5  and  C_6
REMARK    4  A    between atoms: C_9  and  N_10
REMARK    5  A    between atoms: N_19  and  C_20
REMARK    6  A    between atoms: C_23  and  O_24
REMARK    7  A    between atoms: O_24  and  C_25
REMARK                            x       y       z     vdW  Elec       q    Type
REMARK                         _______ _______ _______ _____ _____    ______ ____
ROOT
ATOM      1  N   UNL     1       3.726   4.127  19.098  0.00  0.00    +0.000 N 
ATOM      2  C   UNL     1       3.807   3.015  19.930  0.00  0.00    +0.000 A 
ATOM      3  O   UNL     1       4.434   1.976  19.738  0.00  0.00    +0.000 OA
ATOM      4  C   UNL     1       2.995   3.073  21.193  0.00  0.00    +0.000 A 
ATOM      5  N   UNL     1       2.276   4.087  21.552  0.00  0.00    +0.000 NA
ATOM      6  C   UNL     1       2.246   5.183  20.673  0.00  0.00    +0.000 A 
ATOM      7  C   UNL     1       1.535   6.312  21.005  0.00  0.00    +0.000 A 
ATOM      8  N   UNL     1       1.438   7.398  20.219  0.00  0.00    +0.000 NA
ATOM      9  C   UNL     1       2.057   7.360  19.032  0.00  0.00    +0.000 A 
ATOM     10  N   UNL     1       1.883   8.421  18.145  0.00  0.00    +0.000 N 
ATOM     11  N   UNL     1       2.792   6.314  18.621  0.00  0.00    +0.000 NA
ATOM     12  C   UNL     1       2.893   5.239  19.444  0.00  0.00    +0.000 A 
ATOM     13  H   UNL     1       2.298   8.225  17.244  0.00  0.00    +0.000 HD
ENDROOT
BRANCH   1  17
ATOM     14  C   UNL     1       5.948   4.119  15.483  0.00  0.00    +0.000 A 
ATOM     15  C   UNL     1       4.622   3.681  15.522  0.00  0.00    +0.000 A 
ATOM     16  C   UNL     1       3.881   3.716  16.700  0.00  0.00    +0.000 A 
ATOM     17  C   UNL     1       4.459   4.159  17.883  0.00  0.00    +0.000 A 
ATOM     18  C   UNL     1       5.806   4.565  17.865  0.00  0.00    +0.000 A 
ATOM     19  C   UNL     1       6.543   4.552  16.669  0.00  0.00    +0.000 A 
BRANCH  14  22
ATOM     20  C   UNL     1       6.196   3.827  13.036  0.00  0.00    +0.000 C 
ATOM     21  O   UNL     1       4.999   3.684  12.770  0.00  0.00    +0.000 OA
ATOM     22  N   UNL     1       6.707   4.107  14.292  0.00  0.00    +0.000 N 
ATOM     23  H   UNL     1       7.669   4.421  14.350  0.00  0.00    +0.000 HD
BRANCH  20  25
ATOM     24  C   UNL     1       7.190   2.331  11.316  0.00  0.00    +0.000 C 
ATOM     25  C   UNL     1       7.244   3.715  11.952  0.00  0.00    +0.000 C 
ENDBRANCH  20  25
ENDBRANCH  14  22
ENDBRANCH   1  17
BRANCH  10  26
ATOM     26  C   UNL     1       1.681   9.780  18.440  0.00  0.00    +0.000 A 
ATOM     27  C   UNL     1       2.500  10.786  17.915  0.00  0.00    +0.000 A 
ATOM     28  C   UNL     1       2.286  12.130  18.234  0.00  0.00    +0.000 A 
ATOM     29  C   UNL     1       1.251  12.495  19.091  0.00  0.00    +0.000 A 
ATOM     30  C   UNL     1       0.451  11.502  19.655  0.00  0.00    +0.000 A 
ATOM     31  C   UNL     1       0.660  10.154  19.323  0.00  0.00    +0.000 A 
BRANCH  29  32
ATOM     32  O   UNL     1       1.142  13.834  19.338  0.00  0.00    +0.000 OA
ATOM     33  C   UNL     1       2.098  14.654  18.675  0.00  0.00    +0.000 C 
ENDBRANCH  29  32
ENDBRANCH  10  26
TORSDOF 5
ENDMDL
MODEL 5
REMARK VINA RESULT:      -7.1      4.595      9.156
REMARK  Name = 
REMARK  7 active torsions:
REMARK  status: ('A' for Active; 'I' for Inactive)
REMARK    1  A    between atoms: C_1  and  C_2
REMARK    2  A    between atoms: C_2  and  C_3
REMARK    3  A    between atoms: N_5  and  C_6
REMARK    4  A    between atoms: C_9  and  N_10
REMARK    5  A    between atoms: N_19  and  C_20
REMARK    6  A    between atoms: C_23  and  O_24
REMARK    7  A    between atoms: O_24  and  C_25
REMARK                            x       y       z     vdW  Elec       q    Type
REMARK                         _______ _______ _______ _____ _____    ______ ____
ROOT
ATOM      1  N   UNL     1       3.895   4.151  19.184  0.00  0.00    +0.000 N 
ATOM      2  C   UNL     1       3.997   2.967  19.907  0.00  0.00    +0.000 A 
ATOM      3  O   UNL     1       4.686   1.984  19.649  0.00  0.00    +0.000 OA
ATOM      4  C   UNL     1       3.125   2.860  21.127  0.00  0.00    +0.000 A 
ATOM      5  N   UNL     1       2.336   3.797  21.545  0.00  0.00    +0.000 NA
ATOM      6  C   UNL     1       2.290   4.972  20.776  0.00  0.00    +0.000 A 
ATOM      7  C   UNL     1       1.505   6.027  21.178  0.00  0.00    +0.000 A 
ATOM      8  N   UNL     1       1.387   7.180  20.498  0.00  0.00    +0.000 NA
ATOM      9  C   UNL     1       2.062   7.290  19.346  0.00  0.00    +0.000 A 
ATOM     10  N   UNL     1       1.873   8.425  18.559  0.00  0.00    +0.000 N 
ATOM     11  N   UNL     1       2.870   6.327  18.875  0.00  0.00    +0.000 NA
ATOM     12  C   UNL     1       2.989   5.182  19.594  0.00  0.00    +0.000 A 
ATOM     13  H   UNL     1       2.340   8.340  17.666  0.00  0.00    +0.000 HD
ENDROOT
BRANCH   1  17
ATOM     14  C   UNL     1       6.211   4.816  15.691  0.00  0.00    +0.000 A 
ATOM     15  C   UNL     1       6.710   5.113  16.962  0.00  0.00    +0.000 A 
ATOM     16  C   UNL     1       5.965   4.862  18.111  0.00  0.00    +0.000 A 
ATOM     17  C   UNL     1       4.682   4.339  18.018  0.00  0.00    +0.000 A 
ATOM     18  C   UNL     1       4.153   4.073  16.741  0.00  0.00    +0.000 A 
ATOM     19  C   UNL     1       4.917   4.304  15.586  0.00  0.00    +0.000 A 
BRANCH  14  22
ATOM     20  C   UNL     1       6.775   4.380  13.319  0.00  0.00    +0.000 C 
ATOM     21  O   UNL     1       5.852   3.597  13.077  0.00  0.00    +0.000 OA
ATOM     22  N   UNL     1       6.962   5.048  14.518  0.00  0.00    +0.000 N 
ATOM     23  H   UNL     1       7.614   5.824  14.529  0.00  0.00    +0.000 HD
BRANCH  20  25
ATOM     24  C   UNL     1       8.586   5.950  12.656  0.00  0.00    +0.000 C 
ATOM     25  C   UNL     1       7.816   4.693  12.268  0.00  0.00    +0.000 C 
ENDBRANCH  20  25
ENDBRANCH  14  22
ENDBRANCH   1  17
BRANCH  10  26
ATOM     26  C   UNL     1       1.586   9.736  18.973  0.00  0.00    +0.000 A 
ATOM     27  C   UNL     1       0.772  10.007  20.079  0.00  0.00    +0.000 A 
ATOM     28  C   UNL     1       0.491  11.320  20.464  0.00  0.00    +0.000 A 
ATOM     29  C   UNL     1       1.015  12.392  19.746  0.00  0.00    +0.000 A 
ATOM     30  C   UNL     1       1.794  12.141  18.617  0.00  0.00    +0.000 A 
ATOM     31  C   UNL     1       2.085  10.820  18.241  0.00  0.00    +0.000 A 
BRANCH  29  32
ATOM     32  O   UNL     1       0.667  13.631  20.207  0.00  0.00    +0.000 OA
ATOM     33  C   UNL     1      -0.276  13.639  21.273  0.00  0.00    +0.000 C 
ENDBRANCH  29  32
ENDBRANCH  10  26
TORSDOF 5
ENDMDL
MODEL 6
REMARK VINA RESULT:      -6.9      4.252      8.939
REMARK  Name = 
REMARK  7 active torsions:
REMARK  status: ('A' for Active; 'I' for Inactive)
REMARK    1  A    between atoms: C_1  and  C_2
REMARK    2  A    between atoms: C_2  and  C_3
REMARK    3  A    between atoms: N_5  and  C_6
REMARK    4  A    between atoms: C_9  and  N_10
REMARK    5  A    between atoms: N_19  and  C_20
REMARK    6  A    between atoms: C_23  and  O_24
REMARK    7  A    between atoms: O_24  and  C_25
REMARK                            x       y       z     vdW  Elec       q    Type
REMARK                         _______ _______ _______ _____ _____    ______ ____
ROOT
ATOM      1  N   UNL     1       3.509   5.225  19.017  0.00  0.00    +0.000 N 
ATOM      2  C   UNL     1       3.530   4.110  19.849  0.00  0.00    +0.000 A 
ATOM      3  O   UNL     1       4.153   3.064  19.688  0.00  0.00    +0.000 OA
ATOM      4  C   UNL     1       2.651   4.176  21.066  0.00  0.00    +0.000 A 
ATOM      5  N   UNL     1       1.926   5.198  21.388  0.00  0.00    +0.000 NA
ATOM      6  C   UNL     1       1.959   6.296  20.512  0.00  0.00    +0.000 A 
ATOM      7  C   UNL     1       1.245   7.434  20.808  0.00  0.00    +0.000 A 
ATOM      8  N   UNL     1       1.205   8.523  20.022  0.00  0.00    +0.000 NA
ATOM      9  C   UNL     1       1.888   8.480  18.871  0.00  0.00    +0.000 A 
ATOM     10  N   UNL     1       1.776   9.545  17.979  0.00  0.00    +0.000 N 
ATOM     11  N   UNL     1       2.631   7.425  18.498  0.00  0.00    +0.000 NA
ATOM     12  C   UNL     1       2.673   6.347  19.321  0.00  0.00    +0.000 A 
ATOM     13  H   UNL     1       2.237   9.347  17.102  0.00  0.00    +0.000 HD
ENDROOT
BRANCH   1  17
ATOM     14  C   UNL     1       5.963   5.227  15.556  0.00  0.00    +0.000 A 
ATOM     15  C   UNL     1       4.906   4.324  15.697  0.00  0.00    +0.000 A 
ATOM     16  C   UNL     1       4.079   4.346  16.817  0.00  0.00    +0.000 A 
ATOM     17  C   UNL     1       4.308   5.251  17.845  0.00  0.00    +0.000 A 
ATOM     18  C   UNL     1       5.394   6.139  17.732  0.00  0.00    +0.000 A 
ATOM     19  C   UNL     1       6.211   6.131  16.590  0.00  0.00    +0.000 A 
BRANCH  14  22
ATOM     20  C   UNL     1       6.605   4.442  13.296  0.00  0.00    +0.000 C 
ATOM     21  O   UNL     1       5.613   3.739  13.084  0.00  0.00    +0.000 OA
ATOM     22  N   UNL     1       6.800   5.230  14.418  0.00  0.00    +0.000 N 
ATOM     23  H   UNL     1       7.535   5.926  14.383  0.00  0.00    +0.000 HD
BRANCH  20  25
ATOM     24  C   UNL     1       8.317   5.916  12.256  0.00  0.00    +0.000 C 
ATOM     25  C   UNL     1       7.731   4.509  12.290  0.00  0.00    +0.000 C 
ENDBRANCH  20  25
ENDBRANCH  14  22
ENDBRANCH   1  17
BRANCH  10  26
ATOM     26  C   UNL     1       1.576  10.906  18.267  0.00  0.00    +0.000 A 
ATOM     27  C   UNL     1       0.359  11.393  18.757  0.00  0.00    +0.000 A 
ATOM     28  C   UNL     1       0.181  12.753  19.023  0.00  0.00    +0.000 A 
ATOM     29  C   UNL     1       1.216  13.657  18.800  0.00  0.00    +0.000 A 
ATOM     30  C   UNL     1       2.422  13.195  18.273  0.00  0.00    +0.000 A 
ATOM     31  C   UNL     1       2.602  11.826  18.019  0.00  0.00    +0.000 A 
BRANCH  29  32
ATOM     32  O   UNL     1       0.927  14.961  19.088  0.00  0.00    +0.000 OA
ATOM     33  C   UNL     1      -0.396  15.201  19.556  0.00  0.00    +0.000 C 
ENDBRANCH  29  32
ENDBRANCH  10  26
TORSDOF 5
ENDMDL
MODEL 7
REMARK VINA RESULT:      -6.9      4.496      9.167
REMARK  Name = 
REMARK  7 active torsions:
REMARK  status: ('A' for Active; 'I' for Inactive)
REMARK    1  A    between atoms: C_1  and  C_2
REMARK    2  A    between atoms: C_2  and  C_3
REMARK    3  A    between atoms: N_5  and  C_6
REMARK    4  A    between atoms: C_9  and  N_10
REMARK    5  A    between atoms: N_19  and  C_20
REMARK    6  A    between atoms: C_23  and  O_24
REMARK    7  A    between atoms: O_24  and  C_25
REMARK                            x       y       z     vdW  Elec       q    Type
REMARK                         _______ _______ _______ _____ _____    ______ ____
ROOT
ATOM      1  N   UNL     1       3.637   3.948  19.228  0.00  0.00    +0.000 N 
ATOM      2  C   UNL     1       3.714   2.853  20.081  0.00  0.00    +0.000 A 
ATOM      3  O   UNL     1       4.322   1.800  19.903  0.00  0.00    +0.000 OA
ATOM      4  C   UNL     1       2.923   2.950  21.355  0.00  0.00    +0.000 A 
ATOM      5  N   UNL     1       2.225   3.982  21.703  0.00  0.00    +0.000 NA
ATOM      6  C   UNL     1       2.198   5.060  20.802  0.00  0.00    +0.000 A 
ATOM      7  C   UNL     1       1.510   6.207  21.120  0.00  0.00    +0.000 A 
ATOM      8  N   UNL     1       1.418   7.278  20.313  0.00  0.00    +0.000 NA
ATOM      9  C   UNL     1       2.018   7.205  19.118  0.00  0.00    +0.000 A 
ATOM     10  N   UNL     1       1.847   8.250  18.211  0.00  0.00    +0.000 N 
ATOM     11  N   UNL     1       2.730   6.139  18.719  0.00  0.00    +0.000 NA
ATOM     12  C   UNL     1       2.827   5.080  19.563  0.00  0.00    +0.000 A 
ATOM     13  H   UNL     1       2.245   8.029  17.309  0.00  0.00    +0.000 HD
ENDROOT
BRANCH   1  17
ATOM     14  C   UNL     1       5.750   4.038  15.549  0.00  0.00    +0.000 A 
ATOM     15  C   UNL     1       6.369   4.387  16.751  0.00  0.00    +0.000 A 
ATOM     16  C   UNL     1       5.687   4.324  17.963  0.00  0.00    +0.000 A 
ATOM     17  C   UNL     1       4.352   3.943  18.002  0.00  0.00    +0.000 A 
ATOM     18  C   UNL     1       3.707   3.626  16.792  0.00  0.00    +0.000 A 
ATOM     19  C   UNL     1       4.405   3.667  15.574  0.00  0.00    +0.000 A 
BRANCH  14  22
ATOM     20  C   UNL     1       7.396   5.017  13.978  0.00  0.00    +0.000 C 
ATOM     21  O   UNL     1       7.877   5.851  14.750  0.00  0.00    +0.000 OA
ATOM     22  N   UNL     1       6.434   4.079  14.314  0.00  0.00    +0.000 N 
ATOM     23  H   UNL     1       6.278   3.312  13.670  0.00  0.00    +0.000 HD
BRANCH  20  25
ATOM     24  C   UNL     1       7.053   3.887  11.789  0.00  0.00    +0.000 C 
ATOM     25  C   UNL     1       7.855   4.945  12.539  0.00  0.00    +0.000 C 
ENDBRANCH  20  25
ENDBRANCH  14  22
ENDBRANCH   1  17
BRANCH  10  26
ATOM     26  C   UNL     1       1.671   9.618  18.481  0.00  0.00    +0.000 A 
ATOM     27  C   UNL     1       2.468  10.603  17.888  0.00  0.00    +0.000 A 
ATOM     28  C   UNL     1       2.282  11.956  18.182  0.00  0.00    +0.000 A 
ATOM     29  C   UNL     1       1.295  12.352  19.081  0.00  0.00    +0.000 A 
ATOM     30  C   UNL     1       0.518  11.381  19.713  0.00  0.00    +0.000 A 
ATOM     31  C   UNL     1       0.700  10.023  19.405  0.00  0.00    +0.000 A 
BRANCH  29  32
ATOM     32  O   UNL     1       1.209  13.698  19.299  0.00  0.00    +0.000 OA
ATOM     33  C   UNL     1      -0.112  14.225  19.332  0.00  0.00    +0.000 C 
ENDBRANCH  29  32
ENDBRANCH  10  26
TORSDOF 5
ENDMDL
MODEL 8
REMARK VINA RESULT:      -6.8      4.248      8.962
REMARK  Name = 
REMARK  7 active torsions:
REMARK  status: ('A' for Active; 'I' for Inactive)
REMARK    1  A    between atoms: C_1  and  C_2
REMARK    2  A    between atoms: C_2  and  C_3
REMARK    3  A    between atoms: N_5  and  C_6
REMARK    4  A    between atoms: C_9  and  N_10
REMARK    5  A    between atoms: N_19  and  C_20
REMARK    6  A    between atoms: C_23  and  O_24
REMARK    7  A    between atoms: O_24  and  C_25
REMARK                            x       y       z     vdW  Elec       q    Type
REMARK                         _______ _______ _______ _____ _____    ______ ____
ROOT
ATOM      1  N   UNL     1       3.543   5.088  19.058  0.00  0.00    +0.000 N 
ATOM      2  C   UNL     1       3.534   3.977  19.894  0.00  0.00    +0.000 A 
ATOM      3  O   UNL     1       4.161   2.930  19.759  0.00  0.00    +0.000 OA
ATOM      4  C   UNL     1       2.613   4.048  21.079  0.00  0.00    +0.000 A 
ATOM      5  N   UNL     1       1.879   5.072  21.372  0.00  0.00    +0.000 NA
ATOM      6  C   UNL     1       1.942   6.167  20.494  0.00  0.00    +0.000 A 
ATOM      7  C   UNL     1       1.220   7.306  20.761  0.00  0.00    +0.000 A 
ATOM      8  N   UNL     1       1.208   8.392  19.969  0.00  0.00    +0.000 NA
ATOM      9  C   UNL     1       1.931   8.344  18.842  0.00  0.00    +0.000 A 
ATOM     10  N   UNL     1       1.850   9.406  17.943  0.00  0.00    +0.000 N 
ATOM     11  N   UNL     1       2.685   7.287  18.499  0.00  0.00    +0.000 NA
ATOM     12  C   UNL     1       2.697   6.213  19.328  0.00  0.00    +0.000 A 
ATOM     13  H   UNL     1       2.341   9.203  17.083  0.00  0.00    +0.000 HD
ENDROOT
BRANCH   1  17
ATOM     14  C   UNL     1       5.985   5.223  15.590  0.00  0.00    +0.000 A 
ATOM     15  C   UNL     1       6.167   6.122  16.644  0.00  0.00    +0.000 A 
ATOM     16  C   UNL     1       5.390   6.056  17.797  0.00  0.00    +0.000 A 
ATOM     17  C   UNL     1       4.382   5.109  17.913  0.00  0.00    +0.000 A 
ATOM     18  C   UNL     1       4.162   4.223  16.842  0.00  0.00    +0.000 A 
ATOM     19  C   UNL     1       4.965   4.275  15.691  0.00  0.00    +0.000 A 
BRANCH  14  22
ATOM     20  C   UNL     1       6.574   4.473  13.304  0.00  0.00    +0.000 C 
ATOM     21  O   UNL     1       5.606   3.728  13.126  0.00  0.00    +0.000 OA
ATOM     22  N   UNL     1       6.777   5.265  14.422  0.00  0.00    +0.000 N 
ATOM     23  H   UNL     1       7.480   5.993  14.363  0.00  0.00    +0.000 HD
BRANCH  20  25
ATOM     24  C   UNL     1       8.473   5.859  12.492  0.00  0.00    +0.000 C 
ATOM     25  C   UNL     1       7.659   4.592  12.257  0.00  0.00    +0.000 C 
ENDBRANCH  20  25
ENDBRANCH  14  22
ENDBRANCH   1  17
BRANCH  10  26
ATOM     26  C   UNL     1       1.641  10.768  18.219  0.00  0.00    +0.000 A 
ATOM     27  C   UNL     1       2.654  11.723  18.070  0.00  0.00    +0.000 A 
ATOM     28  C   UNL     1       2.425  13.069  18.363  0.00  0.00    +0.000 A 
ATOM     29  C   UNL     1       1.177  13.489  18.817  0.00  0.00    +0.000 A 
ATOM     30  C   UNL     1       0.169  12.545  19.011  0.00  0.00    +0.000 A 
ATOM     31  C   UNL     1       0.399  11.195  18.703  0.00  0.00    +0.000 A 
BRANCH  29  32
ATOM     32  O   UNL     1       1.071  14.826  19.080  0.00  0.00    +0.000 OA
ATOM     33  C   UNL     1      -0.192  15.406  18.777  0.00  0.00    +0.000 C 
ENDBRANCH  29  32
ENDBRANCH  10  26
TORSDOF 5
ENDMDL
MODEL 9
REMARK VINA RESULT:      -6.8      4.281      5.817
REMARK  Name = 
REMARK  7 active torsions:
REMARK  status: ('A' for Active; 'I' for Inactive)
REMARK    1  A    between atoms: C_1  and  C_2
REMARK    2  A    between atoms: C_2  and  C_3
REMARK    3  A    between atoms: N_5  and  C_6
REMARK    4  A    between atoms: C_9  and  N_10
REMARK    5  A    between atoms: N_19  and  C_20
REMARK    6  A    between atoms: C_23  and  O_24
REMARK    7  A    between atoms: O_24  and  C_25
REMARK                            x       y       z     vdW  Elec       q    Type
REMARK                         _______ _______ _______ _____ _____    ______ ____
ROOT
ATOM      1  N   UNL     1      -0.251  14.081  19.978  0.00  0.00    +0.000 N 
ATOM      2  C   UNL     1       0.015  15.444  19.915  0.00  0.00    +0.000 A 
ATOM      3  O   UNL     1      -0.660  16.364  20.370  0.00  0.00    +0.000 OA
ATOM      4  C   UNL     1       1.251  15.844  19.160  0.00  0.00    +0.000 A 
ATOM      5  N   UNL     1       2.075  15.008  18.614  0.00  0.00    +0.000 NA
ATOM      6  C   UNL     1       1.755  13.644  18.724  0.00  0.00    +0.000 A 
ATOM      7  C   UNL     1       2.602  12.694  18.203  0.00  0.00    +0.000 A 
ATOM      8  N   UNL     1       2.369  11.371  18.249  0.00  0.00    +0.000 NA
ATOM      9  C   UNL     1       1.227  10.964  18.818  0.00  0.00    +0.000 A 
ATOM     10  N   UNL     1       0.899   9.610  18.780  0.00  0.00    +0.000 N 
ATOM     11  N   UNL     1       0.342  11.808  19.373  0.00  0.00    +0.000 NA
ATOM     12  C   UNL     1       0.614  13.137  19.334  0.00  0.00    +0.000 A 
ATOM     13  H   UNL     1      -0.033   9.443  19.132  0.00  0.00    +0.000 HD
ENDROOT
BRANCH   1  17
ATOM     14  C   UNL     1      -3.714  12.784  22.059  0.00  0.00    +0.000 A 
ATOM     15  C   UNL     1      -3.731  12.993  20.678  0.00  0.00    +0.000 A 
ATOM     16  C   UNL     1      -2.587  13.384  19.989  0.00  0.00    +0.000 A 
ATOM     17  C   UNL     1      -1.398  13.613  20.670  0.00  0.00    +0.000 A 
ATOM     18  C   UNL     1      -1.378  13.444  22.067  0.00  0.00    +0.000 A 
ATOM     19  C   UNL     1      -2.528  13.025  22.755  0.00  0.00    +0.000 A 
BRANCH  14  22
ATOM     20  C   UNL     1      -5.844  13.223  23.245  0.00  0.00    +0.000 C 
ATOM     21  O   UNL     1      -5.917  14.430  23.000  0.00  0.00    +0.000 OA
ATOM     22  N   UNL     1      -4.862  12.370  22.769  0.00  0.00    +0.000 N 
ATOM     23  H   UNL     1      -5.025  11.373  22.849  0.00  0.00    +0.000 HD
BRANCH  20  25
ATOM     24  C   UNL     1      -7.917  11.848  23.244  0.00  0.00    +0.000 C 
ATOM     25  C   UNL     1      -6.881  12.548  24.115  0.00  0.00    +0.000 C 
ENDBRANCH  20  25
ENDBRANCH  14  22
ENDBRANCH   1  17
BRANCH  10  26
ATOM     26  C   UNL     1       1.764   8.502  18.796  0.00  0.00    +0.000 A 
ATOM     27  C   UNL     1       2.580   8.178  17.706  0.00  0.00    +0.000 A 
ATOM     28  C   UNL     1       3.422   7.064  17.742  0.00  0.00    +0.000 A 
ATOM     29  C   UNL     1       3.462   6.246  18.869  0.00  0.00    +0.000 A 
ATOM     30  C   UNL     1       2.625   6.531  19.947  0.00  0.00    +0.000 A 
ATOM     31  C   UNL     1       1.790   7.658  19.913  0.00  0.00    +0.000 A 
BRANCH  29  32
ATOM     32  O   UNL     1       4.315   5.181  18.788  0.00  0.00    +0.000 OA
ATOM     33  C   UNL     1       3.842   3.978  19.382  0.00  0.00    +0.000 C 
ENDBRANCH  29  32
ENDBRANCH  10  26
TORSDOF 5
ENDMDL
