MODEL 1
REMARK VINA RESULT:      -7.7      0.000      0.000
REMARK  Name = 
REMARK  6 active torsions:
REMARK  status: ('A' for Active; 'I' for Inactive)
REMARK    1  A    between atoms: C_1  and  C_2
REMARK    2  A    between atoms: C_2  and  C_3
REMARK    3  A    between atoms: C_3  and  C_4
REMARK    4  A    between atoms: N_8  and  C_9
REMARK    5  A    between atoms: C_13  and  C_14
REMARK    6  A    between atoms: N_20  and  C_21
REMARK                            x       y       z     vdW  Elec       q    Type
REMARK                         _______ _______ _______ _____ _____    ______ ____
ROOT
ATOM      1  C   UNL     1       1.972   4.383  19.131  0.00  0.00    +0.000 C 
ATOM      2  C   UNL     1       3.040   3.308  19.027  0.00  0.00    +0.000 C 
ATOM      3  C   UNL     1       3.438   3.199  17.599  0.00  0.00    +0.000 C 
ATOM      4  O   UNL     1       2.753   2.594  16.786  0.00  0.00    +0.000 OA
ATOM      5  N   UNL     1       4.626   3.863  17.398  0.00  0.00    +0.000 N 
ATOM      6  C   UNL     1       5.278   4.086  18.585  0.00  0.00    +0.000 C 
ATOM      7  O   UNL     1       6.437   4.436  18.781  0.00  0.00    +0.000 OA
ATOM      8  C   UNL     1       4.263   3.877  19.696  0.00  0.00    +0.000 C 
ATOM      9  O   UNL     1       3.938   5.160  20.216  0.00  0.00    +0.000 OA
ATOM     10  N   UNL     1       2.702   5.526  19.662  0.00  0.00    +0.000 N 
ENDROOT
BRANCH   5  11
ATOM     11  C   UNL     1       5.030   4.354  16.134  0.00  0.00    +0.000 A 
ATOM     12  C   UNL     1       5.130   5.743  15.944  0.00  0.00    +0.000 A 
ATOM     13  C   UNL     1       5.659   6.278  14.773  0.00  0.00    +0.000 A 
ATOM     14  C   UNL     1       6.057   5.429  13.751  0.00  0.00    +0.000 A 
ATOM     15  C   UNL     1       5.942   4.042  13.896  0.00  0.00    +0.000 A 
ATOM     16  C   UNL     1       6.323   3.125  12.773  0.00  0.00    +0.000 C 
ATOM     17  C   UNL     1       5.446   3.509  15.100  0.00  0.00    +0.000 A 
ENDBRANCH   5  11
BRANCH  10  18
ATOM     18  C   UNL     1       2.429   6.864  19.373  0.00  0.00    +0.000 A 
ATOM     19  C   UNL     1       1.755   7.661  20.316  0.00  0.00    +0.000 A 
ATOM     20  C   UNL     1       1.298   8.946  20.011  0.00  0.00    +0.000 A 
ATOM     21  C   UNL     1       1.506   9.467  18.740  0.00  0.00    +0.000 A 
ATOM     22  C   UNL     1       2.240   8.734  17.812  0.00  0.00    +0.000 A 
ATOM     23  C   UNL     1       2.723   7.459  18.139  0.00  0.00    +0.000 A 
ENDBRANCH  10  18
BRANCH   1  24
ATOM     24  C   UNL     1       0.794   3.955  20.019  0.00  0.00    +0.000 C 
BRANCH  24  26
ATOM     25  C   UNL     1       1.601   2.712  22.058  0.00  0.00    +0.000 C 
ATOM     26  C   UNL     1       0.942   2.588  20.692  0.00  0.00    +0.000 C 
ENDBRANCH  24  26
ENDBRANCH   1  24
TORSDOF 4
ENDMDL
MODEL 2
REMARK VINA RESULT:      -6.7      5.693     10.428
REMARK  Name = 
REMARK  6 active torsions:
REMARK  status: ('A' for Active; 'I' for Inactive)
REMARK    1  A    between atoms: C_1  and  C_2
REMARK    2  A    between atoms: C_2  and  C_3
REMARK    3  A    between atoms: C_3  and  C_4
REMARK    4  A    between atoms: N_8  and  C_9
REMARK    5  A    between atoms: C_13  and  C_14
REMARK    6  A    between atoms: N_20  and  C_21
REMARK                            x       y       z     vdW  Elec       q    Type
REMARK                         _______ _______ _______ _____ _____    ______ ____
ROOT
ATOM      1  C   UNL     1       0.637  11.067  19.099  0.00  0.00    +0.000 C 
ATOM      2  C   UNL     1       1.137  11.101  20.533  0.00  0.00    +0.000 C 
ATOM      3  C   UNL     1       0.823  12.441  21.093  0.00  0.00    +0.000 C 
ATOM      4  O   UNL     1       1.507  13.422  20.832  0.00  0.00    +0.000 OA
ATOM      5  N   UNL     1      -0.297  12.361  21.887  0.00  0.00    +0.000 N 
ATOM      6  C   UNL     1      -0.561  11.061  22.243  0.00  0.00    +0.000 C 
ATOM      7  O   UNL     1      -1.319  10.630  23.105  0.00  0.00    +0.000 OA
ATOM      8  C   UNL     1       0.238  10.172  21.305  0.00  0.00    +0.000 C 
ATOM      9  O   UNL     1      -0.685   9.579  20.400  0.00  0.00    +0.000 OA
ATOM     10  N   UNL     1      -0.596  10.295  19.197  0.00  0.00    +0.000 N 
ENDROOT
BRANCH   5  11
ATOM     11  C   UNL     1      -1.122  13.474  22.173  0.00  0.00    +0.000 A 
ATOM     12  C   UNL     1      -1.999  13.944  21.180  0.00  0.00    +0.000 A 
ATOM     13  C   UNL     1      -2.933  14.939  21.451  0.00  0.00    +0.000 A 
ATOM     14  C   UNL     1      -2.975  15.514  22.713  0.00  0.00    +0.000 A 
ATOM     15  C   UNL     1      -2.095  15.091  23.714  0.00  0.00    +0.000 A 
ATOM     16  C   UNL     1      -2.104  15.746  25.063  0.00  0.00    +0.000 C 
ATOM     17  C   UNL     1      -1.184  14.054  23.444  0.00  0.00    +0.000 A 
ENDBRANCH   5  11
BRANCH  10  18
ATOM     18  C   UNL     1      -1.728  10.479  18.403  0.00  0.00    +0.000 A 
ATOM     19  C   UNL     1      -1.833   9.814  17.167  0.00  0.00    +0.000 A 
ATOM     20  C   UNL     1      -2.854  10.099  16.255  0.00  0.00    +0.000 A 
ATOM     21  C   UNL     1      -3.800  11.068  16.561  0.00  0.00    +0.000 A 
ATOM     22  C   UNL     1      -3.769  11.684  17.808  0.00  0.00    +0.000 A 
ATOM     23  C   UNL     1      -2.761  11.368  18.730  0.00  0.00    +0.000 A 
ENDBRANCH  10  18
BRANCH   1  24
ATOM     24  C   UNL     1       1.660  10.447  18.136  0.00  0.00    +0.000 C 
BRANCH  24  26
ATOM     25  C   UNL     1       2.846   8.242  17.850  0.00  0.00    +0.000 C 
ATOM     26  C   UNL     1       1.497   8.947  17.882  0.00  0.00    +0.000 C 
ENDBRANCH  24  26
ENDBRANCH   1  24
TORSDOF 4
ENDMDL
MODEL 3
REMARK VINA RESULT:      -6.7      0.913      1.083
REMARK  Name = 
REMARK  6 active torsions:
REMARK  status: ('A' for Active; 'I' for Inactive)
REMARK    1  A    between atoms: C_1  and  C_2
REMARK    2  A    between atoms: C_2  and  C_3
REMARK    3  A    between atoms: C_3  and  C_4
REMARK    4  A    between atoms: N_8  and  C_9
REMARK    5  A    between atoms: C_13  and  C_14
REMARK    6  A    between atoms: N_20  and  C_21
REMARK                            x       y       z     vdW  Elec       q    Type
REMARK                         _______ _______ _______ _____ _____    ______ ____
ROOT
ATOM      1  C   UNL     1       2.447   4.521  19.131  0.00  0.00    +0.000 C 
ATOM      2  C   UNL     1       3.583   3.519  19.238  0.00  0.00    +0.000 C 
ATOM      3  C   UNL     1       4.089   3.256  17.866  0.00  0.00    +0.000 C 
ATOM      4  O   UNL     1       3.502   2.507  17.097  0.00  0.00    +0.000 OA
ATOM      5  N   UNL     1       5.246   3.970  17.654  0.00  0.00    +0.000 N 
ATOM      6  C   UNL     1       5.796   4.386  18.841  0.00  0.00    +0.000 C 
ATOM      7  O   UNL     1       6.915   4.838  19.064  0.00  0.00    +0.000 OA
ATOM      8  C   UNL     1       4.717   4.251  19.903  0.00  0.00    +0.000 C 
ATOM      9  O   UNL     1       4.279   5.564  20.227  0.00  0.00    +0.000 OA
ATOM     10  N   UNL     1       3.067   5.771  19.552  0.00  0.00    +0.000 N 
ENDROOT
BRANCH   5  11
ATOM     11  C   UNL     1       5.711   4.323  16.365  0.00  0.00    +0.000 A 
ATOM     12  C   UNL     1       6.858   5.127  16.252  0.00  0.00    +0.000 A 
ATOM     13  C   UNL     1       7.442   5.386  15.017  0.00  0.00    +0.000 A 
ATOM     14  C   UNL     1       6.860   4.877  13.864  0.00  0.00    +0.000 A 
ATOM     15  C   UNL     1       5.700   4.100  13.939  0.00  0.00    +0.000 A 
ATOM     16  C   UNL     1       5.040   3.593  12.692  0.00  0.00    +0.000 C 
ATOM     17  C   UNL     1       5.141   3.808  15.197  0.00  0.00    +0.000 A 
ENDBRANCH   5  11
BRANCH  10  18
ATOM     18  C   UNL     1       2.736   7.038  19.073  0.00  0.00    +0.000 A 
ATOM     19  C   UNL     1       1.895   7.876  19.830  0.00  0.00    +0.000 A 
ATOM     20  C   UNL     1       1.388   9.075  19.319  0.00  0.00    +0.000 A 
ATOM     21  C   UNL     1       1.711   9.464  18.026  0.00  0.00    +0.000 A 
ATOM     22  C   UNL     1       2.604   8.698  17.284  0.00  0.00    +0.000 A 
ATOM     23  C   UNL     1       3.135   7.514  17.816  0.00  0.00    +0.000 A 
ENDBRANCH  10  18
BRANCH   1  24
ATOM     24  C   UNL     1       1.236   4.130  19.991  0.00  0.00    +0.000 C 
BRANCH  24  26
ATOM     25  C   UNL     1       0.496   2.060  18.758  0.00  0.00    +0.000 C 
ATOM     26  C   UNL     1       0.960   2.627  20.091  0.00  0.00    +0.000 C 
ENDBRANCH  24  26
ENDBRANCH   1  24
TORSDOF 4
ENDMDL
MODEL 4
REMARK VINA RESULT:      -6.7      6.166     10.893
REMARK  Name = 
REMARK  6 active torsions:
REMARK  status: ('A' for Active; 'I' for Inactive)
REMARK    1  A    between atoms: C_1  and  C_2
REMARK    2  A    between atoms: C_2  and  C_3
REMARK    3  A    between atoms: C_3  and  C_4
REMARK    4  A    between atoms: N_8  and  C_9
REMARK    5  A    between atoms: C_13  and  C_14
REMARK    6  A    between atoms: N_20  and  C_21
REMARK                            x       y       z     vdW  Elec       q    Type
REMARK                         _______ _______ _______ _____ _____    ______ ____
ROOT
ATOM      1  C   UNL     1      -1.744  10.517  18.154  0.00  0.00    +0.000 C 
ATOM      2  C   UNL     1      -2.272  11.936  18.041  0.00  0.00    +0.000 C 
ATOM      3  C   UNL     1      -3.264  12.141  19.128  0.00  0.00    +0.000 C 
ATOM      4  O   UNL     1      -4.407  11.711  19.044  0.00  0.00    +0.000 OA
ATOM      5  N   UNL     1      -2.684  12.845  20.158  0.00  0.00    +0.000 N 
ATOM      6  C   UNL     1      -1.536  13.475  19.744  0.00  0.00    +0.000 C 
ATOM      7  O   UNL     1      -0.888  14.354  20.301  0.00  0.00    +0.000 OA
ATOM      8  C   UNL     1      -1.128  12.834  18.428  0.00  0.00    +0.000 C 
ATOM      9  O   UNL     1       0.012  12.026  18.690  0.00  0.00    +0.000 OA
ATOM     10  N   UNL     1      -0.436  10.699  18.769  0.00  0.00    +0.000 N 
ENDROOT
BRANCH   5  11
ATOM     11  C   UNL     1      -3.161  12.799  21.489  0.00  0.00    +0.000 A 
ATOM     12  C   UNL     1      -2.418  12.098  22.454  0.00  0.00    +0.000 A 
ATOM     13  C   UNL     1      -2.760  12.138  23.802  0.00  0.00    +0.000 A 
ATOM     14  C   UNL     1      -3.882  12.850  24.203  0.00  0.00    +0.000 A 
ATOM     15  C   UNL     1      -4.661  13.533  23.263  0.00  0.00    +0.000 A 
ATOM     16  C   UNL     1      -5.902  14.259  23.687  0.00  0.00    +0.000 C 
ATOM     17  C   UNL     1      -4.283  13.521  21.909  0.00  0.00    +0.000 A 
ENDBRANCH   5  11
BRANCH  10  18
ATOM     18  C   UNL     1       0.178   9.800  19.642  0.00  0.00    +0.000 A 
ATOM     19  C   UNL     1       1.305   9.071  19.220  0.00  0.00    +0.000 A 
ATOM     20  C   UNL     1       1.847   8.033  19.984  0.00  0.00    +0.000 A 
ATOM     21  C   UNL     1       1.264   7.695  21.198  0.00  0.00    +0.000 A 
ATOM     22  C   UNL     1       0.199   8.451  21.679  0.00  0.00    +0.000 A 
ATOM     23  C   UNL     1      -0.317   9.512  20.922  0.00  0.00    +0.000 A 
ENDBRANCH  10  18
BRANCH   1  24
ATOM     24  C   UNL     1      -1.678   9.806  16.794  0.00  0.00    +0.000 C 
BRANCH  24  26
ATOM     25  C   UNL     1      -2.916  10.151  14.627  0.00  0.00    +0.000 C 
ATOM     26  C   UNL     1      -3.014   9.660  16.064  0.00  0.00    +0.000 C 
ENDBRANCH  24  26
ENDBRANCH   1  24
TORSDOF 4
ENDMDL
MODEL 5
REMARK VINA RESULT:      -6.7      5.497      9.249
REMARK  Name = 
REMARK  6 active torsions:
REMARK  status: ('A' for Active; 'I' for Inactive)
REMARK    1  A    between atoms: C_1  and  C_2
REMARK    2  A    between atoms: C_2  and  C_3
REMARK    3  A    between atoms: C_3  and  C_4
REMARK    4  A    between atoms: N_8  and  C_9
REMARK    5  A    between atoms: C_13  and  C_14
REMARK    6  A    between atoms: N_20  and  C_21
REMARK                            x       y       z     vdW  Elec       q    Type
REMARK                         _______ _______ _______ _____ _____    ______ ____
ROOT
ATOM      1  C   UNL     1      -0.754  13.649  19.715  0.00  0.00    +0.000 C 
ATOM      2  C   UNL     1      -0.296  13.075  18.386  0.00  0.00    +0.000 C 
ATOM      3  C   UNL     1       0.783  12.092  18.662  0.00  0.00    +0.000 C 
ATOM      4  O   UNL     1       1.929  12.447  18.903  0.00  0.00    +0.000 OA
ATOM      5  N   UNL     1       0.273  10.816  18.603  0.00  0.00    +0.000 N 
ATOM      6  C   UNL     1      -0.932  10.792  17.946  0.00  0.00    +0.000 C 
ATOM      7  O   UNL     1      -1.561   9.834  17.509  0.00  0.00    +0.000 OA
ATOM      8  C   UNL     1      -1.434  12.225  17.889  0.00  0.00    +0.000 C 
ATOM      9  O   UNL     1      -2.513  12.330  18.810  0.00  0.00    +0.000 OA
ATOM     10  N   UNL     1      -2.007  12.946  19.964  0.00  0.00    +0.000 N 
ENDROOT
BRANCH   5  11
ATOM     11  C   UNL     1       0.873   9.714  19.259  0.00  0.00    +0.000 A 
ATOM     12  C   UNL     1       0.562   9.474  20.608  0.00  0.00    +0.000 A 
ATOM     13  C   UNL     1       1.007   8.329  21.261  0.00  0.00    +0.000 A 
ATOM     14  C   UNL     1       1.808   7.422  20.583  0.00  0.00    +0.000 A 
ATOM     15  C   UNL     1       2.162   7.647  19.249  0.00  0.00    +0.000 A 
ATOM     16  C   UNL     1       3.071   6.695  18.530  0.00  0.00    +0.000 C 
ATOM     17  C   UNL     1       1.673   8.786  18.584  0.00  0.00    +0.000 A 
ENDBRANCH   5  11
BRANCH  10  18
ATOM     18  C   UNL     1      -2.501  12.598  21.222  0.00  0.00    +0.000 A 
ATOM     19  C   UNL     1      -3.793  13.005  21.604  0.00  0.00    +0.000 A 
ATOM     20  C   UNL     1      -4.266  12.840  22.909  0.00  0.00    +0.000 A 
ATOM     21  C   UNL     1      -3.448  12.263  23.872  0.00  0.00    +0.000 A 
ATOM     22  C   UNL     1      -2.197  11.778  23.503  0.00  0.00    +0.000 A 
ATOM     23  C   UNL     1      -1.743  11.917  22.184  0.00  0.00    +0.000 A 
ENDBRANCH  10  18
BRANCH   1  24
ATOM     24  C   UNL     1      -0.918  15.175  19.670  0.00  0.00    +0.000 C 
BRANCH  24  26
ATOM     25  C   UNL     1      -0.127  17.419  18.838  0.00  0.00    +0.000 C 
ATOM     26  C   UNL     1       0.032  15.910  18.722  0.00  0.00    +0.000 C 
ENDBRANCH  24  26
ENDBRANCH   1  24
TORSDOF 4
ENDMDL
MODEL 6
REMARK VINA RESULT:      -6.6      7.676     10.992
REMARK  Name = 
REMARK  6 active torsions:
REMARK  status: ('A' for Active; 'I' for Inactive)
REMARK    1  A    between atoms: C_1  and  C_2
REMARK    2  A    between atoms: C_2  and  C_3
REMARK    3  A    between atoms: C_3  and  C_4
REMARK    4  A    between atoms: N_8  and  C_9
REMARK    5  A    between atoms: C_13  and  C_14
REMARK    6  A    between atoms: N_20  and  C_21
REMARK                            x       y       z     vdW  Elec       q    Type
REMARK                         _______ _______ _______ _____ _____    ______ ____
ROOT
ATOM      1  C   UNL     1       0.482  12.228  19.469  0.00  0.00    +0.000 C 
ATOM      2  C   UNL     1       0.967  12.105  20.902  0.00  0.00    +0.000 C 
ATOM      3  C   UNL     1       0.153  13.025  21.739  0.00  0.00    +0.000 C 
ATOM      4  O   UNL     1       0.373  14.229  21.769  0.00  0.00    +0.000 OA
ATOM      5  N   UNL     1      -0.814  12.311  22.407  0.00  0.00    +0.000 N 
ATOM      6  C   UNL     1      -0.517  10.971  22.425  0.00  0.00    +0.000 C 
ATOM      7  O   UNL     1      -1.010  10.074  23.102  0.00  0.00    +0.000 OA
ATOM      8  C   UNL     1       0.546  10.736  21.365  0.00  0.00    +0.000 C 
ATOM      9  O   UNL     1      -0.083  10.066  20.279  0.00  0.00    +0.000 OA
ATOM     10  N   UNL     1      -0.328  11.030  19.290  0.00  0.00    +0.000 N 
ENDROOT
BRANCH   5  11
ATOM     11  C   UNL     1      -2.011  12.894  22.886  0.00  0.00    +0.000 A 
ATOM     12  C   UNL     1      -1.938  13.846  23.917  0.00  0.00    +0.000 A 
ATOM     13  C   UNL     1      -3.062  14.555  24.329  0.00  0.00    +0.000 A 
ATOM     14  C   UNL     1      -4.291  14.292  23.742  0.00  0.00    +0.000 A 
ATOM     15  C   UNL     1      -4.403  13.328  22.734  0.00  0.00    +0.000 A 
ATOM     16  C   UNL     1      -5.739  13.004  22.135  0.00  0.00    +0.000 C 
ATOM     17  C   UNL     1      -3.254  12.646  22.295  0.00  0.00    +0.000 A 
ENDBRANCH   5  11
BRANCH  10  18
ATOM     18  C   UNL     1      -1.460  10.934  18.480  0.00  0.00    +0.000 A 
ATOM     19  C   UNL     1      -2.598  11.711  18.771  0.00  0.00    +0.000 A 
ATOM     20  C   UNL     1      -3.813  11.524  18.107  0.00  0.00    +0.000 A 
ATOM     21  C   UNL     1      -3.921  10.544  17.130  0.00  0.00    +0.000 A 
ATOM     22  C   UNL     1      -2.793   9.816  16.764  0.00  0.00    +0.000 A 
ATOM     23  C   UNL     1      -1.568  10.033  17.412  0.00  0.00    +0.000 A 
ENDBRANCH  10  18
BRANCH   1  24
ATOM     24  C   UNL     1       1.640  12.327  18.464  0.00  0.00    +0.000 C 
BRANCH  24  26
ATOM     25  C   UNL     1       2.050  14.810  18.603  0.00  0.00    +0.000 C 
ATOM     26  C   UNL     1       2.666  13.427  18.752  0.00  0.00    +0.000 C 
ENDBRANCH  24  26
ENDBRANCH   1  24
TORSDOF 4
ENDMDL
MODEL 7
REMARK VINA RESULT:      -6.6      8.180     11.828
REMARK  Name = 
REMARK  6 active torsions:
REMARK  status: ('A' for Active; 'I' for Inactive)
REMARK    1  A    between atoms: C_1  and  C_2
REMARK    2  A    between atoms: C_2  and  C_3
REMARK    3  A    between atoms: C_3  and  C_4
REMARK    4  A    between atoms: N_8  and  C_9
REMARK    5  A    between atoms: C_13  and  C_14
REMARK    6  A    between atoms: N_20  and  C_21
REMARK                            x       y       z     vdW  Elec       q    Type
REMARK                         _______ _______ _______ _____ _____    ______ ____
ROOT
ATOM      1  C   UNL     1      -0.981  13.654  19.850  0.00  0.00    +0.000 C 
ATOM      2  C   UNL     1      -0.799  13.800  21.350  0.00  0.00    +0.000 C 
ATOM      3  C   UNL     1      -2.127  14.111  21.941  0.00  0.00    +0.000 C 
ATOM      4  O   UNL     1      -2.604  15.236  21.890  0.00  0.00    +0.000 OA
ATOM      5  N   UNL     1      -2.662  12.974  22.501  0.00  0.00    +0.000 N 
ATOM      6  C   UNL     1      -1.698  12.018  22.700  0.00  0.00    +0.000 C 
ATOM      7  O   UNL     1      -1.749  10.990  23.368  0.00  0.00    +0.000 OA
ATOM      8  C   UNL     1      -0.494  12.419  21.865  0.00  0.00    +0.000 C 
ATOM      9  O   UNL     1      -0.432  11.528  20.759  0.00  0.00    +0.000 OA
ATOM     10  N   UNL     1      -0.960  12.210  19.653  0.00  0.00    +0.000 N 
ENDROOT
BRANCH   5  11
ATOM     11  C   UNL     1      -4.050  12.797  22.710  0.00  0.00    +0.000 A 
ATOM     12  C   UNL     1      -4.551  12.841  24.022  0.00  0.00    +0.000 A 
ATOM     13  C   UNL     1      -5.919  12.817  24.276  0.00  0.00    +0.000 A 
ATOM     14  C   UNL     1      -6.810  12.705  23.218  0.00  0.00    +0.000 A 
ATOM     15  C   UNL     1      -6.343  12.628  21.902  0.00  0.00    +0.000 A 
ATOM     16  C   UNL     1      -7.301  12.456  20.762  0.00  0.00    +0.000 C 
ATOM     17  C   UNL     1      -4.960  12.696  21.653  0.00  0.00    +0.000 A 
ENDBRANCH   5  11
BRANCH  10  18
ATOM     18  C   UNL     1      -1.675  11.518  18.675  0.00  0.00    +0.000 A 
ATOM     19  C   UNL     1      -3.068  11.694  18.569  0.00  0.00    +0.000 A 
ATOM     20  C   UNL     1      -3.855  10.896  17.733  0.00  0.00    +0.000 A 
ATOM     21  C   UNL     1      -3.262   9.892  16.980  0.00  0.00    +0.000 A 
ATOM     22  C   UNL     1      -1.878   9.747  17.003  0.00  0.00    +0.000 A 
ATOM     23  C   UNL     1      -1.092  10.574  17.819  0.00  0.00    +0.000 A 
ENDBRANCH  10  18
BRANCH   1  24
ATOM     24  C   UNL     1       0.109  14.386  19.052  0.00  0.00    +0.000 C 
BRANCH  24  26
ATOM     25  C   UNL     1       2.467  13.611  19.491  0.00  0.00    +0.000 C 
ATOM     26  C   UNL     1       1.265  13.510  18.563  0.00  0.00    +0.000 C 
ENDBRANCH  24  26
ENDBRANCH   1  24
TORSDOF 4
ENDMDL
MODEL 8
REMARK VINA RESULT:      -6.6      7.672     11.054
REMARK  Name = 
REMARK  6 active torsions:
REMARK  status: ('A' for Active; 'I' for Inactive)
REMARK    1  A    between atoms: C_1  and  C_2
REMARK    2  A    between atoms: C_2  and  C_3
REMARK    3  A    between atoms: C_3  and  C_4
REMARK    4  A    between atoms: N_8  and  C_9
REMARK    5  A    between atoms: C_13  and  C_14
REMARK    6  A    between atoms: N_20  and  C_21
REMARK                            x       y       z     vdW  Elec       q    Type
REMARK                         _______ _______ _______ _____ _____    ______ ____
ROOT
ATOM      1  C   UNL     1       0.376  12.196  19.535  0.00  0.00    +0.000 C 
ATOM      2  C   UNL     1       0.842  12.139  20.979  0.00  0.00    +0.000 C 
ATOM      3  C   UNL     1      -0.010  13.065  21.770  0.00  0.00    +0.000 C 
ATOM      4  O   UNL     1       0.175  14.275  21.759  0.00  0.00    +0.000 OA
ATOM      5  N   UNL     1      -0.967  12.348  22.449  0.00  0.00    +0.000 N 
ATOM      6  C   UNL     1      -0.634  11.018  22.521  0.00  0.00    +0.000 C 
ATOM      7  O   UNL     1      -1.112  10.133  23.223  0.00  0.00    +0.000 OA
ATOM      8  C   UNL     1       0.452  10.776  21.485  0.00  0.00    +0.000 C 
ATOM      9  O   UNL     1      -0.142  10.050  20.416  0.00  0.00    +0.000 OA
ATOM     10  N   UNL     1      -0.399  10.970  19.388  0.00  0.00    +0.000 N 
ENDROOT
BRANCH   5  11
ATOM     11  C   UNL     1      -2.187  12.914  22.890  0.00  0.00    +0.000 A 
ATOM     12  C   UNL     1      -2.165  13.839  23.947  0.00  0.00    +0.000 A 
ATOM     13  C   UNL     1      -3.309  14.534  24.326  0.00  0.00    +0.000 A 
ATOM     14  C   UNL     1      -4.510  14.280  23.679  0.00  0.00    +0.000 A 
ATOM     15  C   UNL     1      -4.573  13.342  22.643  0.00  0.00    +0.000 A 
ATOM     16  C   UNL     1      -5.879  13.029  21.977  0.00  0.00    +0.000 C 
ATOM     17  C   UNL     1      -3.402  12.676  22.239  0.00  0.00    +0.000 A 
ENDBRANCH   5  11
BRANCH  10  18
ATOM     18  C   UNL     1      -1.515  10.813  18.567  0.00  0.00    +0.000 A 
ATOM     19  C   UNL     1      -1.449   9.961  17.449  0.00  0.00    +0.000 A 
ATOM     20  C   UNL     1      -2.470   9.906  16.496  0.00  0.00    +0.000 A 
ATOM     21  C   UNL     1      -3.591  10.714  16.640  0.00  0.00    +0.000 A 
ATOM     22  C   UNL     1      -3.721  11.506  17.776  0.00  0.00    +0.000 A 
ATOM     23  C   UNL     1      -2.706  11.530  18.744  0.00  0.00    +0.000 A 
ENDBRANCH  10  18
BRANCH   1  24
ATOM     24  C   UNL     1       1.545  12.292  18.545  0.00  0.00    +0.000 C 
BRANCH  24  26
ATOM     25  C   UNL     1       3.273  14.086  18.930  0.00  0.00    +0.000 C 
ATOM     26  C   UNL     1       1.994  13.713  18.195  0.00  0.00    +0.000 C 
ENDBRANCH  24  26
ENDBRANCH   1  24
TORSDOF 4
ENDMDL
MODEL 9
REMARK VINA RESULT:      -6.6      5.751     10.381
REMARK  Name = 
REMARK  6 active torsions:
REMARK  status: ('A' for Active; 'I' for Inactive)
REMARK    1  A    between atoms: C_1  and  C_2
REMARK    2  A    between atoms: C_2  and  C_3
REMARK    3  A    between atoms: C_3  and  C_4
REMARK    4  A    between atoms: N_8  and  C_9
REMARK    5  A    between atoms: C_13  and  C_14
REMARK    6  A    between atoms: N_20  and  C_21
REMARK                            x       y       z     vdW  Elec       q    Type
REMARK                         _______ _______ _______ _____ _____    ______ ____
ROOT
ATOM      1  C   UNL     1       0.640  11.248  19.191  0.00  0.00    +0.000 C 
ATOM      2  C   UNL     1       1.098  11.240  20.639  0.00  0.00    +0.000 C 
ATOM      3  C   UNL     1       0.729  12.547  21.241  0.00  0.00    +0.000 C 
ATOM      4  O   UNL     1       1.392  13.556  21.039  0.00  0.00    +0.000 OA
ATOM      5  N   UNL     1      -0.410  12.404  21.998  0.00  0.00    +0.000 N 
ATOM      6  C   UNL     1      -0.646  11.085  22.295  0.00  0.00    +0.000 C 
ATOM      7  O   UNL     1      -1.416  10.599  23.117  0.00  0.00    +0.000 OA
ATOM      8  C   UNL     1       0.205  10.256  21.347  0.00  0.00    +0.000 C 
ATOM      9  O   UNL     1      -0.674   9.674  20.393  0.00  0.00    +0.000 OA
ATOM     10  N   UNL     1      -0.572  10.440  19.222  0.00  0.00    +0.000 N 
ENDROOT
BRANCH   5  11
ATOM     11  C   UNL     1      -1.275  13.482  22.302  0.00  0.00    +0.000 A 
ATOM     12  C   UNL     1      -1.051  14.223  23.475  0.00  0.00    +0.000 A 
ATOM     13  C   UNL     1      -1.777  15.378  23.752  0.00  0.00    +0.000 A 
ATOM     14  C   UNL     1      -2.772  15.787  22.876  0.00  0.00    +0.000 A 
ATOM     15  C   UNL     1      -3.042  15.054  21.716  0.00  0.00    +0.000 A 
ATOM     16  C   UNL     1      -4.152  15.465  20.796  0.00  0.00    +0.000 C 
ATOM     17  C   UNL     1      -2.274  13.912  21.423  0.00  0.00    +0.000 A 
ENDBRANCH   5  11
BRANCH  10  18
ATOM     18  C   UNL     1      -1.686  10.623  18.402  0.00  0.00    +0.000 A 
ATOM     19  C   UNL     1      -2.680  11.550  18.767  0.00  0.00    +0.000 A 
ATOM     20  C   UNL     1      -3.895  11.643  18.082  0.00  0.00    +0.000 A 
ATOM     21  C   UNL     1      -4.147  10.800  17.008  0.00  0.00    +0.000 A 
ATOM     22  C   UNL     1      -3.151   9.930  16.573  0.00  0.00    +0.000 A 
ATOM     23  C   UNL     1      -1.922   9.867  17.245  0.00  0.00    +0.000 A 
ENDBRANCH  10  18
BRANCH   1  24
ATOM     24  C   UNL     1       1.708  10.697  18.235  0.00  0.00    +0.000 C 
BRANCH  24  26
ATOM     25  C   UNL     1       2.321   8.270  18.530  0.00  0.00    +0.000 C 
ATOM     26  C   UNL     1       1.476   9.264  17.748  0.00  0.00    +0.000 C 
ENDBRANCH  24  26
ENDBRANCH   1  24
TORSDOF 4
ENDMDL
