MODEL 1
REMARK VINA RESULT:      -8.0      0.000      0.000
REMARK  Name = 
REMARK  9 active torsions:
REMARK  status: ('A' for Active; 'I' for Inactive)
REMARK    1  A    between atoms: C_1  and  C_2
REMARK    2  A    between atoms: C_2  and  C_3
REMARK    3  A    between atoms: C_2  and  O_4
REMARK    4  A    between atoms: O_4  and  C_5
REMARK    5  A    between atoms: C_10  and  N_11
REMARK    6  A    between atoms: N_14  and  C_15
REMARK    7  A    between atoms: C_15  and  C_16
REMARK    8  A    between atoms: C_18  and  C_19
REMARK    9  A    between atoms: C_19  and  N_20
REMARK                            x       y       z     vdW  Elec       q    Type
REMARK                         _______ _______ _______ _____ _____    ______ ____
ROOT
ATOM      1  N   UNL     1       1.381   8.943  20.110  0.00  0.00    +0.000 N 
ATOM      2  C   UNL     1       1.876   7.577  20.298  0.00  0.00    +0.000 C 
ATOM      3  C   UNL     1       1.775   6.790  18.956  0.00  0.00    +0.000 C 
ATOM      4  N   UNL     1       2.271   7.454  17.724  0.00  0.00    +0.000 NA
ATOM      5  C   UNL     1       1.815   8.864  17.701  0.00  0.00    +0.000 C 
ATOM      6  C   UNL     1       2.046   9.650  19.006  0.00  0.00    +0.000 C 
ENDROOT
BRANCH   1  12
ATOM      7  C   UNL     1      -0.392  10.620  20.653  0.00  0.00    +0.000 A 
ATOM      8  C   UNL     1      -1.254  11.146  21.633  0.00  0.00    +0.000 A 
ATOM      9  C   UNL     1      -1.123  10.798  22.973  0.00  0.00    +0.000 A 
ATOM     10  C   UNL     1      -0.143   9.895  23.350  0.00  0.00    +0.000 A 
ATOM     11  C   UNL     1       0.668   9.317  22.374  0.00  0.00    +0.000 A 
ATOM     12  C   UNL     1       0.555   9.619  20.996  0.00  0.00    +0.000 A 
BRANCH   7  13
ATOM     13  O   UNL     1      -0.526  11.003  19.336  0.00  0.00    +0.000 OA
BRANCH  13  15
ATOM     14  C   UNL     1      -2.536  11.946  18.400  0.00  0.00    +0.000 C 
ATOM     15  C   UNL     1      -1.761  10.660  18.676  0.00  0.00    +0.000 C 
ATOM     16  C   UNL     1      -1.428   9.931  17.377  0.00  0.00    +0.000 C 
ENDBRANCH  13  15
ENDBRANCH   7  13
ENDBRANCH   1  12
BRANCH   4  17
ATOM     17  C   UNL     1       3.728   7.319  17.577  0.00  0.00    +0.000 C 
BRANCH  17  18
ATOM     18  C   UNL     1       4.135   5.922  17.168  0.00  0.00    +0.000 A 
ATOM     19  C   UNL     1       3.560   4.724  17.538  0.00  0.00    +0.000 A 
ATOM     20  C   UNL     1       4.308   3.579  17.121  0.00  0.00    +0.000 A 
ATOM     21  C   UNL     1       5.364   3.960  16.313  0.00  0.00    +0.000 A 
ATOM     22  S   UNL     1       5.492   5.662  16.158  0.00  0.00    +0.000 S 
BRANCH  20  23
ATOM     23  C   UNL     1       4.004   2.180  17.561  0.00  0.00    +0.000 C 
BRANCH  23  24
ATOM     24  N   UNL     1       3.231   2.221  18.805  0.00  0.00    +0.000 N 
ATOM     25  C   UNL     1       1.779   2.052  18.730  0.00  0.00    +0.000 C 
ATOM     26  C   UNL     1       1.022   3.357  18.984  0.00  0.00    +0.000 C 
ATOM     27  C   UNL     1       0.831   3.665  20.467  0.00  0.00    +0.000 C 
ATOM     28  C   UNL     1       2.127   3.841  21.255  0.00  0.00    +0.000 C 
ATOM     29  C   UNL     1       3.035   2.617  21.237  0.00  0.00    +0.000 C 
ATOM     30  C   UNL     1       3.881   2.555  19.979  0.00  0.00    +0.000 C 
ATOM     31  O   UNL     1       5.092   2.796  20.037  0.00  0.00    +0.000 OA
ENDBRANCH  23  24
ENDBRANCH  20  23
ENDBRANCH  17  18
ENDBRANCH   4  17
TORSDOF 7
ENDMDL
MODEL 2
REMARK VINA RESULT:      -8.0      2.199      4.211
REMARK  Name = 
REMARK  9 active torsions:
REMARK  status: ('A' for Active; 'I' for Inactive)
REMARK    1  A    between atoms: C_1  and  C_2
REMARK    2  A    between atoms: C_2  and  C_3
REMARK    3  A    between atoms: C_2  and  O_4
REMARK    4  A    between atoms: O_4  and  C_5
REMARK    5  A    between atoms: C_10  and  N_11
REMARK    6  A    between atoms: N_14  and  C_15
REMARK    7  A    between atoms: C_15  and  C_16
REMARK    8  A    between atoms: C_18  and  C_19
REMARK    9  A    between atoms: C_19  and  N_20
REMARK                            x       y       z     vdW  Elec       q    Type
REMARK                         _______ _______ _______ _____ _____    ______ ____
ROOT
ATOM      1  N   UNL     1      -1.880  11.452  18.883  0.00  0.00    +0.000 N 
ATOM      2  C   UNL     1      -0.748  12.193  18.321  0.00  0.00    +0.000 C 
ATOM      3  C   UNL     1       0.562  11.800  19.070  0.00  0.00    +0.000 C 
ATOM      4  N   UNL     1       0.828  10.357  19.291  0.00  0.00    +0.000 NA
ATOM      5  C   UNL     1      -0.416   9.684  19.737  0.00  0.00    +0.000 C 
ATOM      6  C   UNL     1      -1.669   9.998  18.896  0.00  0.00    +0.000 C 
ENDROOT
BRANCH   1  12
ATOM      7  C   UNL     1      -3.459  12.775  20.300  0.00  0.00    +0.000 A 
ATOM      8  C   UNL     1      -4.731  13.367  20.407  0.00  0.00    +0.000 A 
ATOM      9  C   UNL     1      -5.731  13.105  19.476  0.00  0.00    +0.000 A 
ATOM     10  C   UNL     1      -5.463  12.269  18.406  0.00  0.00    +0.000 A 
ATOM     11  C   UNL     1      -4.183  11.736  18.256  0.00  0.00    +0.000 A 
ATOM     12  C   UNL     1      -3.127  11.995  19.162  0.00  0.00    +0.000 A 
BRANCH   7  13
ATOM     13  O   UNL     1      -2.496  13.030  21.252  0.00  0.00    +0.000 OA
BRANCH  13  15
ATOM     14  C   UNL     1      -1.033  11.806  22.724  0.00  0.00    +0.000 C 
ATOM     15  C   UNL     1      -2.481  12.179  22.416  0.00  0.00    +0.000 C 
ATOM     16  C   UNL     1      -3.112  12.939  23.579  0.00  0.00    +0.000 C 
ENDBRANCH  13  15
ENDBRANCH   7  13
ENDBRANCH   1  12
BRANCH   4  17
ATOM     17  C   UNL     1       1.432   9.722  18.110  0.00  0.00    +0.000 C 
BRANCH  17  18
ATOM     18  C   UNL     1       2.187   8.461  18.462  0.00  0.00    +0.000 A 
ATOM     19  C   UNL     1       3.070   7.749  17.676  0.00  0.00    +0.000 A 
ATOM     20  C   UNL     1       3.463   6.499  18.248  0.00  0.00    +0.000 A 
ATOM     21  C   UNL     1       2.964   6.378  19.532  0.00  0.00    +0.000 A 
ATOM     22  S   UNL     1       1.968   7.698  19.978  0.00  0.00    +0.000 S 
BRANCH  20  23
ATOM     23  C   UNL     1       4.254   5.460  17.514  0.00  0.00    +0.000 C 
BRANCH  23  24
ATOM     24  N   UNL     1       3.685   4.137  17.786  0.00  0.00    +0.000 N 
ATOM     25  C   UNL     1       2.427   3.772  17.133  0.00  0.00    +0.000 C 
ATOM     26  C   UNL     1       1.245   3.757  18.104  0.00  0.00    +0.000 C 
ATOM     27  C   UNL     1       1.125   2.454  18.890  0.00  0.00    +0.000 C 
ATOM     28  C   UNL     1       2.325   2.132  19.779  0.00  0.00    +0.000 C 
ATOM     29  C   UNL     1       3.640   1.996  19.021  0.00  0.00    +0.000 C 
ATOM     30  C   UNL     1       4.282   3.344  18.750  0.00  0.00    +0.000 C 
ATOM     31  O   UNL     1       5.290   3.685  19.378  0.00  0.00    +0.000 OA
ENDBRANCH  23  24
ENDBRANCH  20  23
ENDBRANCH  17  18
ENDBRANCH   4  17
TORSDOF 7
ENDMDL
MODEL 3
REMARK VINA RESULT:      -7.8      2.686      5.242
REMARK  Name = 
REMARK  9 active torsions:
REMARK  status: ('A' for Active; 'I' for Inactive)
REMARK    1  A    between atoms: C_1  and  C_2
REMARK    2  A    between atoms: C_2  and  C_3
REMARK    3  A    between atoms: C_2  and  O_4
REMARK    4  A    between atoms: O_4  and  C_5
REMARK    5  A    between atoms: C_10  and  N_11
REMARK    6  A    between atoms: N_14  and  C_15
REMARK    7  A    between atoms: C_15  and  C_16
REMARK    8  A    between atoms: C_18  and  C_19
REMARK    9  A    between atoms: C_19  and  N_20
REMARK                            x       y       z     vdW  Elec       q    Type
REMARK                         _______ _______ _______ _____ _____    ______ ____
ROOT
ATOM      1  N   UNL     1      -2.121  11.763  19.100  0.00  0.00    +0.000 N 
ATOM      2  C   UNL     1      -0.994  12.568  18.623  0.00  0.00    +0.000 C 
ATOM      3  C   UNL     1       0.287  12.215  19.439  0.00  0.00    +0.000 C 
ATOM      4  N   UNL     1       0.607  10.780  19.642  0.00  0.00    +0.000 NA
ATOM      5  C   UNL     1      -0.629  10.042  19.998  0.00  0.00    +0.000 C 
ATOM      6  C   UNL     1      -1.843  10.319  19.091  0.00  0.00    +0.000 C 
ENDROOT
BRANCH   1  12
ATOM      7  C   UNL     1      -3.833  12.998  20.439  0.00  0.00    +0.000 A 
ATOM      8  C   UNL     1      -5.137  13.525  20.482  0.00  0.00    +0.000 A 
ATOM      9  C   UNL     1      -6.074  13.220  19.501  0.00  0.00    +0.000 A 
ATOM     10  C   UNL     1      -5.711  12.405  18.442  0.00  0.00    +0.000 A 
ATOM     11  C   UNL     1      -4.400  11.937  18.356  0.00  0.00    +0.000 A 
ATOM     12  C   UNL     1      -3.405  12.242  19.316  0.00  0.00    +0.000 A 
BRANCH   7  13
ATOM     13  O   UNL     1      -2.934  13.294  21.440  0.00  0.00    +0.000 OA
BRANCH  13  15
ATOM     14  C   UNL     1      -1.240  12.311  22.843  0.00  0.00    +0.000 C 
ATOM     15  C   UNL     1      -2.714  12.284  22.444  0.00  0.00    +0.000 C 
ATOM     16  C   UNL     1      -3.612  12.588  23.640  0.00  0.00    +0.000 C 
ENDBRANCH  13  15
ENDBRANCH   7  13
ENDBRANCH   1  12
BRANCH   4  17
ATOM     17  C   UNL     1       1.307  10.203  18.485  0.00  0.00    +0.000 C 
BRANCH  17  18
ATOM     18  C   UNL     1       1.872   8.834  18.783  0.00  0.00    +0.000 A 
ATOM     19  C   UNL     1       2.507   7.967  17.917  0.00  0.00    +0.000 A 
ATOM     20  C   UNL     1       2.750   6.675  18.479  0.00  0.00    +0.000 A 
ATOM     21  C   UNL     1       2.411   6.661  19.819  0.00  0.00    +0.000 A 
ATOM     22  S   UNL     1       1.727   8.142  20.341  0.00  0.00    +0.000 S 
BRANCH  20  23
ATOM     23  C   UNL     1       3.245   5.503  17.688  0.00  0.00    +0.000 C 
BRANCH  23  24
ATOM     24  N   UNL     1       4.666   5.691  17.383  0.00  0.00    +0.000 N 
ATOM     25  C   UNL     1       5.032   6.234  16.074  0.00  0.00    +0.000 C 
ATOM     26  C   UNL     1       5.645   5.179  15.151  0.00  0.00    +0.000 C 
ATOM     27  C   UNL     1       7.137   4.962  15.391  0.00  0.00    +0.000 C 
ATOM     28  C   UNL     1       7.493   4.466  16.790  0.00  0.00    +0.000 C 
ATOM     29  C   UNL     1       7.064   5.407  17.909  0.00  0.00    +0.000 C 
ATOM     30  C   UNL     1       5.606   5.221  18.282  0.00  0.00    +0.000 C 
ATOM     31  O   UNL     1       5.306   4.671  19.348  0.00  0.00    +0.000 OA
ENDBRANCH  23  24
ENDBRANCH  20  23
ENDBRANCH  17  18
ENDBRANCH   4  17
TORSDOF 7
ENDMDL
MODEL 4
REMARK VINA RESULT:      -7.8      3.033      4.616
REMARK  Name = 
REMARK  9 active torsions:
REMARK  status: ('A' for Active; 'I' for Inactive)
REMARK    1  A    between atoms: C_1  and  C_2
REMARK    2  A    between atoms: C_2  and  C_3
REMARK    3  A    between atoms: C_2  and  O_4
REMARK    4  A    between atoms: O_4  and  C_5
REMARK    5  A    between atoms: C_10  and  N_11
REMARK    6  A    between atoms: N_14  and  C_15
REMARK    7  A    between atoms: C_15  and  C_16
REMARK    8  A    between atoms: C_18  and  C_19
REMARK    9  A    between atoms: C_19  and  N_20
REMARK                            x       y       z     vdW  Elec       q    Type
REMARK                         _______ _______ _______ _____ _____    ______ ____
ROOT
ATOM      1  N   UNL     1      -1.970  12.459  21.895  0.00  0.00    +0.000 N 
ATOM      2  C   UNL     1      -1.004  11.633  22.622  0.00  0.00    +0.000 C 
ATOM      3  C   UNL     1      -0.843  10.258  21.905  0.00  0.00    +0.000 C 
ATOM      4  N   UNL     1      -0.657  10.260  20.433  0.00  0.00    +0.000 NA
ATOM      5  C   UNL     1      -1.599  11.223  19.814  0.00  0.00    +0.000 C 
ATOM      6  C   UNL     1      -1.640  12.616  20.471  0.00  0.00    +0.000 C 
ENDROOT
BRANCH   1  12
ATOM      7  C   UNL     1      -4.363  13.056  22.307  0.00  0.00    +0.000 A 
ATOM      8  C   UNL     1      -5.272  13.826  23.057  0.00  0.00    +0.000 A 
ATOM      9  C   UNL     1      -4.836  14.851  23.891  0.00  0.00    +0.000 A 
ATOM     10  C   UNL     1      -3.480  15.102  24.010  0.00  0.00    +0.000 A 
ATOM     11  C   UNL     1      -2.571  14.296  23.324  0.00  0.00    +0.000 A 
ATOM     12  C   UNL     1      -2.965  13.226  22.485  0.00  0.00    +0.000 A 
BRANCH   7  13
ATOM     13  O   UNL     1      -4.824  12.066  21.467  0.00  0.00    +0.000 OA
BRANCH  13  15
ATOM     14  C   UNL     1      -5.141  12.608  19.141  0.00  0.00    +0.000 C 
ATOM     15  C   UNL     1      -5.823  12.440  20.497  0.00  0.00    +0.000 C 
ATOM     16  C   UNL     1      -6.883  11.344  20.447  0.00  0.00    +0.000 C 
ENDBRANCH  13  15
ENDBRANCH   7  13
ENDBRANCH   1  12
BRANCH   4  17
ATOM     17  C   UNL     1       0.743  10.506  20.057  0.00  0.00    +0.000 C 
BRANCH  17  18
ATOM     18  C   UNL     1       1.399   9.282  19.461  0.00  0.00    +0.000 A 
ATOM     19  C   UNL     1       1.733   8.101  20.092  0.00  0.00    +0.000 A 
ATOM     20  C   UNL     1       2.511   7.220  19.279  0.00  0.00    +0.000 A 
ATOM     21  C   UNL     1       2.617   7.716  17.993  0.00  0.00    +0.000 A 
ATOM     22  S   UNL     1       1.878   9.251  17.818  0.00  0.00    +0.000 S 
BRANCH  20  23
ATOM     23  C   UNL     1       3.160   5.970  19.791  0.00  0.00    +0.000 C 
BRANCH  23  24
ATOM     24  N   UNL     1       2.753   4.836  18.958  0.00  0.00    +0.000 N 
ATOM     25  C   UNL     1       1.383   4.336  19.082  0.00  0.00    +0.000 C 
ATOM     26  C   UNL     1       1.314   2.988  19.803  0.00  0.00    +0.000 C 
ATOM     27  C   UNL     1       1.582   1.798  18.885  0.00  0.00    +0.000 C 
ATOM     28  C   UNL     1       2.966   1.790  18.239  0.00  0.00    +0.000 C 
ATOM     29  C   UNL     1       3.252   3.009  17.370  0.00  0.00    +0.000 C 
ATOM     30  C   UNL     1       3.712   4.198  18.192  0.00  0.00    +0.000 C 
ATOM     31  O   UNL     1       4.895   4.553  18.156  0.00  0.00    +0.000 OA
ENDBRANCH  23  24
ENDBRANCH  20  23
ENDBRANCH  17  18
ENDBRANCH   4  17
TORSDOF 7
ENDMDL
MODEL 5
REMARK VINA RESULT:      -7.7      2.783      5.324
REMARK  Name = 
REMARK  9 active torsions:
REMARK  status: ('A' for Active; 'I' for Inactive)
REMARK    1  A    between atoms: C_1  and  C_2
REMARK    2  A    between atoms: C_2  and  C_3
REMARK    3  A    between atoms: C_2  and  O_4
REMARK    4  A    between atoms: O_4  and  C_5
REMARK    5  A    between atoms: C_10  and  N_11
REMARK    6  A    between atoms: N_14  and  C_15
REMARK    7  A    between atoms: C_15  and  C_16
REMARK    8  A    between atoms: C_18  and  C_19
REMARK    9  A    between atoms: C_19  and  N_20
REMARK                            x       y       z     vdW  Elec       q    Type
REMARK                         _______ _______ _______ _____ _____    ______ ____
ROOT
ATOM      1  N   UNL     1      -2.238  11.520  18.476  0.00  0.00    +0.000 N 
ATOM      2  C   UNL     1      -1.090  12.390  18.208  0.00  0.00    +0.000 C 
ATOM      3  C   UNL     1       0.054  12.078  19.221  0.00  0.00    +0.000 C 
ATOM      4  N   UNL     1       0.408  10.655  19.451  0.00  0.00    +0.000 NA
ATOM      5  C   UNL     1      -0.830   9.849  19.582  0.00  0.00    +0.000 C 
ATOM      6  C   UNL     1      -1.890  10.092  18.490  0.00  0.00    +0.000 C 
ENDROOT
BRANCH   1  12
ATOM      7  C   UNL     1      -4.261  12.472  19.594  0.00  0.00    +0.000 A 
ATOM      8  C   UNL     1      -5.572  12.961  19.439  0.00  0.00    +0.000 A 
ATOM      9  C   UNL     1      -6.260  12.817  18.239  0.00  0.00    +0.000 A 
ATOM     10  C   UNL     1      -5.635  12.206  17.164  0.00  0.00    +0.000 A 
ATOM     11  C   UNL     1      -4.312  11.783  17.291  0.00  0.00    +0.000 A 
ATOM     12  C   UNL     1      -3.563  11.931  18.483  0.00  0.00    +0.000 A 
BRANCH   7  13
ATOM     13  O   UNL     1      -3.614  12.603  20.803  0.00  0.00    +0.000 OA
BRANCH  13  15
ATOM     14  C   UNL     1      -3.600  13.572  23.009  0.00  0.00    +0.000 C 
ATOM     15  C   UNL     1      -3.805  13.839  21.520  0.00  0.00    +0.000 C 
ATOM     16  C   UNL     1      -2.795  14.860  21.001  0.00  0.00    +0.000 C 
ENDBRANCH  13  15
ENDBRANCH   7  13
ENDBRANCH   1  12
BRANCH   4  17
ATOM     17  C   UNL     1       1.319  10.141  18.417  0.00  0.00    +0.000 C 
BRANCH  17  18
ATOM     18  C   UNL     1       1.869   8.777  18.765  0.00  0.00    +0.000 A 
ATOM     19  C   UNL     1       2.512   7.881  17.937  0.00  0.00    +0.000 A 
ATOM     20  C   UNL     1       2.735   6.604  18.541  0.00  0.00    +0.000 A 
ATOM     21  C   UNL     1       2.372   6.631  19.875  0.00  0.00    +0.000 A 
ATOM     22  S   UNL     1       1.689   8.132  20.340  0.00  0.00    +0.000 S 
BRANCH  20  23
ATOM     23  C   UNL     1       3.236   5.406  17.795  0.00  0.00    +0.000 C 
BRANCH  23  24
ATOM     24  N   UNL     1       4.655   5.591  17.478  0.00  0.00    +0.000 N 
ATOM     25  C   UNL     1       5.009   6.239  16.215  0.00  0.00    +0.000 C 
ATOM     26  C   UNL     1       5.581   5.257  15.191  0.00  0.00    +0.000 C 
ATOM     27  C   UNL     1       7.072   4.989  15.381  0.00  0.00    +0.000 C 
ATOM     28  C   UNL     1       7.443   4.365  16.725  0.00  0.00    +0.000 C 
ATOM     29  C   UNL     1       7.055   5.213  17.930  0.00  0.00    +0.000 C 
ATOM     30  C   UNL     1       5.600   5.024  18.314  0.00  0.00    +0.000 C 
ATOM     31  O   UNL     1       5.308   4.389  19.333  0.00  0.00    +0.000 OA
ENDBRANCH  23  24
ENDBRANCH  20  23
ENDBRANCH  17  18
ENDBRANCH   4  17
TORSDOF 7
ENDMDL
MODEL 6
REMARK VINA RESULT:      -7.7      4.149     10.215
REMARK  Name = 
REMARK  9 active torsions:
REMARK  status: ('A' for Active; 'I' for Inactive)
REMARK    1  A    between atoms: C_1  and  C_2
REMARK    2  A    between atoms: C_2  and  C_3
REMARK    3  A    between atoms: C_2  and  O_4
REMARK    4  A    between atoms: O_4  and  C_5
REMARK    5  A    between atoms: C_10  and  N_11
REMARK    6  A    between atoms: N_14  and  C_15
REMARK    7  A    between atoms: C_15  and  C_16
REMARK    8  A    between atoms: C_18  and  C_19
REMARK    9  A    between atoms: C_19  and  N_20
REMARK                            x       y       z     vdW  Elec       q    Type
REMARK                         _______ _______ _______ _____ _____    ______ ____
ROOT
ATOM      1  N   UNL     1       1.809   7.894  19.406  0.00  0.00    +0.000 N 
ATOM      2  C   UNL     1       1.430   7.695  20.806  0.00  0.00    +0.000 C 
ATOM      3  C   UNL     1       1.520   9.050  21.573  0.00  0.00    +0.000 C 
ATOM      4  N   UNL     1       0.910  10.246  20.941  0.00  0.00    +0.000 NA
ATOM      5  C   UNL     1       1.256  10.277  19.500  0.00  0.00    +0.000 C 
ATOM      6  C   UNL     1       1.036   8.953  18.743  0.00  0.00    +0.000 C 
ENDROOT
BRANCH   1  12
ATOM      7  C   UNL     1       2.568   5.627  18.675  0.00  0.00    +0.000 A 
ATOM      8  C   UNL     1       3.379   4.883  17.797  0.00  0.00    +0.000 A 
ATOM      9  C   UNL     1       4.342   5.499  17.004  0.00  0.00    +0.000 A 
ATOM     10  C   UNL     1       4.488   6.875  17.056  0.00  0.00    +0.000 A 
ATOM     11  C   UNL     1       3.639   7.624  17.870  0.00  0.00    +0.000 A 
ATOM     12  C   UNL     1       2.628   7.045  18.675  0.00  0.00    +0.000 A 
BRANCH   7  13
ATOM     13  O   UNL     1       1.643   4.987  19.470  0.00  0.00    +0.000 OA
BRANCH  13  15
ATOM     14  C   UNL     1       1.859   3.514  21.364  0.00  0.00    +0.000 C 
ATOM     15  C   UNL     1       1.927   3.624  19.842  0.00  0.00    +0.000 C 
ATOM     16  C   UNL     1       0.894   2.716  19.180  0.00  0.00    +0.000 C 
ENDBRANCH  13  15
ENDBRANCH   7  13
ENDBRANCH   1  12
BRANCH   4  17
ATOM     17  C   UNL     1      -0.538  10.319  21.185  0.00  0.00    +0.000 C 
BRANCH  17  18
ATOM     18  C   UNL     1      -0.971  11.689  21.655  0.00  0.00    +0.000 A 
ATOM     19  C   UNL     1      -1.605  12.025  22.833  0.00  0.00    +0.000 A 
ATOM     20  C   UNL     1      -2.040  13.386  22.879  0.00  0.00    +0.000 A 
ATOM     21  C   UNL     1      -1.583  14.076  21.771  0.00  0.00    +0.000 A 
ATOM     22  S   UNL     1      -0.742  13.070  20.670  0.00  0.00    +0.000 S 
BRANCH  20  23
ATOM     23  C   UNL     1      -2.918  13.944  23.957  0.00  0.00    +0.000 C 
BRANCH  23  24
ATOM     24  N   UNL     1      -4.316  13.886  23.522  0.00  0.00    +0.000 N 
ATOM     25  C   UNL     1      -4.853  15.007  22.750  0.00  0.00    +0.000 C 
ATOM     26  C   UNL     1      -5.825  15.866  23.562  0.00  0.00    +0.000 C 
ATOM     27  C   UNL     1      -7.245  15.306  23.592  0.00  0.00    +0.000 C 
ATOM     28  C   UNL     1      -7.373  13.922  24.224  0.00  0.00    +0.000 C 
ATOM     29  C   UNL     1      -6.556  12.843  23.524  0.00  0.00    +0.000 C 
ATOM     30  C   UNL     1      -5.107  12.845  23.973  0.00  0.00    +0.000 C 
ATOM     31  O   UNL     1      -4.687  11.944  24.707  0.00  0.00    +0.000 OA
ENDBRANCH  23  24
ENDBRANCH  20  23
ENDBRANCH  17  18
ENDBRANCH   4  17
TORSDOF 7
ENDMDL
MODEL 7
REMARK VINA RESULT:      -7.6      2.544      9.007
REMARK  Name = 
REMARK  9 active torsions:
REMARK  status: ('A' for Active; 'I' for Inactive)
REMARK    1  A    between atoms: C_1  and  C_2
REMARK    2  A    between atoms: C_2  and  C_3
REMARK    3  A    between atoms: C_2  and  O_4
REMARK    4  A    between atoms: O_4  and  C_5
REMARK    5  A    between atoms: C_10  and  N_11
REMARK    6  A    between atoms: N_14  and  C_15
REMARK    7  A    between atoms: C_15  and  C_16
REMARK    8  A    between atoms: C_18  and  C_19
REMARK    9  A    between atoms: C_19  and  N_20
REMARK                            x       y       z     vdW  Elec       q    Type
REMARK                         _______ _______ _______ _____ _____    ______ ____
ROOT
ATOM      1  N   UNL     1       4.101   6.120  18.164  0.00  0.00    +0.000 N 
ATOM      2  C   UNL     1       3.482   7.402  17.819  0.00  0.00    +0.000 C 
ATOM      3  C   UNL     1       2.012   7.434  18.339  0.00  0.00    +0.000 C 
ATOM      4  N   UNL     1       1.760   6.991  19.733  0.00  0.00    +0.000 NA
ATOM      5  C   UNL     1       2.535   5.757  20.010  0.00  0.00    +0.000 C 
ATOM      6  C   UNL     1       4.018   5.807  19.597  0.00  0.00    +0.000 C 
ENDROOT
BRANCH   1  12
ATOM      7  C   UNL     1       4.513   4.172  16.652  0.00  0.00    +0.000 A 
ATOM      8  C   UNL     1       5.377   3.566  15.721  0.00  0.00    +0.000 A 
ATOM      9  C   UNL     1       6.668   4.042  15.516  0.00  0.00    +0.000 A 
ATOM     10  C   UNL     1       7.105   5.152  16.221  0.00  0.00    +0.000 A 
ATOM     11  C   UNL     1       6.228   5.799  17.092  0.00  0.00    +0.000 A 
ATOM     12  C   UNL     1       4.898   5.367  17.313  0.00  0.00    +0.000 A 
BRANCH   7  13
ATOM     13  O   UNL     1       3.249   3.663  16.855  0.00  0.00    +0.000 OA
BRANCH  13  15
ATOM     14  C   UNL     1       1.505   2.864  18.313  0.00  0.00    +0.000 C 
ATOM     15  C   UNL     1       3.013   2.964  18.093  0.00  0.00    +0.000 C 
ATOM     16  C   UNL     1       3.646   1.578  17.994  0.00  0.00    +0.000 C 
ENDBRANCH  13  15
ENDBRANCH   7  13
ENDBRANCH   1  12
BRANCH   4  17
ATOM     17  C   UNL     1       2.021   8.062  20.706  0.00  0.00    +0.000 C 
BRANCH  17  18
ATOM     18  C   UNL     1       0.892   9.065  20.769  0.00  0.00    +0.000 A 
ATOM     19  C   UNL     1       0.350   9.804  19.738  0.00  0.00    +0.000 A 
ATOM     20  C   UNL     1      -0.581  10.797  20.176  0.00  0.00    +0.000 A 
ATOM     21  C   UNL     1      -0.817  10.672  21.532  0.00  0.00    +0.000 A 
ATOM     22  S   UNL     1       0.142   9.452  22.257  0.00  0.00    +0.000 S 
BRANCH  20  23
ATOM     23  C   UNL     1      -1.157  11.851  19.280  0.00  0.00    +0.000 C 
BRANCH  23  24
ATOM     24  N   UNL     1      -2.388  11.345  18.666  0.00  0.00    +0.000 N 
ATOM     25  C   UNL     1      -2.274  10.397  17.557  0.00  0.00    +0.000 C 
ATOM     26  C   UNL     1      -2.636  11.025  16.209  0.00  0.00    +0.000 C 
ATOM     27  C   UNL     1      -4.139  11.044  15.937  0.00  0.00    +0.000 C 
ATOM     28  C   UNL     1      -4.959  11.850  16.942  0.00  0.00    +0.000 C 
ATOM     29  C   UNL     1      -4.842  11.354  18.377  0.00  0.00    +0.000 C 
ATOM     30  C   UNL     1      -3.597  11.885  19.063  0.00  0.00    +0.000 C 
ATOM     31  O   UNL     1      -3.696  12.758  19.932  0.00  0.00    +0.000 OA
ENDBRANCH  23  24
ENDBRANCH  20  23
ENDBRANCH  17  18
ENDBRANCH   4  17
TORSDOF 7
ENDMDL
MODEL 8
REMARK VINA RESULT:      -7.6      3.469      9.229
REMARK  Name = 
REMARK  9 active torsions:
REMARK  status: ('A' for Active; 'I' for Inactive)
REMARK    1  A    between atoms: C_1  and  C_2
REMARK    2  A    between atoms: C_2  and  C_3
REMARK    3  A    between atoms: C_2  and  O_4
REMARK    4  A    between atoms: O_4  and  C_5
REMARK    5  A    between atoms: C_10  and  N_11
REMARK    6  A    between atoms: N_14  and  C_15
REMARK    7  A    between atoms: C_15  and  C_16
REMARK    8  A    between atoms: C_18  and  C_19
REMARK    9  A    between atoms: C_19  and  N_20
REMARK                            x       y       z     vdW  Elec       q    Type
REMARK                         _______ _______ _______ _____ _____    ______ ____
ROOT
ATOM      1  N   UNL     1       4.171   6.074  17.913  0.00  0.00    +0.000 N 
ATOM      2  C   UNL     1       3.633   7.433  17.816  0.00  0.00    +0.000 C 
ATOM      3  C   UNL     1       2.127   7.434  18.220  0.00  0.00    +0.000 C 
ATOM      4  N   UNL     1       1.741   6.713  19.458  0.00  0.00    +0.000 NA
ATOM      5  C   UNL     1       2.440   5.406  19.511  0.00  0.00    +0.000 C 
ATOM      6  C   UNL     1       3.954   5.460  19.230  0.00  0.00    +0.000 C 
ENDROOT
BRANCH   1  12
ATOM      7  C   UNL     1       6.196   6.045  16.447  0.00  0.00    +0.000 A 
ATOM      8  C   UNL     1       7.020   5.290  15.592  0.00  0.00    +0.000 A 
ATOM      9  C   UNL     1       6.636   4.030  15.144  0.00  0.00    +0.000 A 
ATOM     10  C   UNL     1       5.432   3.494  15.570  0.00  0.00    +0.000 A 
ATOM     11  C   UNL     1       4.645   4.208  16.474  0.00  0.00    +0.000 A 
ATOM     12  C   UNL     1       5.007   5.480  16.977  0.00  0.00    +0.000 A 
BRANCH   7  13
ATOM     13  O   UNL     1       6.589   7.302  16.853  0.00  0.00    +0.000 OA
BRANCH  13  15
ATOM     14  C   UNL     1       8.079   8.867  17.917  0.00  0.00    +0.000 C 
ATOM     15  C   UNL     1       7.858   7.407  17.529  0.00  0.00    +0.000 C 
ATOM     16  C   UNL     1       7.824   6.510  18.762  0.00  0.00    +0.000 C 
ENDBRANCH  13  15
ENDBRANCH   7  13
ENDBRANCH   1  12
BRANCH   4  17
ATOM     17  C   UNL     1       1.960   7.530  20.661  0.00  0.00    +0.000 C 
BRANCH  17  18
ATOM     18  C   UNL     1       1.187   8.828  20.619  0.00  0.00    +0.000 A 
ATOM     19  C   UNL     1       0.877   9.600  19.519  0.00  0.00    +0.000 A 
ATOM     20  C   UNL     1       0.296  10.863  19.854  0.00  0.00    +0.000 A 
ATOM     21  C   UNL     1       0.054  10.938  21.213  0.00  0.00    +0.000 A 
ATOM     22  S   UNL     1       0.612   9.556  22.057  0.00  0.00    +0.000 S 
BRANCH  20  23
ATOM     23  C   UNL     1       0.051  11.957  18.859  0.00  0.00    +0.000 C 
BRANCH  23  24
ATOM     24  N   UNL     1       0.961  13.072  19.132  0.00  0.00    +0.000 N 
ATOM     25  C   UNL     1       0.438  14.243  19.837  0.00  0.00    +0.000 C 
ATOM     26  C   UNL     1       0.275  15.456  18.919  0.00  0.00    +0.000 C 
ATOM     27  C   UNL     1       1.568  16.246  18.728  0.00  0.00    +0.000 C 
ATOM     28  C   UNL     1       2.708  15.459  18.086  0.00  0.00    +0.000 C 
ATOM     29  C   UNL     1       3.132  14.225  18.874  0.00  0.00    +0.000 C 
ATOM     30  C   UNL     1       2.234  13.035  18.593  0.00  0.00    +0.000 C 
ATOM     31  O   UNL     1       2.654  12.092  17.913  0.00  0.00    +0.000 OA
ENDBRANCH  23  24
ENDBRANCH  20  23
ENDBRANCH  17  18
ENDBRANCH   4  17
TORSDOF 7
ENDMDL
MODEL 9
REMARK VINA RESULT:      -7.6      2.327      4.107
REMARK  Name = 
REMARK  9 active torsions:
REMARK  status: ('A' for Active; 'I' for Inactive)
REMARK    1  A    between atoms: C_1  and  C_2
REMARK    2  A    between atoms: C_2  and  C_3
REMARK    3  A    between atoms: C_2  and  O_4
REMARK    4  A    between atoms: O_4  and  C_5
REMARK    5  A    between atoms: C_10  and  N_11
REMARK    6  A    between atoms: N_14  and  C_15
REMARK    7  A    between atoms: C_15  and  C_16
REMARK    8  A    between atoms: C_18  and  C_19
REMARK    9  A    between atoms: C_19  and  N_20
REMARK                            x       y       z     vdW  Elec       q    Type
REMARK                         _______ _______ _______ _____ _____    ______ ____
ROOT
ATOM      1  N   UNL     1       0.552  10.195  19.596  0.00  0.00    +0.000 N 
ATOM      2  C   UNL     1       0.909   9.172  18.611  0.00  0.00    +0.000 C 
ATOM      3  C   UNL     1       2.021   8.247  19.194  0.00  0.00    +0.000 C 
ATOM      4  N   UNL     1       1.841   7.729  20.573  0.00  0.00    +0.000 NA
ATOM      5  C   UNL     1       1.358   8.819  21.454  0.00  0.00    +0.000 C 
ATOM      6  C   UNL     1       0.173   9.634  20.901  0.00  0.00    +0.000 C 
ENDROOT
BRANCH   1  12
ATOM      7  C   UNL     1      -0.908  12.204  19.306  0.00  0.00    +0.000 A 
ATOM      8  C   UNL     1      -0.968  13.598  19.114  0.00  0.00    +0.000 A 
ATOM      9  C   UNL     1       0.169  14.335  18.801  0.00  0.00    +0.000 A 
ATOM     10  C   UNL     1       1.392  13.693  18.704  0.00  0.00    +0.000 A 
ATOM     11  C   UNL     1       1.470  12.324  18.963  0.00  0.00    +0.000 A 
ATOM     12  C   UNL     1       0.345  11.537  19.310  0.00  0.00    +0.000 A 
BRANCH   7  13
ATOM     13  O   UNL     1      -2.055  11.495  19.587  0.00  0.00    +0.000 OA
BRANCH  13  15
ATOM     14  C   UNL     1      -4.179  11.848  18.508  0.00  0.00    +0.000 C 
ATOM     15  C   UNL     1      -2.861  11.079  18.467  0.00  0.00    +0.000 C 
ATOM     16  C   UNL     1      -2.092  11.374  17.182  0.00  0.00    +0.000 C 
ENDBRANCH  13  15
ENDBRANCH   7  13
ENDBRANCH   1  12
BRANCH   4  17
ATOM     17  C   UNL     1       0.976   6.540  20.604  0.00  0.00    +0.000 C 
BRANCH  17  18
ATOM     18  C   UNL     1       1.755   5.260  20.403  0.00  0.00    +0.000 A 
ATOM     19  C   UNL     1       3.084   5.116  20.061  0.00  0.00    +0.000 A 
ATOM     20  C   UNL     1       3.455   3.767  19.769  0.00  0.00    +0.000 A 
ATOM     21  C   UNL     1       2.408   2.908  20.044  0.00  0.00    +0.000 A 
ATOM     22  S   UNL     1       0.993   3.735  20.543  0.00  0.00    +0.000 S 
BRANCH  20  23
ATOM     23  C   UNL     1       4.780   3.375  19.189  0.00  0.00    +0.000 C 
BRANCH  23  24
ATOM     24  N   UNL     1       5.207   4.392  18.225  0.00  0.00    +0.000 N 
ATOM     25  C   UNL     1       4.659   4.340  16.868  0.00  0.00    +0.000 C 
ATOM     26  C   UNL     1       5.688   3.870  15.838  0.00  0.00    +0.000 C 
ATOM     27  C   UNL     1       6.600   4.989  15.343  0.00  0.00    +0.000 C 
ATOM     28  C   UNL     1       7.452   5.646  16.427  0.00  0.00    +0.000 C 
ATOM     29  C   UNL     1       6.642   6.286  17.548  0.00  0.00    +0.000 C 
ATOM     30  C   UNL     1       6.209   5.272  18.589  0.00  0.00    +0.000 C 
ATOM     31  O   UNL     1       6.748   5.261  19.702  0.00  0.00    +0.000 OA
ENDBRANCH  23  24
ENDBRANCH  20  23
ENDBRANCH  17  18
ENDBRANCH   4  17
TORSDOF 7
ENDMDL
