MODEL 1
REMARK VINA RESULT:      -7.7      0.000      0.000
REMARK  Name = 
REMARK  6 active torsions:
REMARK  status: ('A' for Active; 'I' for Inactive)
REMARK    1  A    between atoms: C_1  and  O_2
REMARK    2  A    between atoms: O_2  and  C_3
REMARK    3  A    between atoms: C_3  and  C_5
REMARK    4  A    between atoms: C_8  and  O_9
REMARK    5  A    between atoms: O_9  and  C_10
REMARK    6  A    between atoms: C_11  and  N_12
REMARK                            x       y       z     vdW  Elec       q    Type
REMARK                         _______ _______ _______ _____ _____    ______ ____
ROOT
ATOM      1  N   UNL     1       4.708   3.394  17.031  0.00  0.00    +0.000 N 
ATOM      2  C   UNL     1       4.270   3.373  18.349  0.00  0.00    +0.000 C 
ATOM      3  O   UNL     1       4.870   2.667  19.165  0.00  0.00    +0.000 OA
ATOM      4  N   UNL     1       2.893   3.729  18.471  0.00  0.00    +0.000 N 
ATOM      5  C   UNL     1       2.087   2.539  18.652  0.00  0.00    +0.000 C 
ATOM      6  C   UNL     1       0.762   2.652  19.371  0.00  0.00    +0.000 C 
ATOM      7  C   UNL     1       0.699   3.667  20.478  0.00  0.00    +0.000 C 
ATOM      8  C   UNL     1       1.591   4.845  20.275  0.00  0.00    +0.000 A 
ATOM      9  C   UNL     1       1.232   5.973  21.046  0.00  0.00    +0.000 A 
ATOM     10  C   UNL     1       1.525   7.231  20.570  0.00  0.00    +0.000 A 
ATOM     11  C   UNL     1       2.275   7.337  19.397  0.00  0.00    +0.000 A 
ATOM     12  C   UNL     1       2.834   6.197  18.768  0.00  0.00    +0.000 A 
ATOM     13  C   UNL     1       2.515   4.911  19.216  0.00  0.00    +0.000 A 
ATOM     14  H   UNL     1       4.708   2.468  16.619  0.00  0.00    +0.000 HD
ENDROOT
BRANCH   1  19
ATOM     15  C   UNL     1       7.304   6.050  16.968  0.00  0.00    +0.000 A 
ATOM     16  C   UNL     1       7.652   6.044  15.607  0.00  0.00    +0.000 A 
ATOM     17  C   UNL     1       7.144   5.048  14.783  0.00  0.00    +0.000 A 
ATOM     18  C   UNL     1       6.258   4.091  15.276  0.00  0.00    +0.000 A 
ATOM     19  C   UNL     1       5.835   4.156  16.619  0.00  0.00    +0.000 A 
ATOM     20  C   UNL     1       6.428   5.105  17.496  0.00  0.00    +0.000 A 
BRANCH  15  21
ATOM     21  C   UNL     1       7.890   7.167  17.787  0.00  0.00    +0.000 C 
ATOM     22  O   UNL     1       8.372   6.989  18.900  0.00  0.00    +0.000 OA
BRANCH  21  24
ATOM     23  C   UNL     1       8.212   9.460  17.994  0.00  0.00    +0.000 C 
ATOM     24  O   UNL     1       7.815   8.365  17.157  0.00  0.00    +0.000 OA
ENDBRANCH  21  24
ENDBRANCH  15  21
BRANCH  18  25
ATOM     25  O   UNL     1       5.702   3.290  14.314  0.00  0.00    +0.000 OA
ATOM     26  C   UNL     1       6.047   3.614  12.970  0.00  0.00    +0.000 C 
ENDBRANCH  18  25
ENDBRANCH   1  19
TORSDOF 4
ENDMDL
MODEL 2
REMARK VINA RESULT:      -7.3      3.705      6.570
REMARK  Name = 
REMARK  6 active torsions:
REMARK  status: ('A' for Active; 'I' for Inactive)
REMARK    1  A    between atoms: C_1  and  O_2
REMARK    2  A    between atoms: O_2  and  C_3
REMARK    3  A    between atoms: C_3  and  C_5
REMARK    4  A    between atoms: C_8  and  O_9
REMARK    5  A    between atoms: O_9  and  C_10
REMARK    6  A    between atoms: C_11  and  N_12
REMARK                            x       y       z     vdW  Elec       q    Type
REMARK                         _______ _______ _______ _____ _____    ______ ____
ROOT
ATOM      1  N   UNL     1       2.712   8.519  18.124  0.00  0.00    +0.000 N 
ATOM      2  C   UNL     1       1.483   9.136  18.316  0.00  0.00    +0.000 C 
ATOM      3  O   UNL     1       0.642   9.084  17.414  0.00  0.00    +0.000 OA
ATOM      4  N   UNL     1       1.546  10.186  19.281  0.00  0.00    +0.000 N 
ATOM      5  C   UNL     1       1.584  11.471  18.615  0.00  0.00    +0.000 C 
ATOM      6  C   UNL     1       1.070  12.692  19.343  0.00  0.00    +0.000 C 
ATOM      7  C   UNL     1      -0.090  12.464  20.272  0.00  0.00    +0.000 C 
ATOM      8  C   UNL     1      -0.119  11.106  20.887  0.00  0.00    +0.000 A 
ATOM      9  C   UNL     1      -0.911  11.024  22.054  0.00  0.00    +0.000 A 
ATOM     10  C   UNL     1      -0.586  10.102  23.022  0.00  0.00    +0.000 A 
ATOM     11  C   UNL     1       0.446   9.200  22.757  0.00  0.00    +0.000 A 
ATOM     12  C   UNL     1       1.070   9.138  21.485  0.00  0.00    +0.000 A 
ATOM     13  C   UNL     1       0.778  10.091  20.505  0.00  0.00    +0.000 A 
ATOM     14  H   UNL     1       3.190   8.880  17.305  0.00  0.00    +0.000 HD
ENDROOT
BRANCH   1  19
ATOM     15  C   UNL     1       2.503   5.087  19.530  0.00  0.00    +0.000 A 
ATOM     16  C   UNL     1       3.632   4.494  18.940  0.00  0.00    +0.000 A 
ATOM     17  C   UNL     1       4.330   5.190  17.963  0.00  0.00    +0.000 A 
ATOM     18  C   UNL     1       3.959   6.484  17.599  0.00  0.00    +0.000 A 
ATOM     19  C   UNL     1       2.885   7.114  18.261  0.00  0.00    +0.000 A 
ATOM     20  C   UNL     1       2.099   6.375  19.186  0.00  0.00    +0.000 A 
BRANCH  15  21
ATOM     21  C   UNL     1       1.812   4.268  20.585  0.00  0.00    +0.000 C 
ATOM     22  O   UNL     1       2.309   4.052  21.685  0.00  0.00    +0.000 OA
BRANCH  21  24
ATOM     23  C   UNL     1       0.709   2.687  19.287  0.00  0.00    +0.000 C 
ATOM     24  O   UNL     1       0.605   3.808  20.175  0.00  0.00    +0.000 OA
ENDBRANCH  21  24
ENDBRANCH  15  21
BRANCH  18  25
ATOM     25  O   UNL     1       4.843   7.111  16.762  0.00  0.00    +0.000 OA
ATOM     26  C   UNL     1       6.216   7.011  17.133  0.00  0.00    +0.000 C 
ENDBRANCH  18  25
ENDBRANCH   1  19
TORSDOF 4
ENDMDL
MODEL 3
REMARK VINA RESULT:      -7.1      1.426      3.819
REMARK  Name = 
REMARK  6 active torsions:
REMARK  status: ('A' for Active; 'I' for Inactive)
REMARK    1  A    between atoms: C_1  and  O_2
REMARK    2  A    between atoms: O_2  and  C_3
REMARK    3  A    between atoms: C_3  and  C_5
REMARK    4  A    between atoms: C_8  and  O_9
REMARK    5  A    between atoms: O_9  and  C_10
REMARK    6  A    between atoms: C_11  and  N_12
REMARK                            x       y       z     vdW  Elec       q    Type
REMARK                         _______ _______ _______ _____ _____    ______ ____
ROOT
ATOM      1  N   UNL     1       4.510   3.419  16.978  0.00  0.00    +0.000 N 
ATOM      2  C   UNL     1       4.419   3.849  18.296  0.00  0.00    +0.000 C 
ATOM      3  O   UNL     1       5.303   3.520  19.093  0.00  0.00    +0.000 OA
ATOM      4  N   UNL     1       3.077   4.145  18.680  0.00  0.00    +0.000 N 
ATOM      5  C   UNL     1       2.533   3.057  19.466  0.00  0.00    +0.000 C 
ATOM      6  C   UNL     1       1.425   3.346  20.453  0.00  0.00    +0.000 C 
ATOM      7  C   UNL     1       1.481   4.687  21.131  0.00  0.00    +0.000 C 
ATOM      8  C   UNL     1       2.103   5.761  20.305  0.00  0.00    +0.000 A 
ATOM      9  C   UNL     1       1.776   7.069  20.727  0.00  0.00    +0.000 A 
ATOM     10  C   UNL     1       1.745   8.085  19.800  0.00  0.00    +0.000 A 
ATOM     11  C   UNL     1       2.157   7.803  18.496  0.00  0.00    +0.000 A 
ATOM     12  C   UNL     1       2.713   6.547  18.148  0.00  0.00    +0.000 A 
ATOM     13  C   UNL     1       2.716   5.494  19.067  0.00  0.00    +0.000 A 
ATOM     14  H   UNL     1       4.552   2.408  16.915  0.00  0.00    +0.000 HD
ENDROOT
BRANCH   1  19
ATOM     15  C   UNL     1       6.366   4.070  13.827  0.00  0.00    +0.000 A 
ATOM     16  C   UNL     1       7.440   4.836  14.310  0.00  0.00    +0.000 A 
ATOM     17  C   UNL     1       7.429   5.260  15.632  0.00  0.00    +0.000 A 
ATOM     18  C   UNL     1       6.397   4.894  16.495  0.00  0.00    +0.000 A 
ATOM     19  C   UNL     1       5.370   4.044  16.035  0.00  0.00    +0.000 A 
ATOM     20  C   UNL     1       5.315   3.691  14.659  0.00  0.00    +0.000 A 
BRANCH  15  21
ATOM     21  C   UNL     1       6.462   3.644  12.388  0.00  0.00    +0.000 C 
ATOM     22  O   UNL     1       7.267   4.138  11.605  0.00  0.00    +0.000 OA
BRANCH  21  24
ATOM     23  C   UNL     1       4.434   3.180  11.353  0.00  0.00    +0.000 C 
ATOM     24  O   UNL     1       5.567   2.677  12.073  0.00  0.00    +0.000 OA
ENDBRANCH  21  24
ENDBRANCH  15  21
BRANCH  18  25
ATOM     25  O   UNL     1       6.612   5.229  17.805  0.00  0.00    +0.000 OA
ATOM     26  C   UNL     1       7.447   6.364  18.020  0.00  0.00    +0.000 C 
ENDBRANCH  18  25
ENDBRANCH   1  19
TORSDOF 4
ENDMDL
MODEL 4
REMARK VINA RESULT:      -6.8      0.527      1.040
REMARK  Name = 
REMARK  6 active torsions:
REMARK  status: ('A' for Active; 'I' for Inactive)
REMARK    1  A    between atoms: C_1  and  O_2
REMARK    2  A    between atoms: O_2  and  C_3
REMARK    3  A    between atoms: C_3  and  C_5
REMARK    4  A    between atoms: C_8  and  O_9
REMARK    5  A    between atoms: O_9  and  C_10
REMARK    6  A    between atoms: C_11  and  N_12
REMARK                            x       y       z     vdW  Elec       q    Type
REMARK                         _______ _______ _______ _____ _____    ______ ____
ROOT
ATOM      1  N   UNL     1       4.593   3.400  16.769  0.00  0.00    +0.000 N 
ATOM      2  C   UNL     1       4.167   3.281  18.086  0.00  0.00    +0.000 C 
ATOM      3  O   UNL     1       4.756   2.496  18.835  0.00  0.00    +0.000 OA
ATOM      4  N   UNL     1       2.801   3.661  18.252  0.00  0.00    +0.000 N 
ATOM      5  C   UNL     1       1.965   2.482  18.344  0.00  0.00    +0.000 C 
ATOM      6  C   UNL     1       0.650   2.570  19.085  0.00  0.00    +0.000 C 
ATOM      7  C   UNL     1       0.624   3.492  20.272  0.00  0.00    +0.000 C 
ATOM      8  C   UNL     1       1.545   4.659  20.157  0.00  0.00    +0.000 A 
ATOM      9  C   UNL     1       1.224   5.729  21.021  0.00  0.00    +0.000 A 
ATOM     10  C   UNL     1       1.546   7.014  20.646  0.00  0.00    +0.000 A 
ATOM     11  C   UNL     1       2.287   7.196  19.477  0.00  0.00    +0.000 A 
ATOM     12  C   UNL     1       2.810   6.097  18.750  0.00  0.00    +0.000 A 
ATOM     13  C   UNL     1       2.461   4.788  19.096  0.00  0.00    +0.000 A 
ATOM     14  H   UNL     1       4.565   2.510  16.284  0.00  0.00    +0.000 HD
ENDROOT
BRANCH   1  19
ATOM     15  C   UNL     1       7.152   6.093  16.786  0.00  0.00    +0.000 A 
ATOM     16  C   UNL     1       7.595   6.040  15.454  0.00  0.00    +0.000 A 
ATOM     17  C   UNL     1       7.161   5.006  14.636  0.00  0.00    +0.000 A 
ATOM     18  C   UNL     1       6.255   4.053  15.102  0.00  0.00    +0.000 A 
ATOM     19  C   UNL     1       5.737   4.164  16.409  0.00  0.00    +0.000 A 
ATOM     20  C   UNL     1       6.253   5.154  17.288  0.00  0.00    +0.000 A 
BRANCH  15  21
ATOM     21  C   UNL     1       7.662   7.250  17.599  0.00  0.00    +0.000 C 
ATOM     22  O   UNL     1       7.429   8.418  17.306  0.00  0.00    +0.000 OA
BRANCH  21  24
ATOM     23  C   UNL     1       7.726   5.865  19.464  0.00  0.00    +0.000 C 
ATOM     24  O   UNL     1       8.396   6.850  18.666  0.00  0.00    +0.000 OA
ENDBRANCH  21  24
ENDBRANCH  15  21
BRANCH  18  25
ATOM     25  O   UNL     1       5.779   3.207  14.136  0.00  0.00    +0.000 OA
ATOM     26  C   UNL     1       6.111   3.558  12.795  0.00  0.00    +0.000 C 
ENDBRANCH  18  25
ENDBRANCH   1  19
TORSDOF 4
ENDMDL
MODEL 5
REMARK VINA RESULT:      -6.6      8.945     12.628
REMARK  Name = 
REMARK  6 active torsions:
REMARK  status: ('A' for Active; 'I' for Inactive)
REMARK    1  A    between atoms: C_1  and  O_2
REMARK    2  A    between atoms: O_2  and  C_3
REMARK    3  A    between atoms: C_3  and  C_5
REMARK    4  A    between atoms: C_8  and  O_9
REMARK    5  A    between atoms: O_9  and  C_10
REMARK    6  A    between atoms: C_11  and  N_12
REMARK                            x       y       z     vdW  Elec       q    Type
REMARK                         _______ _______ _______ _____ _____    ______ ____
ROOT
ATOM      1  N   UNL     1      -0.387  13.009  22.431  0.00  0.00    +0.000 N 
ATOM      2  C   UNL     1      -0.452  11.752  21.843  0.00  0.00    +0.000 C 
ATOM      3  O   UNL     1      -0.148  10.763  22.516  0.00  0.00    +0.000 OA
ATOM      4  N   UNL     1      -0.337  11.809  20.421  0.00  0.00    +0.000 N 
ATOM      5  C   UNL     1       1.003  11.437  20.016  0.00  0.00    +0.000 C 
ATOM      6  C   UNL     1       1.220  10.857  18.637  0.00  0.00    +0.000 C 
ATOM      7  C   UNL     1       0.106  10.000  18.102  0.00  0.00    +0.000 C 
ATOM      8  C   UNL     1      -1.248  10.384  18.594  0.00  0.00    +0.000 A 
ATOM      9  C   UNL     1      -2.306   9.901  17.793  0.00  0.00    +0.000 A 
ATOM     10  C   UNL     1      -3.483  10.612  17.735  0.00  0.00    +0.000 A 
ATOM     11  C   UNL     1      -3.626  11.722  18.569  0.00  0.00    +0.000 A 
ATOM     12  C   UNL     1      -2.650  12.051  19.542  0.00  0.00    +0.000 A 
ATOM     13  C   UNL     1      -1.434  11.363  19.588  0.00  0.00    +0.000 A 
ATOM     14  H   UNL     1       0.543  13.211  22.782  0.00  0.00    +0.000 HD
ENDROOT
BRANCH   1  19
ATOM     15  C   UNL     1      -3.721  13.492  23.995  0.00  0.00    +0.000 A 
ATOM     16  C   UNL     1      -3.562  14.769  24.560  0.00  0.00    +0.000 A 
ATOM     17  C   UNL     1      -2.305  15.359  24.556  0.00  0.00    +0.000 A 
ATOM     18  C   UNL     1      -1.216  14.727  23.956  0.00  0.00    +0.000 A 
ATOM     19  C   UNL     1      -1.399  13.490  23.304  0.00  0.00    +0.000 A 
ATOM     20  C   UNL     1      -2.654  12.828  23.394  0.00  0.00    +0.000 A 
BRANCH  15  21
ATOM     21  C   UNL     1      -5.115  12.930  24.034  0.00  0.00    +0.000 C 
ATOM     22  O   UNL     1      -5.384  11.866  24.581  0.00  0.00    +0.000 OA
BRANCH  21  24
ATOM     23  C   UNL     1      -7.345  13.570  23.902  0.00  0.00    +0.000 C 
ATOM     24  O   UNL     1      -6.011  13.725  23.399  0.00  0.00    +0.000 OA
ENDBRANCH  21  24
ENDBRANCH  15  21
BRANCH  18  25
ATOM     25  O   UNL     1      -0.092  15.504  23.867  0.00  0.00    +0.000 OA
ATOM     26  C   UNL     1      -0.315  16.912  23.881  0.00  0.00    +0.000 C 
ENDBRANCH  18  25
ENDBRANCH   1  19
TORSDOF 4
ENDMDL
MODEL 6
REMARK VINA RESULT:      -6.6      8.786     11.128
REMARK  Name = 
REMARK  6 active torsions:
REMARK  status: ('A' for Active; 'I' for Inactive)
REMARK    1  A    between atoms: C_1  and  O_2
REMARK    2  A    between atoms: O_2  and  C_3
REMARK    3  A    between atoms: C_3  and  C_5
REMARK    4  A    between atoms: C_8  and  O_9
REMARK    5  A    between atoms: O_9  and  C_10
REMARK    6  A    between atoms: C_11  and  N_12
REMARK                            x       y       z     vdW  Elec       q    Type
REMARK                         _______ _______ _______ _____ _____    ______ ____
ROOT
ATOM      1  N   UNL     1      -3.763  12.149  18.368  0.00  0.00    +0.000 N 
ATOM      2  C   UNL     1      -4.938  11.837  19.040  0.00  0.00    +0.000 C 
ATOM      3  O   UNL     1      -5.643  10.919  18.612  0.00  0.00    +0.000 OA
ATOM      4  N   UNL     1      -5.444  12.939  19.793  0.00  0.00    +0.000 N 
ATOM      5  C   UNL     1      -6.540  13.564  19.083  0.00  0.00    +0.000 C 
ATOM      6  C   UNL     1      -7.590  14.318  19.869  0.00  0.00    +0.000 C 
ATOM      7  C   UNL     1      -7.911  13.768  21.232  0.00  0.00    +0.000 C 
ATOM      8  C   UNL     1      -6.767  13.082  21.897  0.00  0.00    +0.000 A 
ATOM      9  C   UNL     1      -6.911  12.956  23.296  0.00  0.00    +0.000 A 
ATOM     10  C   UNL     1      -5.784  12.921  24.086  0.00  0.00    +0.000 A 
ATOM     11  C   UNL     1      -4.538  12.889  23.459  0.00  0.00    +0.000 A 
ATOM     12  C   UNL     1      -4.417  12.770  22.051  0.00  0.00    +0.000 A 
ATOM     13  C   UNL     1      -5.549  12.843  21.234  0.00  0.00    +0.000 A 
ATOM     14  H   UNL     1      -3.937  12.387  17.398  0.00  0.00    +0.000 HD
ENDROOT
BRANCH   1  19
ATOM     15  C   UNL     1      -0.323  11.186  19.387  0.00  0.00    +0.000 A 
ATOM     16  C   UNL     1      -0.017  10.231  18.404  0.00  0.00    +0.000 A 
ATOM     17  C   UNL     1      -1.015   9.808  17.537  0.00  0.00    +0.000 A 
ATOM     18  C   UNL     1      -2.297  10.353  17.596  0.00  0.00    +0.000 A 
ATOM     19  C   UNL     1      -2.576  11.381  18.520  0.00  0.00    +0.000 A 
ATOM     20  C   UNL     1      -1.595  11.747  19.481  0.00  0.00    +0.000 A 
BRANCH  15  21
ATOM     21  C   UNL     1       0.817  11.595  20.278  0.00  0.00    +0.000 C 
ATOM     22  O   UNL     1       1.813  12.172  19.854  0.00  0.00    +0.000 OA
BRANCH  21  24
ATOM     23  C   UNL     1       0.749   9.842  21.802  0.00  0.00    +0.000 C 
ATOM     24  O   UNL     1       0.612  11.251  21.573  0.00  0.00    +0.000 OA
ENDBRANCH  21  24
ENDBRANCH  15  21
BRANCH  18  25
ATOM     25  O   UNL     1      -3.119   9.976  16.568  0.00  0.00    +0.000 OA
ATOM     26  C   UNL     1      -2.801  10.529  15.293  0.00  0.00    +0.000 C 
ENDBRANCH  18  25
ENDBRANCH   1  19
TORSDOF 4
ENDMDL
MODEL 7
REMARK VINA RESULT:      -6.5      8.163     10.761
REMARK  Name = 
REMARK  6 active torsions:
REMARK  status: ('A' for Active; 'I' for Inactive)
REMARK    1  A    between atoms: C_1  and  O_2
REMARK    2  A    between atoms: O_2  and  C_3
REMARK    3  A    between atoms: C_3  and  C_5
REMARK    4  A    between atoms: C_8  and  O_9
REMARK    5  A    between atoms: O_9  and  C_10
REMARK    6  A    between atoms: C_11  and  N_12
REMARK                            x       y       z     vdW  Elec       q    Type
REMARK                         _______ _______ _______ _____ _____    ______ ____
ROOT
ATOM      1  N   UNL     1      -2.308  11.923  17.749  0.00  0.00    +0.000 N 
ATOM      2  C   UNL     1      -3.487  11.272  18.090  0.00  0.00    +0.000 C 
ATOM      3  O   UNL     1      -3.645  10.101  17.734  0.00  0.00    +0.000 OA
ATOM      4  N   UNL     1      -4.563  12.181  18.325  0.00  0.00    +0.000 N 
ATOM      5  C   UNL     1      -5.441  12.219  17.174  0.00  0.00    +0.000 C 
ATOM      6  C   UNL     1      -6.890  12.602  17.369  0.00  0.00    +0.000 C 
ATOM      7  C   UNL     1      -7.517  12.166  18.664  0.00  0.00    +0.000 C 
ATOM      8  C   UNL     1      -6.562  12.084  19.806  0.00  0.00    +0.000 A 
ATOM      9  C   UNL     1      -7.182  12.109  21.074  0.00  0.00    +0.000 A 
ATOM     10  C   UNL     1      -6.496  12.629  22.147  0.00  0.00    +0.000 A 
ATOM     11  C   UNL     1      -5.163  13.002  21.962  0.00  0.00    +0.000 A 
ATOM     12  C   UNL     1      -4.482  12.744  20.746  0.00  0.00    +0.000 A 
ATOM     13  C   UNL     1      -5.175  12.253  19.635  0.00  0.00    +0.000 A 
ATOM     14  H   UNL     1      -2.163  11.936  16.745  0.00  0.00    +0.000 HD
ENDROOT
BRANCH   1  19
ATOM     15  C   UNL     1       0.180  10.420  20.061  0.00  0.00    +0.000 A 
ATOM     16  C   UNL     1       1.006  11.528  20.312  0.00  0.00    +0.000 A 
ATOM     17  C   UNL     1       0.819  12.692  19.579  0.00  0.00    +0.000 A 
ATOM     18  C   UNL     1      -0.205  12.792  18.638  0.00  0.00    +0.000 A 
ATOM     19  C   UNL     1      -1.094  11.712  18.456  0.00  0.00    +0.000 A 
ATOM     20  C   UNL     1      -0.848  10.481  19.123  0.00  0.00    +0.000 A 
BRANCH  15  21
ATOM     21  C   UNL     1       0.444   9.203  20.905  0.00  0.00    +0.000 C 
ATOM     22  O   UNL     1       1.409   8.469  20.722  0.00  0.00    +0.000 OA
BRANCH  21  24
ATOM     23  C   UNL     1      -0.076   9.496  23.151  0.00  0.00    +0.000 C 
ATOM     24  O   UNL     1      -0.497   9.025  21.864  0.00  0.00    +0.000 OA
ENDBRANCH  21  24
ENDBRANCH  15  21
BRANCH  18  25
ATOM     25  O   UNL     1      -0.383  14.050  18.129  0.00  0.00    +0.000 OA
ATOM     26  C   UNL     1      -0.203  15.119  19.056  0.00  0.00    +0.000 C 
ENDBRANCH  18  25
ENDBRANCH   1  19
TORSDOF 4
ENDMDL
MODEL 8
REMARK VINA RESULT:      -6.5      8.864     12.608
REMARK  Name = 
REMARK  6 active torsions:
REMARK  status: ('A' for Active; 'I' for Inactive)
REMARK    1  A    between atoms: C_1  and  O_2
REMARK    2  A    between atoms: O_2  and  C_3
REMARK    3  A    between atoms: C_3  and  C_5
REMARK    4  A    between atoms: C_8  and  O_9
REMARK    5  A    between atoms: O_9  and  C_10
REMARK    6  A    between atoms: C_11  and  N_12
REMARK                            x       y       z     vdW  Elec       q    Type
REMARK                         _______ _______ _______ _____ _____    ______ ____
ROOT
ATOM      1  N   UNL     1      -0.986  12.710  22.376  0.00  0.00    +0.000 N 
ATOM      2  C   UNL     1      -0.892  11.484  21.730  0.00  0.00    +0.000 C 
ATOM      3  O   UNL     1      -0.702  10.468  22.405  0.00  0.00    +0.000 OA
ATOM      4  N   UNL     1      -0.490  11.616  20.366  0.00  0.00    +0.000 N 
ATOM      5  C   UNL     1       0.915  11.292  20.229  0.00  0.00    +0.000 C 
ATOM      6  C   UNL     1       1.426  10.788  18.898  0.00  0.00    +0.000 C 
ATOM      7  C   UNL     1       0.471   9.937  18.107  0.00  0.00    +0.000 C 
ATOM      8  C   UNL     1      -0.965  10.268  18.328  0.00  0.00    +0.000 A 
ATOM      9  C   UNL     1      -1.823   9.804  17.305  0.00  0.00    +0.000 A 
ATOM     10  C   UNL     1      -2.984  10.493  17.040  0.00  0.00    +0.000 A 
ATOM     11  C   UNL     1      -3.328  11.557  17.876  0.00  0.00    +0.000 A 
ATOM     12  C   UNL     1      -2.582  11.856  19.043  0.00  0.00    +0.000 A 
ATOM     13  C   UNL     1      -1.380  11.191  19.306  0.00  0.00    +0.000 A 
ATOM     14  H   UNL     1      -0.154  12.913  22.919  0.00  0.00    +0.000 HD
ENDROOT
BRANCH   1  19
ATOM     15  C   UNL     1      -4.583  13.324  23.067  0.00  0.00    +0.000 A 
ATOM     16  C   UNL     1      -4.496  14.395  23.971  0.00  0.00    +0.000 A 
ATOM     17  C   UNL     1      -3.252  14.772  24.458  0.00  0.00    +0.000 A 
ATOM     18  C   UNL     1      -2.089  14.136  24.024  0.00  0.00    +0.000 A 
ATOM     19  C   UNL     1      -2.169  13.126  23.044  0.00  0.00    +0.000 A 
ATOM     20  C   UNL     1      -3.443  12.661  22.617  0.00  0.00    +0.000 A 
BRANCH  15  21
ATOM     21  C   UNL     1      -5.967  12.988  22.583  0.00  0.00    +0.000 C 
ATOM     22  O   UNL     1      -6.955  13.641  22.902  0.00  0.00    +0.000 OA
BRANCH  21  24
ATOM     23  C   UNL     1      -6.636  12.147  20.523  0.00  0.00    +0.000 C 
ATOM     24  O   UNL     1      -5.983  11.900  21.775  0.00  0.00    +0.000 OA
ENDBRANCH  21  24
ENDBRANCH  15  21
BRANCH  18  25
ATOM     25  O   UNL     1      -0.930  14.731  24.447  0.00  0.00    +0.000 OA
ATOM     26  C   UNL     1      -1.060  15.601  25.569  0.00  0.00    +0.000 C 
ENDBRANCH  18  25
ENDBRANCH   1  19
TORSDOF 4
ENDMDL
MODEL 9
REMARK VINA RESULT:      -6.5      8.978     11.234
REMARK  Name = 
REMARK  6 active torsions:
REMARK  status: ('A' for Active; 'I' for Inactive)
REMARK    1  A    between atoms: C_1  and  O_2
REMARK    2  A    between atoms: O_2  and  C_3
REMARK    3  A    between atoms: C_3  and  C_5
REMARK    4  A    between atoms: C_8  and  O_9
REMARK    5  A    between atoms: O_9  and  C_10
REMARK    6  A    between atoms: C_11  and  N_12
REMARK                            x       y       z     vdW  Elec       q    Type
REMARK                         _______ _______ _______ _____ _____    ______ ____
ROOT
ATOM      1  N   UNL     1      -4.069  12.193  18.320  0.00  0.00    +0.000 N 
ATOM      2  C   UNL     1      -5.203  11.914  19.072  0.00  0.00    +0.000 C 
ATOM      3  O   UNL     1      -5.978  11.038  18.677  0.00  0.00    +0.000 OA
ATOM      4  N   UNL     1      -5.602  13.016  19.887  0.00  0.00    +0.000 N 
ATOM      5  C   UNL     1      -6.719  13.706  19.276  0.00  0.00    +0.000 C 
ATOM      6  C   UNL     1      -7.673  14.482  20.157  0.00  0.00    +0.000 C 
ATOM      7  C   UNL     1      -7.916  13.911  21.526  0.00  0.00    +0.000 C 
ATOM      8  C   UNL     1      -6.757  13.159  22.087  0.00  0.00    +0.000 A 
ATOM      9  C   UNL     1      -6.801  13.003  23.490  0.00  0.00    +0.000 A 
ATOM     10  C   UNL     1      -5.622  12.899  24.191  0.00  0.00    +0.000 A 
ATOM     11  C   UNL     1      -4.428  12.831  23.471  0.00  0.00    +0.000 A 
ATOM     12  C   UNL     1      -4.418  12.744  22.056  0.00  0.00    +0.000 A 
ATOM     13  C   UNL     1      -5.603  12.886  21.329  0.00  0.00    +0.000 A 
ATOM     14  H   UNL     1      -4.303  12.464  17.372  0.00  0.00    +0.000 HD
ENDROOT
BRANCH   1  19
ATOM     15  C   UNL     1      -0.649  11.007  19.156  0.00  0.00    +0.000 A 
ATOM     16  C   UNL     1      -0.397  10.150  18.071  0.00  0.00    +0.000 A 
ATOM     17  C   UNL     1      -1.427   9.856  17.187  0.00  0.00    +0.000 A 
ATOM     18  C   UNL     1      -2.686  10.438  17.332  0.00  0.00    +0.000 A 
ATOM     19  C   UNL     1      -2.909  11.372  18.364  0.00  0.00    +0.000 A 
ATOM     20  C   UNL     1      -1.897  11.600  19.336  0.00  0.00    +0.000 A 
BRANCH  15  21
ATOM     21  C   UNL     1       0.523  11.279  20.058  0.00  0.00    +0.000 C 
ATOM     22  O   UNL     1       0.580  10.864  21.211  0.00  0.00    +0.000 OA
BRANCH  21  24
ATOM     23  C   UNL     1       1.438  13.405  19.847  0.00  0.00    +0.000 C 
ATOM     24  O   UNL     1       1.479  12.026  19.454  0.00  0.00    +0.000 OA
ENDBRANCH  21  24
ENDBRANCH  15  21
BRANCH  18  25
ATOM     25  O   UNL     1      -3.541  10.200  16.289  0.00  0.00    +0.000 OA
ATOM     26  C   UNL     1      -2.977  10.345  14.988  0.00  0.00    +0.000 C 
ENDBRANCH  18  25
ENDBRANCH   1  19
TORSDOF 4
ENDMDL
