MODEL 1
REMARK VINA RESULT:      -8.2      0.000      0.000
REMARK  Name = 
REMARK  6 active torsions:
REMARK  status: ('A' for Active; 'I' for Inactive)
REMARK    1  A    between atoms: C_1  and  C_2
REMARK    2  A    between atoms: C_3  and  C_4
REMARK    3  A    between atoms: C_4  and  C_5
REMARK    4  A    between atoms: C_5  and  C_6
REMARK    5  A    between atoms: C_6  and  O_8
REMARK    6  A    between atoms: C_17  and  C_18
REMARK                            x       y       z     vdW  Elec       q    Type
REMARK                         _______ _______ _______ _____ _____    ______ ____
ROOT
ATOM      1  C   UNL     1       2.537   9.060  17.653  0.00  0.00    +0.000 C 
ATOM      2  C   UNL     1       1.921   8.557  18.945  0.00  0.00    +0.000 A 
ATOM      3  C   UNL     1       0.908   9.165  19.604  0.00  0.00    +0.000 A 
ATOM      4  C   UNL     1       0.319   8.540  20.826  0.00  0.00    +0.000 A 
ATOM      5  O   UNL     1      -0.570   9.087  21.469  0.00  0.00    +0.000 OA
ATOM      6  O   UNL     1       0.803   7.298  21.223  0.00  0.00    +0.000 OA
ATOM      7  C   UNL     1       1.803   6.623  20.501  0.00  0.00    +0.000 A 
ATOM      8  C   UNL     1       2.122   5.315  20.919  0.00  0.00    +0.000 A 
ATOM      9  C   UNL     1       3.039   4.636  20.118  0.00  0.00    +0.000 A 
ATOM     10  O   UNL     1       3.447   3.342  20.249  0.00  0.00    +0.000 OA
ATOM     11  C   UNL     1       4.302   3.082  19.216  0.00  0.00    +0.000 A 
ATOM     12  C   UNL     1       4.466   4.195  18.418  0.00  0.00    +0.000 A 
ATOM     13  C   UNL     1       3.671   5.210  19.026  0.00  0.00    +0.000 A 
ATOM     14  C   UNL     1       3.405   6.556  18.731  0.00  0.00    +0.000 A 
ATOM     15  C   UNL     1       2.406   7.249  19.416  0.00  0.00    +0.000 A 
ENDROOT
BRANCH  12  16
ATOM     16  C   UNL     1       5.265   4.284  17.200  0.00  0.00    +0.000 A 
ATOM     17  C   UNL     1       4.642   4.145  15.945  0.00  0.00    +0.000 A 
ATOM     18  C   UNL     1       5.339   4.379  14.759  0.00  0.00    +0.000 A 
ATOM     19  C   UNL     1       6.689   4.702  14.810  0.00  0.00    +0.000 A 
ATOM     20  C   UNL     1       7.337   4.783  16.043  0.00  0.00    +0.000 A 
ATOM     21  C   UNL     1       6.629   4.582  17.234  0.00  0.00    +0.000 A 
ENDBRANCH  12  16
BRANCH   3  22
ATOM     22  C   UNL     1       0.280  10.443  19.071  0.00  0.00    +0.000 C 
BRANCH  22  23
ATOM     23  C   UNL     1      -0.970  10.387  18.193  0.00  0.00    +0.000 C 
BRANCH  23  24
ATOM     24  C   UNL     1      -1.709  11.707  18.272  0.00  0.00    +0.000 C 
ATOM     25  O   UNL     1      -2.627  11.962  19.036  0.00  0.00    +0.000 OA
BRANCH  24  26
ATOM     26  O   UNL     1      -1.238  12.615  17.381  0.00  0.00    +0.000 OA
ATOM     27  H   UNL     1      -1.940  13.172  16.993  0.00  0.00    +0.000 HD
ENDBRANCH  24  26
ENDBRANCH  23  24
ENDBRANCH  22  23
ENDBRANCH   3  22
TORSDOF 5
ENDMDL
MODEL 2
REMARK VINA RESULT:      -8.0      2.612      7.957
REMARK  Name = 
REMARK  6 active torsions:
REMARK  status: ('A' for Active; 'I' for Inactive)
REMARK    1  A    between atoms: C_1  and  C_2
REMARK    2  A    between atoms: C_3  and  C_4
REMARK    3  A    between atoms: C_4  and  C_5
REMARK    4  A    between atoms: C_5  and  C_6
REMARK    5  A    between atoms: C_6  and  O_8
REMARK    6  A    between atoms: C_17  and  C_18
REMARK                            x       y       z     vdW  Elec       q    Type
REMARK                         _______ _______ _______ _____ _____    ______ ____
ROOT
ATOM      1  C   UNL     1       2.306   4.879  21.274  0.00  0.00    +0.000 C 
ATOM      2  C   UNL     1       2.927   5.037  19.899  0.00  0.00    +0.000 A 
ATOM      3  C   UNL     1       3.457   4.027  19.172  0.00  0.00    +0.000 A 
ATOM      4  C   UNL     1       3.970   4.278  17.791  0.00  0.00    +0.000 A 
ATOM      5  O   UNL     1       4.495   3.393  17.124  0.00  0.00    +0.000 OA
ATOM      6  O   UNL     1       3.829   5.557  17.264  0.00  0.00    +0.000 OA
ATOM      7  C   UNL     1       3.210   6.595  17.983  0.00  0.00    +0.000 A 
ATOM      8  C   UNL     1       3.005   7.811  17.301  0.00  0.00    +0.000 A 
ATOM      9  C   UNL     1       2.294   8.781  18.007  0.00  0.00    +0.000 A 
ATOM     10  O   UNL     1       1.887  10.000  17.549  0.00  0.00    +0.000 OA
ATOM     11  C   UNL     1       1.175  10.591  18.554  0.00  0.00    +0.000 A 
ATOM     12  C   UNL     1       1.121   9.777  19.666  0.00  0.00    +0.000 A 
ATOM     13  C   UNL     1       1.876   8.619  19.318  0.00  0.00    +0.000 A 
ATOM     14  C   UNL     1       2.216   7.433  19.987  0.00  0.00    +0.000 A 
ATOM     15  C   UNL     1       2.815   6.377  19.297  0.00  0.00    +0.000 A 
ENDROOT
BRANCH  12  16
ATOM     16  C   UNL     1       0.411  10.050  20.912  0.00  0.00    +0.000 A 
ATOM     17  C   UNL     1      -0.238  11.286  21.089  0.00  0.00    +0.000 A 
ATOM     18  C   UNL     1      -1.056  11.525  22.194  0.00  0.00    +0.000 A 
ATOM     19  C   UNL     1      -1.191  10.547  23.171  0.00  0.00    +0.000 A 
ATOM     20  C   UNL     1      -0.505   9.339  23.042  0.00  0.00    +0.000 A 
ATOM     21  C   UNL     1       0.288   9.087  21.916  0.00  0.00    +0.000 A 
ENDBRANCH  12  16
BRANCH   3  22
ATOM     22  C   UNL     1       3.462   2.600  19.696  0.00  0.00    +0.000 C 
BRANCH  22  23
ATOM     23  C   UNL     1       2.158   1.811  19.812  0.00  0.00    +0.000 C 
BRANCH  23  24
ATOM     24  C   UNL     1       1.315   2.031  18.572  0.00  0.00    +0.000 C 
ATOM     25  O   UNL     1       0.179   2.478  18.557  0.00  0.00    +0.000 OA
BRANCH  24  26
ATOM     26  O   UNL     1       1.965   1.673  17.437  0.00  0.00    +0.000 OA
ATOM     27  H   UNL     1       1.490   1.933  16.625  0.00  0.00    +0.000 HD
ENDBRANCH  24  26
ENDBRANCH  23  24
ENDBRANCH  22  23
ENDBRANCH   3  22
TORSDOF 5
ENDMDL
MODEL 3
REMARK VINA RESULT:      -8.0      2.591      7.925
REMARK  Name = 
REMARK  6 active torsions:
REMARK  status: ('A' for Active; 'I' for Inactive)
REMARK    1  A    between atoms: C_1  and  C_2
REMARK    2  A    between atoms: C_3  and  C_4
REMARK    3  A    between atoms: C_4  and  C_5
REMARK    4  A    between atoms: C_5  and  C_6
REMARK    5  A    between atoms: C_6  and  O_8
REMARK    6  A    between atoms: C_17  and  C_18
REMARK                            x       y       z     vdW  Elec       q    Type
REMARK                         _______ _______ _______ _____ _____    ______ ____
ROOT
ATOM      1  C   UNL     1       2.153   4.972  21.222  0.00  0.00    +0.000 C 
ATOM      2  C   UNL     1       2.864   5.157  19.895  0.00  0.00    +0.000 A 
ATOM      3  C   UNL     1       3.464   4.166  19.198  0.00  0.00    +0.000 A 
ATOM      4  C   UNL     1       4.066   4.440  17.859  0.00  0.00    +0.000 A 
ATOM      5  O   UNL     1       4.654   3.574  17.222  0.00  0.00    +0.000 OA
ATOM      6  O   UNL     1       3.935   5.722  17.334  0.00  0.00    +0.000 OA
ATOM      7  C   UNL     1       3.246   6.739  18.018  0.00  0.00    +0.000 A 
ATOM      8  C   UNL     1       3.063   7.958  17.334  0.00  0.00    +0.000 A 
ATOM      9  C   UNL     1       2.285   8.906  17.997  0.00  0.00    +0.000 A 
ATOM     10  O   UNL     1       1.886  10.121  17.523  0.00  0.00    +0.000 OA
ATOM     11  C   UNL     1       1.093  10.687  18.481  0.00  0.00    +0.000 A 
ATOM     12  C   UNL     1       0.979   9.861  19.580  0.00  0.00    +0.000 A 
ATOM     13  C   UNL     1       1.781   8.722  19.275  0.00  0.00    +0.000 A 
ATOM     14  C   UNL     1       2.099   7.537  19.955  0.00  0.00    +0.000 A 
ATOM     15  C   UNL     1       2.766   6.500  19.299  0.00  0.00    +0.000 A 
ENDROOT
BRANCH  12  16
ATOM     16  C   UNL     1       0.179  10.107  20.776  0.00  0.00    +0.000 A 
ATOM     17  C   UNL     1       0.224   9.194  21.846  0.00  0.00    +0.000 A 
ATOM     18  C   UNL     1      -0.399   9.471  23.063  0.00  0.00    +0.000 A 
ATOM     19  C   UNL     1      -1.126  10.646  23.209  0.00  0.00    +0.000 A 
ATOM     20  C   UNL     1      -1.231  11.533  22.138  0.00  0.00    +0.000 A 
ATOM     21  C   UNL     1      -0.578  11.271  20.928  0.00  0.00    +0.000 A 
ENDBRANCH  12  16
BRANCH   3  22
ATOM     22  C   UNL     1       3.462   2.733  19.709  0.00  0.00    +0.000 C 
BRANCH  22  23
ATOM     23  C   UNL     1       2.434   1.726  19.194  0.00  0.00    +0.000 C 
BRANCH  23  24
ATOM     24  C   UNL     1       1.133   2.437  18.885  0.00  0.00    +0.000 C 
ATOM     25  O   UNL     1       0.811   2.888  17.797  0.00  0.00    +0.000 OA
BRANCH  24  26
ATOM     26  O   UNL     1       0.326   2.530  19.972  0.00  0.00    +0.000 OA
ATOM     27  H   UNL     1      -0.317   1.798  20.036  0.00  0.00    +0.000 HD
ENDBRANCH  24  26
ENDBRANCH  23  24
ENDBRANCH  22  23
ENDBRANCH   3  22
TORSDOF 5
ENDMDL
MODEL 4
REMARK VINA RESULT:      -7.9      2.670      8.417
REMARK  Name = 
REMARK  6 active torsions:
REMARK  status: ('A' for Active; 'I' for Inactive)
REMARK    1  A    between atoms: C_1  and  C_2
REMARK    2  A    between atoms: C_3  and  C_4
REMARK    3  A    between atoms: C_4  and  C_5
REMARK    4  A    between atoms: C_5  and  C_6
REMARK    5  A    between atoms: C_6  and  O_8
REMARK    6  A    between atoms: C_17  and  C_18
REMARK                            x       y       z     vdW  Elec       q    Type
REMARK                         _______ _______ _______ _____ _____    ______ ____
ROOT
ATOM      1  C   UNL     1       1.581   4.964  21.087  0.00  0.00    +0.000 C 
ATOM      2  C   UNL     1       2.382   5.136  19.810  0.00  0.00    +0.000 A 
ATOM      3  C   UNL     1       2.925   4.122  19.099  0.00  0.00    +0.000 A 
ATOM      4  C   UNL     1       3.627   4.395  17.809  0.00  0.00    +0.000 A 
ATOM      5  O   UNL     1       4.166   3.503  17.163  0.00  0.00    +0.000 OA
ATOM      6  O   UNL     1       3.650   5.705  17.341  0.00  0.00    +0.000 OA
ATOM      7  C   UNL     1       3.022   6.754  18.036  0.00  0.00    +0.000 A 
ATOM      8  C   UNL     1       2.997   8.013  17.404  0.00  0.00    +0.000 A 
ATOM      9  C   UNL     1       2.275   9.004  18.070  0.00  0.00    +0.000 A 
ATOM     10  O   UNL     1       2.022  10.271  17.635  0.00  0.00    +0.000 OA
ATOM     11  C   UNL     1       1.233  10.870  18.576  0.00  0.00    +0.000 A 
ATOM     12  C   UNL     1       0.977  10.012  19.625  0.00  0.00    +0.000 A 
ATOM     13  C   UNL     1       1.682   8.814  19.308  0.00  0.00    +0.000 A 
ATOM     14  C   UNL     1       1.846   7.575  19.946  0.00  0.00    +0.000 A 
ATOM     15  C   UNL     1       2.447   6.507  19.277  0.00  0.00    +0.000 A 
ENDROOT
BRANCH  12  16
ATOM     16  C   UNL     1       0.136  10.283  20.786  0.00  0.00    +0.000 A 
ATOM     17  C   UNL     1       0.233   9.462  21.926  0.00  0.00    +0.000 A 
ATOM     18  C   UNL     1      -0.434   9.780  23.110  0.00  0.00    +0.000 A 
ATOM     19  C   UNL     1      -1.257  10.899  23.152  0.00  0.00    +0.000 A 
ATOM     20  C   UNL     1      -1.414  11.689  22.013  0.00  0.00    +0.000 A 
ATOM     21  C   UNL     1      -0.717  11.388  20.836  0.00  0.00    +0.000 A 
ENDBRANCH  12  16
BRANCH   3  22
ATOM     22  C   UNL     1       2.756   2.676  19.538  0.00  0.00    +0.000 C 
BRANCH  22  23
ATOM     23  C   UNL     1       3.276   2.211  20.898  0.00  0.00    +0.000 C 
BRANCH  23  24
ATOM     24  C   UNL     1       4.716   1.758  20.767  0.00  0.00    +0.000 C 
ATOM     25  O   UNL     1       5.395   1.284  21.665  0.00  0.00    +0.000 OA
BRANCH  24  26
ATOM     26  O   UNL     1       5.199   1.933  19.512  0.00  0.00    +0.000 OA
ATOM     27  H   UNL     1       5.754   1.190  19.208  0.00  0.00    +0.000 HD
ENDBRANCH  24  26
ENDBRANCH  23  24
ENDBRANCH  22  23
ENDBRANCH   3  22
TORSDOF 5
ENDMDL
MODEL 5
REMARK VINA RESULT:      -7.9      0.714      1.212
REMARK  Name = 
REMARK  6 active torsions:
REMARK  status: ('A' for Active; 'I' for Inactive)
REMARK    1  A    between atoms: C_1  and  C_2
REMARK    2  A    between atoms: C_3  and  C_4
REMARK    3  A    between atoms: C_4  and  C_5
REMARK    4  A    between atoms: C_5  and  C_6
REMARK    5  A    between atoms: C_6  and  O_8
REMARK    6  A    between atoms: C_17  and  C_18
REMARK                            x       y       z     vdW  Elec       q    Type
REMARK                         _______ _______ _______ _____ _____    ______ ____
ROOT
ATOM      1  C   UNL     1       2.314   9.280  17.732  0.00  0.00    +0.000 C 
ATOM      2  C   UNL     1       1.781   8.709  19.032  0.00  0.00    +0.000 A 
ATOM      3  C   UNL     1       0.786   9.258  19.765  0.00  0.00    +0.000 A 
ATOM      4  C   UNL     1       0.280   8.570  20.990  0.00  0.00    +0.000 A 
ATOM      5  O   UNL     1      -0.591   9.062  21.698  0.00  0.00    +0.000 OA
ATOM      6  O   UNL     1       0.821   7.329  21.313  0.00  0.00    +0.000 OA
ATOM      7  C   UNL     1       1.802   6.715  20.515  0.00  0.00    +0.000 A 
ATOM      8  C   UNL     1       2.181   5.403  20.866  0.00  0.00    +0.000 A 
ATOM      9  C   UNL     1       3.076   4.785  19.993  0.00  0.00    +0.000 A 
ATOM     10  O   UNL     1       3.529   3.500  20.053  0.00  0.00    +0.000 OA
ATOM     11  C   UNL     1       4.337   3.307  18.968  0.00  0.00    +0.000 A 
ATOM     12  C   UNL     1       4.426   4.454  18.207  0.00  0.00    +0.000 A 
ATOM     13  C   UNL     1       3.633   5.419  18.894  0.00  0.00    +0.000 A 
ATOM     14  C   UNL     1       3.312   6.766  18.665  0.00  0.00    +0.000 A 
ATOM     15  C   UNL     1       2.329   7.400  19.427  0.00  0.00    +0.000 A 
ENDROOT
BRANCH  12  16
ATOM     16  C   UNL     1       5.158   4.614  16.955  0.00  0.00    +0.000 A 
ATOM     17  C   UNL     1       6.462   5.144  16.970  0.00  0.00    +0.000 A 
ATOM     18  C   UNL     1       7.251   5.166  15.819  0.00  0.00    +0.000 A 
ATOM     19  C   UNL     1       6.723   4.707  14.619  0.00  0.00    +0.000 A 
ATOM     20  C   UNL     1       5.411   4.235  14.573  0.00  0.00    +0.000 A 
ATOM     21  C   UNL     1       4.632   4.182  15.735  0.00  0.00    +0.000 A 
ENDBRANCH  12  16
BRANCH   3  22
ATOM     22  C   UNL     1       0.092  10.535  19.315  0.00  0.00    +0.000 C 
BRANCH  22  23
ATOM     23  C   UNL     1      -1.406  10.540  19.015  0.00  0.00    +0.000 C 
BRANCH  23  24
ATOM     24  C   UNL     1      -1.628  10.677  17.522  0.00  0.00    +0.000 C 
ATOM     25  O   UNL     1      -1.871   9.760  16.754  0.00  0.00    +0.000 OA
BRANCH  24  26
ATOM     26  O   UNL     1      -1.528  11.964  17.103  0.00  0.00    +0.000 OA
ATOM     27  H   UNL     1      -2.382  12.340  16.814  0.00  0.00    +0.000 HD
ENDBRANCH  24  26
ENDBRANCH  23  24
ENDBRANCH  22  23
ENDBRANCH   3  22
TORSDOF 5
ENDMDL
MODEL 6
REMARK VINA RESULT:      -7.8      1.138      1.440
REMARK  Name = 
REMARK  6 active torsions:
REMARK  status: ('A' for Active; 'I' for Inactive)
REMARK    1  A    between atoms: C_1  and  C_2
REMARK    2  A    between atoms: C_3  and  C_4
REMARK    3  A    between atoms: C_4  and  C_5
REMARK    4  A    between atoms: C_5  and  C_6
REMARK    5  A    between atoms: C_6  and  O_8
REMARK    6  A    between atoms: C_17  and  C_18
REMARK                            x       y       z     vdW  Elec       q    Type
REMARK                         _______ _______ _______ _____ _____    ______ ____
ROOT
ATOM      1  C   UNL     1       2.595   8.969  17.865  0.00  0.00    +0.000 C 
ATOM      2  C   UNL     1       1.978   8.399  19.128  0.00  0.00    +0.000 A 
ATOM      3  C   UNL     1       0.970   8.977  19.821  0.00  0.00    +0.000 A 
ATOM      4  C   UNL     1       0.378   8.290  21.008  0.00  0.00    +0.000 A 
ATOM      5  O   UNL     1      -0.507   8.806  21.682  0.00  0.00    +0.000 OA
ATOM      6  O   UNL     1       0.854   7.024  21.336  0.00  0.00    +0.000 OA
ATOM      7  C   UNL     1       1.848   6.384  20.576  0.00  0.00    +0.000 A 
ATOM      8  C   UNL     1       2.159   5.053  20.922  0.00  0.00    +0.000 A 
ATOM      9  C   UNL     1       3.071   4.413  20.083  0.00  0.00    +0.000 A 
ATOM     10  O   UNL     1       3.470   3.111  20.143  0.00  0.00    +0.000 OA
ATOM     11  C   UNL     1       4.323   2.902  19.096  0.00  0.00    +0.000 A 
ATOM     12  C   UNL     1       4.493   4.056  18.360  0.00  0.00    +0.000 A 
ATOM     13  C   UNL     1       3.705   5.042  19.024  0.00  0.00    +0.000 A 
ATOM     14  C   UNL     1       3.448   6.404  18.803  0.00  0.00    +0.000 A 
ATOM     15  C   UNL     1       2.454   7.064  19.527  0.00  0.00    +0.000 A 
ENDROOT
BRANCH  12  16
ATOM     16  C   UNL     1       5.291   4.206  17.147  0.00  0.00    +0.000 A 
ATOM     17  C   UNL     1       4.674   4.092  15.887  0.00  0.00    +0.000 A 
ATOM     18  C   UNL     1       5.366   4.383  14.711  0.00  0.00    +0.000 A 
ATOM     19  C   UNL     1       6.707   4.741  14.775  0.00  0.00    +0.000 A 
ATOM     20  C   UNL     1       7.350   4.799  16.012  0.00  0.00    +0.000 A 
ATOM     21  C   UNL     1       6.646   4.540  17.194  0.00  0.00    +0.000 A 
ENDBRANCH  12  16
BRANCH   3  22
ATOM     22  C   UNL     1       0.349  10.286  19.361  0.00  0.00    +0.000 C 
BRANCH  22  23
ATOM     23  C   UNL     1       0.950  11.625  19.790  0.00  0.00    +0.000 C 
BRANCH  23  24
ATOM     24  C   UNL     1       0.190  12.167  20.983  0.00  0.00    +0.000 C 
ATOM     25  O   UNL     1       0.612  12.994  21.777  0.00  0.00    +0.000 OA
BRANCH  24  26
ATOM     26  O   UNL     1      -1.051  11.628  21.092  0.00  0.00    +0.000 OA
ATOM     27  H   UNL     1      -1.378  11.249  20.254  0.00  0.00    +0.000 HD
ENDBRANCH  24  26
ENDBRANCH  23  24
ENDBRANCH  22  23
ENDBRANCH   3  22
TORSDOF 5
ENDMDL
MODEL 7
REMARK VINA RESULT:      -7.7      0.743      1.033
REMARK  Name = 
REMARK  6 active torsions:
REMARK  status: ('A' for Active; 'I' for Inactive)
REMARK    1  A    between atoms: C_1  and  C_2
REMARK    2  A    between atoms: C_3  and  C_4
REMARK    3  A    between atoms: C_4  and  C_5
REMARK    4  A    between atoms: C_5  and  C_6
REMARK    5  A    between atoms: C_6  and  O_8
REMARK    6  A    between atoms: C_17  and  C_18
REMARK                            x       y       z     vdW  Elec       q    Type
REMARK                         _______ _______ _______ _____ _____    ______ ____
ROOT
ATOM      1  C   UNL     1       2.137   9.366  17.817  0.00  0.00    +0.000 C 
ATOM      2  C   UNL     1       1.654   8.800  19.138  0.00  0.00    +0.000 A 
ATOM      3  C   UNL     1       0.720   9.376  19.929  0.00  0.00    +0.000 A 
ATOM      4  C   UNL     1       0.256   8.692  21.173  0.00  0.00    +0.000 A 
ATOM      5  O   UNL     1      -0.558   9.208  21.932  0.00  0.00    +0.000 OA
ATOM      6  O   UNL     1       0.768   7.430  21.455  0.00  0.00    +0.000 OA
ATOM      7  C   UNL     1       1.682   6.790  20.600  0.00  0.00    +0.000 A 
ATOM      8  C   UNL     1       2.032   5.462  20.917  0.00  0.00    +0.000 A 
ATOM      9  C   UNL     1       2.856   4.822  19.992  0.00  0.00    +0.000 A 
ATOM     10  O   UNL     1       3.265   3.521  20.015  0.00  0.00    +0.000 OA
ATOM     11  C   UNL     1       4.006   3.311  18.887  0.00  0.00    +0.000 A 
ATOM     12  C   UNL     1       4.096   4.463  18.133  0.00  0.00    +0.000 A 
ATOM     13  C   UNL     1       3.376   5.448  18.870  0.00  0.00    +0.000 A 
ATOM     14  C   UNL     1       3.092   6.808  18.671  0.00  0.00    +0.000 A 
ATOM     15  C   UNL     1       2.174   7.468  19.491  0.00  0.00    +0.000 A 
ENDROOT
BRANCH  12  16
ATOM     16  C   UNL     1       4.764   4.611  16.844  0.00  0.00    +0.000 A 
ATOM     17  C   UNL     1       4.923   5.892  16.282  0.00  0.00    +0.000 A 
ATOM     18  C   UNL     1       5.692   6.092  15.135  0.00  0.00    +0.000 A 
ATOM     19  C   UNL     1       6.269   5.000  14.498  0.00  0.00    +0.000 A 
ATOM     20  C   UNL     1       6.070   3.716  15.007  0.00  0.00    +0.000 A 
ATOM     21  C   UNL     1       5.327   3.520  16.177  0.00  0.00    +0.000 A 
ENDBRANCH  12  16
BRANCH   3  22
ATOM     22  C   UNL     1       0.050  10.682  19.530  0.00  0.00    +0.000 C 
BRANCH  22  23
ATOM     23  C   UNL     1      -1.188  10.677  18.632  0.00  0.00    +0.000 C 
BRANCH  23  24
ATOM     24  C   UNL     1      -1.586  12.101  18.304  0.00  0.00    +0.000 C 
ATOM     25  O   UNL     1      -0.824  12.989  17.956  0.00  0.00    +0.000 OA
BRANCH  24  26
ATOM     26  O   UNL     1      -2.921  12.306  18.438  0.00  0.00    +0.000 OA
ATOM     27  H   UNL     1      -3.144  13.223  18.691  0.00  0.00    +0.000 HD
ENDBRANCH  24  26
ENDBRANCH  23  24
ENDBRANCH  22  23
ENDBRANCH   3  22
TORSDOF 5
ENDMDL
MODEL 8
REMARK VINA RESULT:      -7.7      0.944      1.167
REMARK  Name = 
REMARK  6 active torsions:
REMARK  status: ('A' for Active; 'I' for Inactive)
REMARK    1  A    between atoms: C_1  and  C_2
REMARK    2  A    between atoms: C_3  and  C_4
REMARK    3  A    between atoms: C_4  and  C_5
REMARK    4  A    between atoms: C_5  and  C_6
REMARK    5  A    between atoms: C_6  and  O_8
REMARK    6  A    between atoms: C_17  and  C_18
REMARK                            x       y       z     vdW  Elec       q    Type
REMARK                         _______ _______ _______ _____ _____    ______ ____
ROOT
ATOM      1  C   UNL     1       2.577   8.992  17.785  0.00  0.00    +0.000 C 
ATOM      2  C   UNL     1       1.966   8.446  19.061  0.00  0.00    +0.000 A 
ATOM      3  C   UNL     1       0.957   9.034  19.745  0.00  0.00    +0.000 A 
ATOM      4  C   UNL     1       0.372   8.370  20.948  0.00  0.00    +0.000 A 
ATOM      5  O   UNL     1      -0.512   8.896  21.614  0.00  0.00    +0.000 OA
ATOM      6  O   UNL     1       0.854   7.113  21.301  0.00  0.00    +0.000 OA
ATOM      7  C   UNL     1       1.849   6.461  20.551  0.00  0.00    +0.000 A 
ATOM      8  C   UNL     1       2.166   5.139  20.923  0.00  0.00    +0.000 A 
ATOM      9  C   UNL     1       3.077   4.485  20.095  0.00  0.00    +0.000 A 
ATOM     10  O   UNL     1       3.482   3.186  20.180  0.00  0.00    +0.000 OA
ATOM     11  C   UNL     1       4.332   2.959  19.134  0.00  0.00    +0.000 A 
ATOM     12  C   UNL     1       4.496   4.098  18.374  0.00  0.00    +0.000 A 
ATOM     13  C   UNL     1       3.706   5.094  19.020  0.00  0.00    +0.000 A 
ATOM     14  C   UNL     1       3.443   6.450  18.772  0.00  0.00    +0.000 A 
ATOM     15  C   UNL     1       2.448   7.122  19.485  0.00  0.00    +0.000 A 
ENDROOT
BRANCH  12  16
ATOM     16  C   UNL     1       5.289   4.226  17.156  0.00  0.00    +0.000 A 
ATOM     17  C   UNL     1       4.666   4.101  15.900  0.00  0.00    +0.000 A 
ATOM     18  C   UNL     1       5.354   4.372  14.717  0.00  0.00    +0.000 A 
ATOM     19  C   UNL     1       6.698   4.719  14.771  0.00  0.00    +0.000 A 
ATOM     20  C   UNL     1       7.348   4.788  16.004  0.00  0.00    +0.000 A 
ATOM     21  C   UNL     1       6.647   4.549  17.192  0.00  0.00    +0.000 A 
ENDBRANCH  12  16
BRANCH   3  22
ATOM     22  C   UNL     1       0.330  10.331  19.260  0.00  0.00    +0.000 C 
BRANCH  22  23
ATOM     23  C   UNL     1       0.860  11.680  19.746  0.00  0.00    +0.000 C 
BRANCH  23  24
ATOM     24  C   UNL     1       0.850  12.675  18.604  0.00  0.00    +0.000 C 
ATOM     25  O   UNL     1      -0.026  13.499  18.389  0.00  0.00    +0.000 OA
BRANCH  24  26
ATOM     26  O   UNL     1       1.946  12.563  17.813  0.00  0.00    +0.000 OA
ATOM     27  H   UNL     1       1.858  11.867  17.134  0.00  0.00    +0.000 HD
ENDBRANCH  24  26
ENDBRANCH  23  24
ENDBRANCH  22  23
ENDBRANCH   3  22
TORSDOF 5
ENDMDL
MODEL 9
REMARK VINA RESULT:      -7.7      1.079      1.695
REMARK  Name = 
REMARK  6 active torsions:
REMARK  status: ('A' for Active; 'I' for Inactive)
REMARK    1  A    between atoms: C_1  and  C_2
REMARK    2  A    between atoms: C_3  and  C_4
REMARK    3  A    between atoms: C_4  and  C_5
REMARK    4  A    between atoms: C_5  and  C_6
REMARK    5  A    between atoms: C_6  and  O_8
REMARK    6  A    between atoms: C_17  and  C_18
REMARK                            x       y       z     vdW  Elec       q    Type
REMARK                         _______ _______ _______ _____ _____    ______ ____
ROOT
ATOM      1  C   UNL     1       2.379   9.194  17.849  0.00  0.00    +0.000 C 
ATOM      2  C   UNL     1       1.834   8.584  19.127  0.00  0.00    +0.000 A 
ATOM      3  C   UNL     1       0.841   9.119  19.873  0.00  0.00    +0.000 A 
ATOM      4  C   UNL     1       0.322   8.394  21.071  0.00  0.00    +0.000 A 
ATOM      5  O   UNL     1      -0.548   8.871  21.792  0.00  0.00    +0.000 OA
ATOM      6  O   UNL     1       0.848   7.137  21.355  0.00  0.00    +0.000 OA
ATOM      7  C   UNL     1       1.827   6.540  20.540  0.00  0.00    +0.000 A 
ATOM      8  C   UNL     1       2.191   5.214  20.848  0.00  0.00    +0.000 A 
ATOM      9  C   UNL     1       3.084   4.616  19.958  0.00  0.00    +0.000 A 
ATOM     10  O   UNL     1       3.523   3.326  19.976  0.00  0.00    +0.000 OA
ATOM     11  C   UNL     1       4.335   3.161  18.890  0.00  0.00    +0.000 A 
ATOM     12  C   UNL     1       4.440   4.333  18.169  0.00  0.00    +0.000 A 
ATOM     13  C   UNL     1       3.653   5.283  18.884  0.00  0.00    +0.000 A 
ATOM     14  C   UNL     1       3.347   6.639  18.700  0.00  0.00    +0.000 A 
ATOM     15  C   UNL     1       2.366   7.257  19.479  0.00  0.00    +0.000 A 
ENDROOT
BRANCH  12  16
ATOM     16  C   UNL     1       5.179   4.528  16.926  0.00  0.00    +0.000 A 
ATOM     17  C   UNL     1       6.448   5.137  16.956  0.00  0.00    +0.000 A 
ATOM     18  C   UNL     1       7.252   5.198  15.817  0.00  0.00    +0.000 A 
ATOM     19  C   UNL     1       6.771   4.700  14.613  0.00  0.00    +0.000 A 
ATOM     20  C   UNL     1       5.491   4.148  14.551  0.00  0.00    +0.000 A 
ATOM     21  C   UNL     1       4.699   4.056  15.702  0.00  0.00    +0.000 A 
ENDBRANCH  12  16
BRANCH   3  22
ATOM     22  C   UNL     1       0.163  10.417  19.464  0.00  0.00    +0.000 C 
BRANCH  22  23
ATOM     23  C   UNL     1       0.662  11.757  20.004  0.00  0.00    +0.000 C 
BRANCH  23  24
ATOM     24  C   UNL     1      -0.304  12.280  21.047  0.00  0.00    +0.000 C 
ATOM     25  O   UNL     1      -1.203  13.082  20.843  0.00  0.00    +0.000 OA
BRANCH  24  26
ATOM     26  O   UNL     1      -0.069  11.756  22.275  0.00  0.00    +0.000 OA
ATOM     27  H   UNL     1      -0.411  10.847  22.376  0.00  0.00    +0.000 HD
ENDBRANCH  24  26
ENDBRANCH  23  24
ENDBRANCH  22  23
ENDBRANCH   3  22
TORSDOF 5
ENDMDL
