MODEL 1
REMARK VINA RESULT:      -8.6      0.000      0.000
REMARK  Name = 
REMARK  7 active torsions:
REMARK  status: ('A' for Active; 'I' for Inactive)
REMARK    1  A    between atoms: C_1  and  C_2
REMARK    2  A    between atoms: N_6  and  C_7
REMARK    3  A    between atoms: C_7  and  C_8
REMARK    4  A    between atoms: C_8  and  C_9
REMARK    5  A    between atoms: C_12  and  C_13
REMARK    6  A    between atoms: C_16  and  S_17
REMARK    7  A    between atoms: S_17  and  C_20
REMARK                            x       y       z     vdW  Elec       q    Type
REMARK                         _______ _______ _______ _____ _____    ______ ____
ROOT
ATOM      1  C   UNL     1       1.479   7.658  20.204  0.00  0.00    +0.000 A 
ATOM      2  C   UNL     1       1.422   6.357  20.744  0.00  0.00    +0.000 A 
ATOM      3  C   UNL     1       2.080   5.285  20.146  0.00  0.00    +0.000 A 
ATOM      4  C   UNL     1       2.778   5.498  18.963  0.00  0.00    +0.000 A 
ATOM      5  C   UNL     1       2.826   6.762  18.376  0.00  0.00    +0.000 A 
ATOM      6  C   UNL     1       2.173   7.830  18.995  0.00  0.00    +0.000 A 
ENDROOT
BRANCH   1  10
ATOM      7  C   UNL     1      -0.374  10.953  22.258  0.00  0.00    +0.000 A 
ATOM      8  C   UNL     1      -0.080  11.030  20.894  0.00  0.00    +0.000 A 
ATOM      9  C   UNL     1       0.522   9.959  20.248  0.00  0.00    +0.000 A 
ATOM     10  C   UNL     1       0.909   8.801  20.945  0.00  0.00    +0.000 A 
ATOM     11  C   UNL     1       0.680   8.773  22.330  0.00  0.00    +0.000 A 
ATOM     12  C   UNL     1       0.035   9.832  22.981  0.00  0.00    +0.000 A 
BRANCH   7  13
ATOM     13  C   UNL     1      -1.202  12.041  22.894  0.00  0.00    +0.000 C 
BRANCH  13  14
ATOM     14  C   UNL     1      -2.340  12.446  21.932  0.00  0.00    +0.000 C 
BRANCH  14  20
ATOM     15  C   UNL     1      -4.468  14.103  20.912  0.00  0.00    +0.000 C 
ATOM     16  C   UNL     1      -4.776  12.814  21.687  0.00  0.00    +0.000 C 
ATOM     17  C   UNL     1      -5.853  13.064  22.741  0.00  0.00    +0.000 C 
ATOM     18  C   UNL     1      -5.053  13.495  23.951  0.00  0.00    +0.000 C 
ATOM     19  C   UNL     1      -3.814  12.625  23.877  0.00  0.00    +0.000 C 
ATOM     20  N   UNL     1      -3.676  12.218  22.475  0.00  0.00    +0.000 NA
ENDBRANCH  14  20
ENDBRANCH  13  14
ENDBRANCH   7  13
ENDBRANCH   1  10
BRANCH   4  21
ATOM     21  S   UNL     1       3.701   4.145  18.266  0.00  0.00    +0.000 S 
ATOM     22  O   UNL     1       4.065   3.276  19.369  0.00  0.00    +0.000 OA
ATOM     23  O   UNL     1       2.916   3.632  17.154  0.00  0.00    +0.000 OA
BRANCH  21  24
ATOM     24  C   UNL     1       5.184   4.902  17.601  0.00  0.00    +0.000 C 
ATOM     25  C   UNL     1       5.600   4.140  16.336  0.00  0.00    +0.000 C 
ATOM     26  C   UNL     1       6.984   4.542  15.860  0.00  0.00    +0.000 C 
ATOM     27  O   UNL     1       7.928   4.429  16.921  0.00  0.00    +0.000 OA
ATOM     28  C   UNL     1       7.639   5.325  17.987  0.00  0.00    +0.000 C 
ATOM     29  C   UNL     1       6.310   4.970  18.633  0.00  0.00    +0.000 C 
ENDBRANCH  21  24
ENDBRANCH   4  21
TORSDOF 6
ENDMDL
MODEL 2
REMARK VINA RESULT:      -8.5      0.550      1.383
REMARK  Name = 
REMARK  7 active torsions:
REMARK  status: ('A' for Active; 'I' for Inactive)
REMARK    1  A    between atoms: C_1  and  C_2
REMARK    2  A    between atoms: N_6  and  C_7
REMARK    3  A    between atoms: C_7  and  C_8
REMARK    4  A    between atoms: C_8  and  C_9
REMARK    5  A    between atoms: C_12  and  C_13
REMARK    6  A    between atoms: C_16  and  S_17
REMARK    7  A    between atoms: S_17  and  C_20
REMARK                            x       y       z     vdW  Elec       q    Type
REMARK                         _______ _______ _______ _____ _____    ______ ____
ROOT
ATOM      1  C   UNL     1       1.518   7.920  20.231  0.00  0.00    +0.000 A 
ATOM      2  C   UNL     1       2.203   8.044  19.005  0.00  0.00    +0.000 A 
ATOM      3  C   UNL     1       2.855   6.963  18.416  0.00  0.00    +0.000 A 
ATOM      4  C   UNL     1       2.864   5.740  19.077  0.00  0.00    +0.000 A 
ATOM      5  C   UNL     1       2.231   5.586  20.309  0.00  0.00    +0.000 A 
ATOM      6  C   UNL     1       1.569   6.675  20.881  0.00  0.00    +0.000 A 
ENDROOT
BRANCH   1  10
ATOM      7  C   UNL     1      -0.686  11.235  21.862  0.00  0.00    +0.000 A 
ATOM      8  C   UNL     1      -0.370  10.124  22.649  0.00  0.00    +0.000 A 
ATOM      9  C   UNL     1       0.338   9.061  22.106  0.00  0.00    +0.000 A 
ATOM     10  C   UNL     1       0.702   9.036  20.749  0.00  0.00    +0.000 A 
ATOM     11  C   UNL     1       0.306  10.123  19.952  0.00  0.00    +0.000 A 
ATOM     12  C   UNL     1      -0.372  11.218  20.503  0.00  0.00    +0.000 A 
BRANCH   7  13
ATOM     13  C   UNL     1      -1.278  12.457  22.518  0.00  0.00    +0.000 C 
BRANCH  13  14
ATOM     14  C   UNL     1      -2.613  12.811  21.827  0.00  0.00    +0.000 C 
BRANCH  14  20
ATOM     15  C   UNL     1      -4.687  14.755  22.314  0.00  0.00    +0.000 C 
ATOM     16  C   UNL     1      -4.963  13.253  22.472  0.00  0.00    +0.000 C 
ATOM     17  C   UNL     1      -5.702  12.975  23.779  0.00  0.00    +0.000 C 
ATOM     18  C   UNL     1      -4.577  12.783  24.773  0.00  0.00    +0.000 C 
ATOM     19  C   UNL     1      -3.523  12.050  23.967  0.00  0.00    +0.000 C 
ATOM     20  N   UNL     1      -3.792  12.354  22.559  0.00  0.00    +0.000 NA
ENDBRANCH  14  20
ENDBRANCH  13  14
ENDBRANCH   7  13
ENDBRANCH   1  10
BRANCH   4  21
ATOM     21  S   UNL     1       3.609   4.342  18.266  0.00  0.00    +0.000 S 
ATOM     22  O   UNL     1       3.935   3.382  19.304  0.00  0.00    +0.000 OA
ATOM     23  O   UNL     1       2.723   3.970  17.174  0.00  0.00    +0.000 OA
BRANCH  21  24
ATOM     24  C   UNL     1       5.127   4.981  17.561  0.00  0.00    +0.000 C 
ATOM     25  C   UNL     1       5.528   4.098  16.373  0.00  0.00    +0.000 C 
ATOM     26  C   UNL     1       6.932   4.404  15.884  0.00  0.00    +0.000 C 
ATOM     27  O   UNL     1       7.858   4.348  16.965  0.00  0.00    +0.000 OA
ATOM     28  C   UNL     1       7.593   5.344  17.945  0.00  0.00    +0.000 C 
ATOM     29  C   UNL     1       6.243   5.096  18.600  0.00  0.00    +0.000 C 
ENDBRANCH  21  24
ENDBRANCH   4  21
TORSDOF 6
ENDMDL
MODEL 3
REMARK VINA RESULT:      -8.3      0.768      1.311
REMARK  Name = 
REMARK  7 active torsions:
REMARK  status: ('A' for Active; 'I' for Inactive)
REMARK    1  A    between atoms: C_1  and  C_2
REMARK    2  A    between atoms: N_6  and  C_7
REMARK    3  A    between atoms: C_7  and  C_8
REMARK    4  A    between atoms: C_8  and  C_9
REMARK    5  A    between atoms: C_12  and  C_13
REMARK    6  A    between atoms: C_16  and  S_17
REMARK    7  A    between atoms: S_17  and  C_20
REMARK                            x       y       z     vdW  Elec       q    Type
REMARK                         _______ _______ _______ _____ _____    ______ ____
ROOT
ATOM      1  C   UNL     1       1.413   8.002  20.250  0.00  0.00    +0.000 A 
ATOM      2  C   UNL     1       1.498   6.716  20.821  0.00  0.00    +0.000 A 
ATOM      3  C   UNL     1       2.169   5.675  20.185  0.00  0.00    +0.000 A 
ATOM      4  C   UNL     1       2.735   5.901  18.937  0.00  0.00    +0.000 A 
ATOM      5  C   UNL     1       2.640   7.148  18.321  0.00  0.00    +0.000 A 
ATOM      6  C   UNL     1       1.976   8.187  18.976  0.00  0.00    +0.000 A 
ENDROOT
BRANCH   1  10
ATOM      7  C   UNL     1      -0.419  11.293  22.330  0.00  0.00    +0.000 A 
ATOM      8  C   UNL     1       0.274  11.495  21.134  0.00  0.00    +0.000 A 
ATOM      9  C   UNL     1       0.863  10.423  20.478  0.00  0.00    +0.000 A 
ATOM     10  C   UNL     1       0.837   9.125  21.018  0.00  0.00    +0.000 A 
ATOM     11  C   UNL     1       0.206   8.954  22.261  0.00  0.00    +0.000 A 
ATOM     12  C   UNL     1      -0.426  10.023  22.908  0.00  0.00    +0.000 A 
BRANCH   7  13
ATOM     13  C   UNL     1      -1.215  12.430  22.920  0.00  0.00    +0.000 C 
BRANCH  13  14
ATOM     14  C   UNL     1      -2.719  12.181  22.674  0.00  0.00    +0.000 C 
BRANCH  14  20
ATOM     15  C   UNL     1      -4.593  12.379  24.857  0.00  0.00    +0.000 C 
ATOM     16  C   UNL     1      -4.199  13.619  24.043  0.00  0.00    +0.000 C 
ATOM     17  C   UNL     1      -5.438  14.424  23.655  0.00  0.00    +0.000 C 
ATOM     18  C   UNL     1      -5.851  13.800  22.339  0.00  0.00    +0.000 C 
ATOM     19  C   UNL     1      -4.527  13.491  21.670  0.00  0.00    +0.000 C 
ATOM     20  N   UNL     1      -3.533  13.393  22.743  0.00  0.00    +0.000 NA
ENDBRANCH  14  20
ENDBRANCH  13  14
ENDBRANCH   7  13
ENDBRANCH   1  10
BRANCH   4  21
ATOM     21  S   UNL     1       3.680   4.594  18.183  0.00  0.00    +0.000 S 
ATOM     22  O   UNL     1       4.368   3.902  19.257  0.00  0.00    +0.000 OA
ATOM     23  O   UNL     1       2.770   3.871  17.307  0.00  0.00    +0.000 OA
BRANCH  21  24
ATOM     24  C   UNL     1       4.886   5.436  17.160  0.00  0.00    +0.000 C 
ATOM     25  C   UNL     1       5.279   4.513  16.000  0.00  0.00    +0.000 C 
ATOM     26  C   UNL     1       6.484   5.036  15.239  0.00  0.00    +0.000 C 
ATOM     27  O   UNL     1       7.559   5.303  16.134  0.00  0.00    +0.000 OA
ATOM     28  C   UNL     1       7.239   6.337  17.057  0.00  0.00    +0.000 C 
ATOM     29  C   UNL     1       6.100   5.902  17.965  0.00  0.00    +0.000 C 
ENDBRANCH  21  24
ENDBRANCH   4  21
TORSDOF 6
ENDMDL
MODEL 4
REMARK VINA RESULT:      -8.2      0.608      1.079
REMARK  Name = 
REMARK  7 active torsions:
REMARK  status: ('A' for Active; 'I' for Inactive)
REMARK    1  A    between atoms: C_1  and  C_2
REMARK    2  A    between atoms: N_6  and  C_7
REMARK    3  A    between atoms: C_7  and  C_8
REMARK    4  A    between atoms: C_8  and  C_9
REMARK    5  A    between atoms: C_12  and  C_13
REMARK    6  A    between atoms: C_16  and  S_17
REMARK    7  A    between atoms: S_17  and  C_20
REMARK                            x       y       z     vdW  Elec       q    Type
REMARK                         _______ _______ _______ _____ _____    ______ ____
ROOT
ATOM      1  C   UNL     1       1.636   7.711  20.290  0.00  0.00    +0.000 A 
ATOM      2  C   UNL     1       2.150   7.921  18.995  0.00  0.00    +0.000 A 
ATOM      3  C   UNL     1       2.704   6.884  18.249  0.00  0.00    +0.000 A 
ATOM      4  C   UNL     1       2.786   5.616  18.814  0.00  0.00    +0.000 A 
ATOM      5  C   UNL     1       2.323   5.376  20.107  0.00  0.00    +0.000 A 
ATOM      6  C   UNL     1       1.758   6.424  20.839  0.00  0.00    +0.000 A 
ENDROOT
BRANCH   1  10
ATOM      7  C   UNL     1      -0.665  10.771  22.254  0.00  0.00    +0.000 A 
ATOM      8  C   UNL     1      -0.517  10.763  20.864  0.00  0.00    +0.000 A 
ATOM      9  C   UNL     1       0.232   9.771  20.247  0.00  0.00    +0.000 A 
ATOM     10  C   UNL     1       0.911   8.791  20.991  0.00  0.00    +0.000 A 
ATOM     11  C   UNL     1       0.819   8.861  22.391  0.00  0.00    +0.000 A 
ATOM     12  C   UNL     1       0.031   9.834  23.019  0.00  0.00    +0.000 A 
BRANCH   7  13
ATOM     13  C   UNL     1      -1.639  11.734  22.884  0.00  0.00    +0.000 C 
BRANCH  13  14
ATOM     14  C   UNL     1      -2.620  12.246  21.807  0.00  0.00    +0.000 C 
BRANCH  14  20
ATOM     15  C   UNL     1      -3.949  14.670  20.983  0.00  0.00    +0.000 C 
ATOM     16  C   UNL     1      -4.743  13.504  21.587  0.00  0.00    +0.000 C 
ATOM     17  C   UNL     1      -5.713  14.008  22.654  0.00  0.00    +0.000 C 
ATOM     18  C   UNL     1      -4.878  13.977  23.916  0.00  0.00    +0.000 C 
ATOM     19  C   UNL     1      -4.035  12.729  23.745  0.00  0.00    +0.000 C 
ATOM     20  N   UNL     1      -3.977  12.462  22.305  0.00  0.00    +0.000 NA
ENDBRANCH  14  20
ENDBRANCH  13  14
ENDBRANCH   7  13
ENDBRANCH   1  10
BRANCH   4  21
ATOM     21  S   UNL     1       3.398   4.277  17.814  0.00  0.00    +0.000 S 
ATOM     22  O   UNL     1       3.946   3.291  18.726  0.00  0.00    +0.000 OA
ATOM     23  O   UNL     1       2.327   3.916  16.898  0.00  0.00    +0.000 OA
BRANCH  21  24
ATOM     24  C   UNL     1       4.732   4.997  16.858  0.00  0.00    +0.000 C 
ATOM     25  C   UNL     1       5.225   3.958  15.842  0.00  0.00    +0.000 C 
ATOM     26  C   UNL     1       6.520   4.385  15.175  0.00  0.00    +0.000 C 
ATOM     27  O   UNL     1       7.497   4.721  16.156  0.00  0.00    +0.000 OA
ATOM     28  C   UNL     1       7.105   5.845  16.934  0.00  0.00    +0.000 C 
ATOM     29  C   UNL     1       5.862   5.520  17.745  0.00  0.00    +0.000 C 
ENDBRANCH  21  24
ENDBRANCH   4  21
TORSDOF 6
ENDMDL
MODEL 5
REMARK VINA RESULT:      -8.2      5.695     10.900
REMARK  Name = 
REMARK  7 active torsions:
REMARK  status: ('A' for Active; 'I' for Inactive)
REMARK    1  A    between atoms: C_1  and  C_2
REMARK    2  A    between atoms: N_6  and  C_7
REMARK    3  A    between atoms: C_7  and  C_8
REMARK    4  A    between atoms: C_8  and  C_9
REMARK    5  A    between atoms: C_12  and  C_13
REMARK    6  A    between atoms: C_16  and  S_17
REMARK    7  A    between atoms: S_17  and  C_20
REMARK                            x       y       z     vdW  Elec       q    Type
REMARK                         _______ _______ _______ _____ _____    ______ ____
ROOT
ATOM      1  C   UNL     1       0.094  10.782  20.709  0.00  0.00    +0.000 A 
ATOM      2  C   UNL     1      -0.087  12.015  20.051  0.00  0.00    +0.000 A 
ATOM      3  C   UNL     1      -0.615  13.125  20.705  0.00  0.00    +0.000 A 
ATOM      4  C   UNL     1      -1.011  13.000  22.032  0.00  0.00    +0.000 A 
ATOM      5  C   UNL     1      -0.884  11.787  22.707  0.00  0.00    +0.000 A 
ATOM      6  C   UNL     1      -0.339  10.686  22.042  0.00  0.00    +0.000 A 
ENDROOT
BRANCH   1  10
ATOM      7  C   UNL     1       2.336   7.687  18.734  0.00  0.00    +0.000 A 
ATOM      8  C   UNL     1       1.855   8.790  18.024  0.00  0.00    +0.000 A 
ATOM      9  C   UNL     1       1.129   9.778  18.676  0.00  0.00    +0.000 A 
ATOM     10  C   UNL     1       0.804   9.674  20.040  0.00  0.00    +0.000 A 
ATOM     11  C   UNL     1       1.226   8.519  20.719  0.00  0.00    +0.000 A 
ATOM     12  C   UNL     1       1.993   7.539  20.078  0.00  0.00    +0.000 A 
BRANCH   7  13
ATOM     13  C   UNL     1       3.284   6.731  18.054  0.00  0.00    +0.000 C 
BRANCH  13  14
ATOM     14  C   UNL     1       3.374   5.428  18.878  0.00  0.00    +0.000 C 
BRANCH  14  20
ATOM     15  C   UNL     1       1.252   3.963  20.170  0.00  0.00    +0.000 C 
ATOM     16  C   UNL     1       1.556   3.758  18.679  0.00  0.00    +0.000 C 
ATOM     17  C   UNL     1       1.609   2.269  18.340  0.00  0.00    +0.000 C 
ATOM     18  C   UNL     1       3.058   1.913  18.594  0.00  0.00    +0.000 C 
ATOM     19  C   UNL     1       3.807   3.142  18.119  0.00  0.00    +0.000 C 
ATOM     20  N   UNL     1       2.856   4.255  18.178  0.00  0.00    +0.000 NA
ENDBRANCH  14  20
ENDBRANCH  13  14
ENDBRANCH   7  13
ENDBRANCH   1  10
BRANCH   4  21
ATOM     21  S   UNL     1      -1.586  14.452  22.887  0.00  0.00    +0.000 S 
ATOM     22  O   UNL     1      -1.025  14.397  24.225  0.00  0.00    +0.000 OA
ATOM     23  O   UNL     1      -1.309  15.586  22.020  0.00  0.00    +0.000 OA
BRANCH  21  24
ATOM     24  C   UNL     1      -3.363  14.246  22.988  0.00  0.00    +0.000 C 
ATOM     25  C   UNL     1      -3.688  13.362  24.199  0.00  0.00    +0.000 C 
ATOM     26  C   UNL     1      -5.140  12.918  24.206  0.00  0.00    +0.000 C 
ATOM     27  O   UNL     1      -5.483  12.317  22.961  0.00  0.00    +0.000 OA
ATOM     28  C   UNL     1      -5.393  13.239  21.882  0.00  0.00    +0.000 C 
ATOM     29  C   UNL     1      -3.955  13.692  21.691  0.00  0.00    +0.000 C 
ENDBRANCH  21  24
ENDBRANCH   4  21
TORSDOF 6
ENDMDL
MODEL 6
REMARK VINA RESULT:      -8.1      5.399     10.872
REMARK  Name = 
REMARK  7 active torsions:
REMARK  status: ('A' for Active; 'I' for Inactive)
REMARK    1  A    between atoms: C_1  and  C_2
REMARK    2  A    between atoms: N_6  and  C_7
REMARK    3  A    between atoms: C_7  and  C_8
REMARK    4  A    between atoms: C_8  and  C_9
REMARK    5  A    between atoms: C_12  and  C_13
REMARK    6  A    between atoms: C_16  and  S_17
REMARK    7  A    between atoms: S_17  and  C_20
REMARK                            x       y       z     vdW  Elec       q    Type
REMARK                         _______ _______ _______ _____ _____    ______ ____
ROOT
ATOM      1  C   UNL     1       0.606   9.513  20.350  0.00  0.00    +0.000 A 
ATOM      2  C   UNL     1      -0.066  10.489  19.587  0.00  0.00    +0.000 A 
ATOM      3  C   UNL     1      -0.758  11.539  20.186  0.00  0.00    +0.000 A 
ATOM      4  C   UNL     1      -0.819  11.602  21.573  0.00  0.00    +0.000 A 
ATOM      5  C   UNL     1      -0.199  10.635  22.363  0.00  0.00    +0.000 A 
ATOM      6  C   UNL     1       0.503   9.595  21.748  0.00  0.00    +0.000 A 
ENDROOT
BRANCH   1  10
ATOM      7  C   UNL     1       3.272   6.727  18.441  0.00  0.00    +0.000 A 
ATOM      8  C   UNL     1       2.837   7.877  17.776  0.00  0.00    +0.000 A 
ATOM      9  C   UNL     1       1.973   8.763  18.405  0.00  0.00    +0.000 A 
ATOM     10  C   UNL     1       1.464   8.508  19.690  0.00  0.00    +0.000 A 
ATOM     11  C   UNL     1       1.847   7.308  20.311  0.00  0.00    +0.000 A 
ATOM     12  C   UNL     1       2.750   6.430  19.700  0.00  0.00    +0.000 A 
BRANCH   7  13
ATOM     13  C   UNL     1       4.358   5.885  17.820  0.00  0.00    +0.000 C 
BRANCH  13  14
ATOM     14  C   UNL     1       3.715   4.730  17.022  0.00  0.00    +0.000 C 
BRANCH  14  20
ATOM     15  C   UNL     1       1.417   3.385  18.131  0.00  0.00    +0.000 C 
ATOM     16  C   UNL     1       2.712   2.616  17.833  0.00  0.00    +0.000 C 
ATOM     17  C   UNL     1       3.094   1.726  19.015  0.00  0.00    +0.000 C 
ATOM     18  C   UNL     1       3.939   2.643  19.873  0.00  0.00    +0.000 C 
ATOM     19  C   UNL     1       4.714   3.454  18.855  0.00  0.00    +0.000 C 
ATOM     20  N   UNL     1       3.938   3.413  17.613  0.00  0.00    +0.000 NA
ENDBRANCH  14  20
ENDBRANCH  13  14
ENDBRANCH   7  13
ENDBRANCH   1  10
BRANCH   4  21
ATOM     21  S   UNL     1      -1.615  13.005  22.326  0.00  0.00    +0.000 S 
ATOM     22  O   UNL     1      -0.907  13.271  23.566  0.00  0.00    +0.000 OA
ATOM     23  O   UNL     1      -1.712  14.032  21.301  0.00  0.00    +0.000 OA
BRANCH  21  24
ATOM     24  C   UNL     1      -3.271  12.437  22.707  0.00  0.00    +0.000 C 
ATOM     25  C   UNL     1      -4.245  13.042  21.687  0.00  0.00    +0.000 C 
ATOM     26  C   UNL     1      -5.693  12.830  22.089  0.00  0.00    +0.000 C 
ATOM     27  O   UNL     1      -5.913  13.291  23.419  0.00  0.00    +0.000 OA
ATOM     28  C   UNL     1      -5.163  12.547  24.371  0.00  0.00    +0.000 C 
ATOM     29  C   UNL     1      -3.673  12.752  24.148  0.00  0.00    +0.000 C 
ENDBRANCH  21  24
ENDBRANCH   4  21
TORSDOF 6
ENDMDL
MODEL 7
REMARK VINA RESULT:      -8.1      5.628     11.190
REMARK  Name = 
REMARK  7 active torsions:
REMARK  status: ('A' for Active; 'I' for Inactive)
REMARK    1  A    between atoms: C_1  and  C_2
REMARK    2  A    between atoms: N_6  and  C_7
REMARK    3  A    between atoms: C_7  and  C_8
REMARK    4  A    between atoms: C_8  and  C_9
REMARK    5  A    between atoms: C_12  and  C_13
REMARK    6  A    between atoms: C_16  and  S_17
REMARK    7  A    between atoms: S_17  and  C_20
REMARK                            x       y       z     vdW  Elec       q    Type
REMARK                         _______ _______ _______ _____ _____    ______ ____
ROOT
ATOM      1  C   UNL     1       0.029  10.248  20.456  0.00  0.00    +0.000 A 
ATOM      2  C   UNL     1      -0.558  11.305  19.732  0.00  0.00    +0.000 A 
ATOM      3  C   UNL     1      -1.325  12.285  20.358  0.00  0.00    +0.000 A 
ATOM      4  C   UNL     1      -1.549  12.195  21.726  0.00  0.00    +0.000 A 
ATOM      5  C   UNL     1      -1.017  11.144  22.472  0.00  0.00    +0.000 A 
ATOM      6  C   UNL     1      -0.239  10.175  21.834  0.00  0.00    +0.000 A 
ENDROOT
BRANCH   1  10
ATOM      7  C   UNL     1       2.605   7.384  18.540  0.00  0.00    +0.000 A 
ATOM      8  C   UNL     1       2.280   7.266  19.893  0.00  0.00    +0.000 A 
ATOM      9  C   UNL     1       1.451   8.201  20.498  0.00  0.00    +0.000 A 
ATOM     10  C   UNL     1       0.967   9.319  19.795  0.00  0.00    +0.000 A 
ATOM     11  C   UNL     1       1.369   9.466  18.458  0.00  0.00    +0.000 A 
ATOM     12  C   UNL     1       2.171   8.505  17.830  0.00  0.00    +0.000 A 
BRANCH   7  13
ATOM     13  C   UNL     1       3.340   6.258  17.858  0.00  0.00    +0.000 C 
BRANCH  13  14
ATOM     14  C   UNL     1       2.494   4.969  17.947  0.00  0.00    +0.000 C 
BRANCH  14  20
ATOM     15  C   UNL     1       1.157   2.510  18.645  0.00  0.00    +0.000 C 
ATOM     16  C   UNL     1       2.495   2.493  17.892  0.00  0.00    +0.000 C 
ATOM     17  C   UNL     1       3.455   1.487  18.524  0.00  0.00    +0.000 C 
ATOM     18  C   UNL     1       4.161   2.307  19.582  0.00  0.00    +0.000 C 
ATOM     19  C   UNL     1       4.319   3.662  18.923  0.00  0.00    +0.000 C 
ATOM     20  N   UNL     1       3.286   3.743  17.886  0.00  0.00    +0.000 NA
ENDBRANCH  14  20
ENDBRANCH  13  14
ENDBRANCH   7  13
ENDBRANCH   1  10
BRANCH   4  21
ATOM     21  S   UNL     1      -2.441  13.509  22.531  0.00  0.00    +0.000 S 
ATOM     22  O   UNL     1      -1.832  13.689  23.836  0.00  0.00    +0.000 OA
ATOM     23  O   UNL     1      -2.498  14.615  21.587  0.00  0.00    +0.000 OA
BRANCH  21  24
ATOM     24  C   UNL     1      -4.101  12.868  22.742  0.00  0.00    +0.000 C 
ATOM     25  C   UNL     1      -4.768  12.766  21.364  0.00  0.00    +0.000 C 
ATOM     26  C   UNL     1      -6.256  12.487  21.472  0.00  0.00    +0.000 C 
ATOM     27  O   UNL     1      -6.880  13.437  22.330  0.00  0.00    +0.000 OA
ATOM     28  C   UNL     1      -6.398  13.344  23.665  0.00  0.00    +0.000 C 
ATOM     29  C   UNL     1      -4.923  13.705  23.722  0.00  0.00    +0.000 C 
ENDBRANCH  21  24
ENDBRANCH   4  21
TORSDOF 6
ENDMDL
MODEL 8
REMARK VINA RESULT:      -8.1      2.093      2.835
REMARK  Name = 
REMARK  7 active torsions:
REMARK  status: ('A' for Active; 'I' for Inactive)
REMARK    1  A    between atoms: C_1  and  C_2
REMARK    2  A    between atoms: N_6  and  C_7
REMARK    3  A    between atoms: C_7  and  C_8
REMARK    4  A    between atoms: C_8  and  C_9
REMARK    5  A    between atoms: C_12  and  C_13
REMARK    6  A    between atoms: C_16  and  S_17
REMARK    7  A    between atoms: S_17  and  C_20
REMARK                            x       y       z     vdW  Elec       q    Type
REMARK                         _______ _______ _______ _____ _____    ______ ____
ROOT
ATOM      1  C   UNL     1       2.115   7.367  19.317  0.00  0.00    +0.000 A 
ATOM      2  C   UNL     1       2.256   6.363  20.296  0.00  0.00    +0.000 A 
ATOM      3  C   UNL     1       2.985   5.201  20.056  0.00  0.00    +0.000 A 
ATOM      4  C   UNL     1       3.557   5.011  18.803  0.00  0.00    +0.000 A 
ATOM      5  C   UNL     1       3.409   5.963  17.795  0.00  0.00    +0.000 A 
ATOM      6  C   UNL     1       2.686   7.130  18.055  0.00  0.00    +0.000 A 
ENDROOT
BRANCH   1  10
ATOM      7  C   UNL     1       0.086  11.067  20.156  0.00  0.00    +0.000 A 
ATOM      8  C   UNL     1       0.691  10.844  18.917  0.00  0.00    +0.000 A 
ATOM      9  C   UNL     1       1.345   9.646  18.663  0.00  0.00    +0.000 A 
ATOM     10  C   UNL     1       1.476   8.655  19.652  0.00  0.00    +0.000 A 
ATOM     11  C   UNL     1       0.933   8.929  20.918  0.00  0.00    +0.000 A 
ATOM     12  C   UNL     1       0.236  10.117  21.168  0.00  0.00    +0.000 A 
BRANCH   7  13
ATOM     13  C   UNL     1      -0.784  12.284  20.342  0.00  0.00    +0.000 C 
BRANCH  13  14
ATOM     14  C   UNL     1      -1.690  12.458  19.104  0.00  0.00    +0.000 C 
BRANCH  14  20
ATOM     15  C   UNL     1      -2.387  11.157  16.626  0.00  0.00    +0.000 C 
ATOM     16  C   UNL     1      -2.981  10.682  17.959  0.00  0.00    +0.000 C 
ATOM     17  C   UNL     1      -4.490  10.475  17.833  0.00  0.00    +0.000 C 
ATOM     18  C   UNL     1      -5.050  11.840  18.172  0.00  0.00    +0.000 C 
ATOM     19  C   UNL     1      -4.129  12.331  19.270  0.00  0.00    +0.000 C 
ATOM     20  N   UNL     1      -2.870  11.596  19.115  0.00  0.00    +0.000 NA
ENDBRANCH  14  20
ENDBRANCH  13  14
ENDBRANCH   7  13
ENDBRANCH   1  10
BRANCH   4  21
ATOM     21  S   UNL     1       4.574   3.574  18.542  0.00  0.00    +0.000 S 
ATOM     22  O   UNL     1       4.832   3.001  19.850  0.00  0.00    +0.000 OA
ATOM     23  O   UNL     1       3.924   2.783  17.509  0.00  0.00    +0.000 OA
BRANCH  21  24
ATOM     24  C   UNL     1       6.107   4.217  17.872  0.00  0.00    +0.000 C 
ATOM     25  C   UNL     1       6.421   5.553  18.558  0.00  0.00    +0.000 C 
ATOM     26  C   UNL     1       7.552   6.294  17.868  0.00  0.00    +0.000 C 
ATOM     27  O   UNL     1       7.285   6.426  16.476  0.00  0.00    +0.000 OA
ATOM     28  C   UNL     1       7.230   5.164  15.823  0.00  0.00    +0.000 C 
ATOM     29  C   UNL     1       6.062   4.345  16.349  0.00  0.00    +0.000 C 
ENDBRANCH  21  24
ENDBRANCH   4  21
TORSDOF 6
ENDMDL
MODEL 9
REMARK VINA RESULT:      -8.1      5.898     10.894
REMARK  Name = 
REMARK  7 active torsions:
REMARK  status: ('A' for Active; 'I' for Inactive)
REMARK    1  A    between atoms: C_1  and  C_2
REMARK    2  A    between atoms: N_6  and  C_7
REMARK    3  A    between atoms: C_7  and  C_8
REMARK    4  A    between atoms: C_8  and  C_9
REMARK    5  A    between atoms: C_12  and  C_13
REMARK    6  A    between atoms: C_16  and  S_17
REMARK    7  A    between atoms: S_17  and  C_20
REMARK                            x       y       z     vdW  Elec       q    Type
REMARK                         _______ _______ _______ _____ _____    ______ ____
ROOT
ATOM      1  C   UNL     1      -0.360  10.442  20.956  0.00  0.00    +0.000 A 
ATOM      2  C   UNL     1      -1.117  11.437  20.306  0.00  0.00    +0.000 A 
ATOM      3  C   UNL     1      -1.910  12.335  21.016  0.00  0.00    +0.000 A 
ATOM      4  C   UNL     1      -1.987  12.220  22.399  0.00  0.00    +0.000 A 
ATOM      5  C   UNL     1      -1.284  11.225  23.076  0.00  0.00    +0.000 A 
ATOM      6  C   UNL     1      -0.481  10.340  22.352  0.00  0.00    +0.000 A 
ENDROOT
BRANCH   1  10
ATOM      7  C   UNL     1       2.273   7.858  18.741  0.00  0.00    +0.000 A 
ATOM      8  C   UNL     1       2.006   7.625  20.092  0.00  0.00    +0.000 A 
ATOM      9  C   UNL     1       1.158   8.471  20.794  0.00  0.00    +0.000 A 
ATOM     10  C   UNL     1       0.595   9.611  20.195  0.00  0.00    +0.000 A 
ATOM     11  C   UNL     1       0.938   9.877  18.859  0.00  0.00    +0.000 A 
ATOM     12  C   UNL     1       1.760   9.005  18.133  0.00  0.00    +0.000 A 
BRANCH   7  13
ATOM     13  C   UNL     1       3.034   6.823  17.952  0.00  0.00    +0.000 C 
BRANCH  13  14
ATOM     14  C   UNL     1       3.083   5.504  18.754  0.00  0.00    +0.000 C 
BRANCH  14  20
ATOM     15  C   UNL     1       1.819   3.839  20.741  0.00  0.00    +0.000 C 
ATOM     16  C   UNL     1       1.265   3.917  19.311  0.00  0.00    +0.000 C 
ATOM     17  C   UNL     1       0.968   2.520  18.771  0.00  0.00    +0.000 C 
ATOM     18  C   UNL     1       2.283   2.109  18.146  0.00  0.00    +0.000 C 
ATOM     19  C   UNL     1       2.798   3.399  17.539  0.00  0.00    +0.000 C 
ATOM     20  N   UNL     1       2.149   4.490  18.272  0.00  0.00    +0.000 NA
ENDBRANCH  14  20
ENDBRANCH  13  14
ENDBRANCH   7  13
ENDBRANCH   1  10
BRANCH   4  21
ATOM     21  S   UNL     1      -2.920  13.437  23.303  0.00  0.00    +0.000 S 
ATOM     22  O   UNL     1      -3.582  14.272  22.318  0.00  0.00    +0.000 OA
ATOM     23  O   UNL     1      -3.698  12.714  24.297  0.00  0.00    +0.000 OA
BRANCH  21  24
ATOM     24  C   UNL     1      -1.684  14.411  24.161  0.00  0.00    +0.000 C 
ATOM     25  C   UNL     1      -2.345  15.092  25.366  0.00  0.00    +0.000 C 
ATOM     26  C   UNL     1      -1.443  16.141  25.992  0.00  0.00    +0.000 C 
ATOM     27  O   UNL     1      -0.990  17.061  25.004  0.00  0.00    +0.000 OA
ATOM     28  C   UNL     1      -0.180  16.430  24.020  0.00  0.00    +0.000 C 
ATOM     29  C   UNL     1      -0.994  15.414  23.236  0.00  0.00    +0.000 C 
ENDBRANCH  21  24
ENDBRANCH   4  21
TORSDOF 6
ENDMDL
