MODEL 1
REMARK VINA RESULT:      -7.9      0.000      0.000
REMARK  Name = 
REMARK  10 active torsions:
REMARK  status: ('A' for Active; 'I' for Inactive)
REMARK    1  A    between atoms: C_1  and  C_2
REMARK    2  A    between atoms: C_2  and  C_3
REMARK    3  A    between atoms: C_2  and  N_4
REMARK    4  A    between atoms: N_4  and  C_5
REMARK    5  A    between atoms: C_7  and  N_8
REMARK    6  A    between atoms: C_13  and  C_14
REMARK    7  A    between atoms: C_21  and  C_22
REMARK    8  A    between atoms: N_24  and  C_25
REMARK    9  A    between atoms: C_25  and  C_26
REMARK   10  A    between atoms: N_28  and  C_29
REMARK                            x       y       z     vdW  Elec       q    Type
REMARK                         _______ _______ _______ _____ _____    ______ ____
ROOT
ATOM      1  C   UNL     1      -0.691  11.748  20.497  0.00  0.00    +0.000 A 
ATOM      2  C   UNL     1       0.076  10.907  19.656  0.00  0.00    +0.000 A 
ATOM      3  C   UNL     1       0.520   9.686  20.122  0.00  0.00    +0.000 A 
ATOM      4  N   UNL     1       0.142   9.214  21.340  0.00  0.00    +0.000 NA
ATOM      5  C   UNL     1      -0.545  10.048  22.162  0.00  0.00    +0.000 A 
ATOM      6  C   UNL     1      -0.959  11.328  21.819  0.00  0.00    +0.000 A 
ENDROOT
BRANCH   3   7
ATOM      7  N   UNL     1       1.495   8.916  19.414  0.00  0.00    +0.000 N 
ATOM      8  C   UNL     1       1.888   9.256  18.124  0.00  0.00    +0.000 A 
ATOM      9  C   UNL     1       2.842   8.356  17.713  0.00  0.00    +0.000 A 
ATOM     10  C   UNL     1       2.440   7.191  18.391  0.00  0.00    +0.000 A 
ATOM     11  C   UNL     1       2.356   5.826  18.069  0.00  0.00    +0.000 A 
ATOM     12  C   UNL     1       2.076   4.948  19.111  0.00  0.00    +0.000 A 
ATOM     13  C   UNL     1       1.914   5.468  20.379  0.00  0.00    +0.000 A 
ATOM     14  N   UNL     1       1.805   6.796  20.709  0.00  0.00    +0.000 NA
ATOM     15  C   UNL     1       1.977   7.613  19.641  0.00  0.00    +0.000 A 
BRANCH  12  16
ATOM     16  C   UNL     1       1.895   3.535  18.863  0.00  0.00    +0.000 C 
ATOM     17  N   UNL     1       1.794   2.392  18.669  0.00  0.00    +0.000 NA
ENDBRANCH  12  16
ENDBRANCH   3   7
BRANCH   6  18
ATOM     18  C   UNL     1      -1.625  12.144  22.893  0.00  0.00    +0.000 C 
ATOM     19  O   UNL     1      -0.996  13.020  23.483  0.00  0.00    +0.000 OA
ATOM     20  N   UNL     1      -2.947  11.873  23.175  0.00  0.00    +0.000 N 
ATOM     21  H   UNL     1      -3.346  11.018  22.795  0.00  0.00    +0.000 HD
BRANCH  20  22
ATOM     22  C   UNL     1      -3.780  12.637  24.113  0.00  0.00    +0.000 C 
BRANCH  22  23
ATOM     23  C   UNL     1      -5.024  13.185  23.374  0.00  0.00    +0.000 C 
ATOM     24  O   UNL     1      -5.386  14.354  23.510  0.00  0.00    +0.000 OA
ATOM     25  N   UNL     1      -5.709  12.291  22.556  0.00  0.00    +0.000 N 
ATOM     26  H   UNL     1      -5.209  11.450  22.289  0.00  0.00    +0.000 HD
BRANCH  25  27
ATOM     27  C   UNL     1      -6.823  12.749  21.703  0.00  0.00    +0.000 C 
ATOM     28  C   UNL     1      -7.825  11.634  21.344  0.00  0.00    +0.000 C 
ATOM     29  C   UNL     1      -7.144  10.764  20.301  0.00  0.00    +0.000 C 
ATOM     30  S   UNL     1      -6.345  11.934  19.221  0.00  0.00    +0.000 S 
ATOM     31  O   UNL     1      -7.235  12.226  18.117  0.00  0.00    +0.000 OA
ATOM     32  O   UNL     1      -4.973  11.519  19.019  0.00  0.00    +0.000 OA
ATOM     33  C   UNL     1      -6.362  13.313  20.351  0.00  0.00    +0.000 C 
ENDBRANCH  25  27
ENDBRANCH  22  23
ENDBRANCH  20  22
ENDBRANCH   6  18
BRANCH   1  34
ATOM     34  N   UNL     1      -1.208  12.936  19.994  0.00  0.00    +0.000 N 
ATOM     35  H   UNL     1      -2.199  12.959  19.763  0.00  0.00    +0.000 HD
BRANCH  34  37
ATOM     36  C   UNL     1      -0.026  14.577  18.696  0.00  0.00    +0.000 C 
ATOM     37  C   UNL     1      -0.492  14.201  20.095  0.00  0.00    +0.000 C 
ATOM     38  C   UNL     1      -1.379  15.271  20.721  0.00  0.00    +0.000 C 
ENDBRANCH  34  37
ENDBRANCH   1  34
TORSDOF 8
ENDMDL
MODEL 2
REMARK VINA RESULT:      -7.8      2.227      3.364
REMARK  Name = 
REMARK  10 active torsions:
REMARK  status: ('A' for Active; 'I' for Inactive)
REMARK    1  A    between atoms: C_1  and  C_2
REMARK    2  A    between atoms: C_2  and  C_3
REMARK    3  A    between atoms: C_2  and  N_4
REMARK    4  A    between atoms: N_4  and  C_5
REMARK    5  A    between atoms: C_7  and  N_8
REMARK    6  A    between atoms: C_13  and  C_14
REMARK    7  A    between atoms: C_21  and  C_22
REMARK    8  A    between atoms: N_24  and  C_25
REMARK    9  A    between atoms: C_25  and  C_26
REMARK   10  A    between atoms: N_28  and  C_29
REMARK                            x       y       z     vdW  Elec       q    Type
REMARK                         _______ _______ _______ _____ _____    ______ ____
ROOT
ATOM      1  C   UNL     1      -0.567  11.183  18.883  0.00  0.00    +0.000 A 
ATOM      2  C   UNL     1       0.140  10.012  18.520  0.00  0.00    +0.000 A 
ATOM      3  C   UNL     1       1.067   9.470  19.387  0.00  0.00    +0.000 A 
ATOM      4  N   UNL     1       1.239   9.968  20.640  0.00  0.00    +0.000 NA
ATOM      5  C   UNL     1       0.601  11.123  20.960  0.00  0.00    +0.000 A 
ATOM      6  C   UNL     1      -0.280  11.794  20.124  0.00  0.00    +0.000 A 
ENDROOT
BRANCH   3   7
ATOM      7  N   UNL     1       1.977   8.446  18.976  0.00  0.00    +0.000 N 
ATOM      8  C   UNL     1       2.618   8.500  17.743  0.00  0.00    +0.000 A 
ATOM      9  C   UNL     1       3.439   7.403  17.636  0.00  0.00    +0.000 A 
ATOM     10  C   UNL     1       2.729   6.446  18.383  0.00  0.00    +0.000 A 
ATOM     11  C   UNL     1       2.443   5.078  18.242  0.00  0.00    +0.000 A 
ATOM     12  C   UNL     1       1.849   4.442  19.327  0.00  0.00    +0.000 A 
ATOM     13  C   UNL     1       1.596   5.185  20.462  0.00  0.00    +0.000 A 
ATOM     14  N   UNL     1       1.686   6.549  20.583  0.00  0.00    +0.000 NA
ATOM     15  C   UNL     1       2.168   7.138  19.462  0.00  0.00    +0.000 A 
BRANCH  12  16
ATOM     16  C   UNL     1       1.448   3.055  19.246  0.00  0.00    +0.000 C 
ATOM     17  N   UNL     1       1.139   1.933  19.223  0.00  0.00    +0.000 NA
ENDBRANCH  12  16
ENDBRANCH   3   7
BRANCH   6  18
ATOM     18  C   UNL     1      -0.819  13.112  20.611  0.00  0.00    +0.000 C 
ATOM     19  O   UNL     1      -1.909  13.518  20.213  0.00  0.00    +0.000 OA
ATOM     20  N   UNL     1      -0.054  13.824  21.509  0.00  0.00    +0.000 N 
ATOM     21  H   UNL     1       0.911  13.531  21.645  0.00  0.00    +0.000 HD
BRANCH  20  22
ATOM     22  C   UNL     1      -0.470  15.070  22.166  0.00  0.00    +0.000 C 
BRANCH  22  23
ATOM     23  C   UNL     1      -1.351  14.740  23.394  0.00  0.00    +0.000 C 
ATOM     24  O   UNL     1      -0.898  14.785  24.538  0.00  0.00    +0.000 OA
ATOM     25  N   UNL     1      -2.674  14.389  23.138  0.00  0.00    +0.000 N 
ATOM     26  H   UNL     1      -3.036  14.633  22.222  0.00  0.00    +0.000 HD
BRANCH  25  27
ATOM     27  C   UNL     1      -3.630  14.191  24.243  0.00  0.00    +0.000 C 
ATOM     28  C   UNL     1      -4.422  12.872  24.147  0.00  0.00    +0.000 C 
ATOM     29  C   UNL     1      -5.454  13.070  23.049  0.00  0.00    +0.000 C 
ATOM     30  S   UNL     1      -6.066  14.719  23.326  0.00  0.00    +0.000 S 
ATOM     31  O   UNL     1      -7.249  14.638  24.157  0.00  0.00    +0.000 OA
ATOM     32  O   UNL     1      -6.051  15.438  22.070  0.00  0.00    +0.000 OA
ATOM     33  C   UNL     1      -4.702  15.288  24.325  0.00  0.00    +0.000 C 
ENDBRANCH  25  27
ENDBRANCH  22  23
ENDBRANCH  20  22
ENDBRANCH   6  18
BRANCH   1  34
ATOM     34  N   UNL     1      -1.560  11.675  18.044  0.00  0.00    +0.000 N 
ATOM     35  H   UNL     1      -1.381  12.557  17.567  0.00  0.00    +0.000 HD
BRANCH  34  37
ATOM     36  C   UNL     1      -3.958  11.530  18.002  0.00  0.00    +0.000 C 
ATOM     37  C   UNL     1      -2.665  10.849  17.578  0.00  0.00    +0.000 C 
ATOM     38  C   UNL     1      -2.582  10.643  16.071  0.00  0.00    +0.000 C 
ENDBRANCH  34  37
ENDBRANCH   1  34
TORSDOF 8
ENDMDL
MODEL 3
REMARK VINA RESULT:      -7.7      0.822      1.041
REMARK  Name = 
REMARK  10 active torsions:
REMARK  status: ('A' for Active; 'I' for Inactive)
REMARK    1  A    between atoms: C_1  and  C_2
REMARK    2  A    between atoms: C_2  and  C_3
REMARK    3  A    between atoms: C_2  and  N_4
REMARK    4  A    between atoms: N_4  and  C_5
REMARK    5  A    between atoms: C_7  and  N_8
REMARK    6  A    between atoms: C_13  and  C_14
REMARK    7  A    between atoms: C_21  and  C_22
REMARK    8  A    between atoms: N_24  and  C_25
REMARK    9  A    between atoms: C_25  and  C_26
REMARK   10  A    between atoms: N_28  and  C_29
REMARK                            x       y       z     vdW  Elec       q    Type
REMARK                         _______ _______ _______ _____ _____    ______ ____
ROOT
ATOM      1  C   UNL     1       0.453  12.027  20.504  0.00  0.00    +0.000 A 
ATOM      2  C   UNL     1       1.184  11.124  19.696  0.00  0.00    +0.000 A 
ATOM      3  C   UNL     1       0.941   9.768  19.784  0.00  0.00    +0.000 A 
ATOM      4  N   UNL     1      -0.070   9.279  20.550  0.00  0.00    +0.000 NA
ATOM      5  C   UNL     1      -0.728  10.144  21.365  0.00  0.00    +0.000 A 
ATOM      6  C   UNL     1      -0.494  11.511  21.416  0.00  0.00    +0.000 A 
ENDROOT
BRANCH   3   7
ATOM      7  N   UNL     1       1.810   8.804  19.183  0.00  0.00    +0.000 N 
ATOM      8  C   UNL     1       2.269   8.957  17.880  0.00  0.00    +0.000 A 
ATOM      9  C   UNL     1       3.094   7.898  17.586  0.00  0.00    +0.000 A 
ATOM     10  C   UNL     1       2.520   6.872  18.359  0.00  0.00    +0.000 A 
ATOM     11  C   UNL     1       2.251   5.506  18.168  0.00  0.00    +0.000 A 
ATOM     12  C   UNL     1       1.832   4.783  19.280  0.00  0.00    +0.000 A 
ATOM     13  C   UNL     1       1.723   5.444  20.486  0.00  0.00    +0.000 A 
ATOM     14  N   UNL     1       1.795   6.800  20.684  0.00  0.00    +0.000 NA
ATOM     15  C   UNL     1       2.100   7.475  19.549  0.00  0.00    +0.000 A 
BRANCH  12  16
ATOM     16  C   UNL     1       1.458   3.391  19.162  0.00  0.00    +0.000 C 
ATOM     17  N   UNL     1       1.119   2.281  19.087  0.00  0.00    +0.000 NA
ENDBRANCH  12  16
ENDBRANCH   3   7
BRANCH   6  18
ATOM     18  C   UNL     1      -1.253  12.299  22.449  0.00  0.00    +0.000 C 
ATOM     19  O   UNL     1      -0.789  13.349  22.889  0.00  0.00    +0.000 OA
ATOM     20  N   UNL     1      -2.468  11.801  22.869  0.00  0.00    +0.000 N 
ATOM     21  H   UNL     1      -2.699  10.843  22.616  0.00  0.00    +0.000 HD
BRANCH  20  22
ATOM     22  C   UNL     1      -3.386  12.487  23.787  0.00  0.00    +0.000 C 
BRANCH  22  23
ATOM     23  C   UNL     1      -4.509  13.178  22.978  0.00  0.00    +0.000 C 
ATOM     24  O   UNL     1      -4.883  14.319  23.247  0.00  0.00    +0.000 OA
ATOM     25  N   UNL     1      -5.073  12.444  21.937  0.00  0.00    +0.000 N 
ATOM     26  H   UNL     1      -4.542  11.643  21.612  0.00  0.00    +0.000 HD
BRANCH  25  27
ATOM     27  C   UNL     1      -6.050  13.060  21.021  0.00  0.00    +0.000 C 
ATOM     28  C   UNL     1      -7.411  12.336  20.992  0.00  0.00    +0.000 C 
ATOM     29  C   UNL     1      -7.200  11.058  20.197  0.00  0.00    +0.000 C 
ATOM     30  S   UNL     1      -6.178  11.565  18.830  0.00  0.00    +0.000 S 
ATOM     31  O   UNL     1      -7.034  11.892  17.709  0.00  0.00    +0.000 OA
ATOM     32  O   UNL     1      -5.067  10.644  18.712  0.00  0.00    +0.000 OA
ATOM     33  C   UNL     1      -5.584  13.081  19.558  0.00  0.00    +0.000 C 
ENDBRANCH  25  27
ENDBRANCH  22  23
ENDBRANCH  20  22
ENDBRANCH   6  18
BRANCH   1  34
ATOM     34  N   UNL     1       0.641  13.395  20.349  0.00  0.00    +0.000 N 
ATOM     35  H   UNL     1       1.024  13.912  21.138  0.00  0.00    +0.000 HD
BRANCH  34  37
ATOM     36  C   UNL     1      -0.374  15.186  19.107  0.00  0.00    +0.000 C 
ATOM     37  C   UNL     1       0.626  14.040  19.043  0.00  0.00    +0.000 C 
ATOM     38  C   UNL     1       2.024  14.508  18.659  0.00  0.00    +0.000 C 
ENDBRANCH  34  37
ENDBRANCH   1  34
TORSDOF 8
ENDMDL
MODEL 4
REMARK VINA RESULT:      -7.7      2.323      3.177
REMARK  Name = 
REMARK  10 active torsions:
REMARK  status: ('A' for Active; 'I' for Inactive)
REMARK    1  A    between atoms: C_1  and  C_2
REMARK    2  A    between atoms: C_2  and  C_3
REMARK    3  A    between atoms: C_2  and  N_4
REMARK    4  A    between atoms: N_4  and  C_5
REMARK    5  A    between atoms: C_7  and  N_8
REMARK    6  A    between atoms: C_13  and  C_14
REMARK    7  A    between atoms: C_21  and  C_22
REMARK    8  A    between atoms: N_24  and  C_25
REMARK    9  A    between atoms: C_25  and  C_26
REMARK   10  A    between atoms: N_28  and  C_29
REMARK                            x       y       z     vdW  Elec       q    Type
REMARK                         _______ _______ _______ _____ _____    ______ ____
ROOT
ATOM      1  C   UNL     1      -0.442  11.352  18.541  0.00  0.00    +0.000 A 
ATOM      2  C   UNL     1       0.238  10.137  18.282  0.00  0.00    +0.000 A 
ATOM      3  C   UNL     1       1.125   9.632  19.211  0.00  0.00    +0.000 A 
ATOM      4  N   UNL     1       1.281  10.215  20.430  0.00  0.00    +0.000 NA
ATOM      5  C   UNL     1       0.671  11.409  20.649  0.00  0.00    +0.000 A 
ATOM      6  C   UNL     1      -0.168  12.042  19.742  0.00  0.00    +0.000 A 
ENDROOT
BRANCH   3   7
ATOM      7  N   UNL     1       2.014   8.556  18.900  0.00  0.00    +0.000 N 
ATOM      8  C   UNL     1       2.649   8.476  17.666  0.00  0.00    +0.000 A 
ATOM      9  C   UNL     1       3.449   7.358  17.664  0.00  0.00    +0.000 A 
ATOM     10  C   UNL     1       2.724   6.493  18.505  0.00  0.00    +0.000 A 
ATOM     11  C   UNL     1       2.411   5.124  18.500  0.00  0.00    +0.000 A 
ATOM     12  C   UNL     1       1.811   4.609  19.645  0.00  0.00    +0.000 A 
ATOM     13  C   UNL     1       1.579   5.465  20.702  0.00  0.00    +0.000 A 
ATOM     14  N   UNL     1       1.696   6.832  20.688  0.00  0.00    +0.000 NA
ATOM     15  C   UNL     1       2.183   7.299  19.512  0.00  0.00    +0.000 A 
BRANCH  12  16
ATOM     16  C   UNL     1       1.384   3.229  19.702  0.00  0.00    +0.000 C 
ATOM     17  N   UNL     1       1.068   2.112  19.782  0.00  0.00    +0.000 NA
ENDBRANCH  12  16
ENDBRANCH   3   7
BRANCH   6  18
ATOM     18  C   UNL     1      -0.678  13.407  20.119  0.00  0.00    +0.000 C 
ATOM     19  O   UNL     1      -0.934  14.233  19.245  0.00  0.00    +0.000 OA
ATOM     20  N   UNL     1      -0.847  13.680  21.459  0.00  0.00    +0.000 N 
ATOM     21  H   UNL     1      -0.438  13.032  22.129  0.00  0.00    +0.000 HD
BRANCH  20  22
ATOM     22  C   UNL     1      -1.432  14.914  21.999  0.00  0.00    +0.000 C 
BRANCH  22  23
ATOM     23  C   UNL     1      -2.931  14.985  21.624  0.00  0.00    +0.000 C 
ATOM     24  O   UNL     1      -3.347  15.802  20.802  0.00  0.00    +0.000 OA
ATOM     25  N   UNL     1      -3.779  14.085  22.262  0.00  0.00    +0.000 N 
ATOM     26  H   UNL     1      -3.338  13.287  22.706  0.00  0.00    +0.000 HD
BRANCH  25  27
ATOM     27  C   UNL     1      -5.198  13.978  21.874  0.00  0.00    +0.000 C 
ATOM     28  C   UNL     1      -6.112  14.995  22.588  0.00  0.00    +0.000 C 
ATOM     29  C   UNL     1      -6.277  14.496  24.014  0.00  0.00    +0.000 C 
ATOM     30  S   UNL     1      -6.495  12.739  23.833  0.00  0.00    +0.000 S 
ATOM     31  O   UNL     1      -7.913  12.452  23.774  0.00  0.00    +0.000 OA
ATOM     32  O   UNL     1      -5.607  12.062  24.755  0.00  0.00    +0.000 OA
ATOM     33  C   UNL     1      -5.814  12.608  22.189  0.00  0.00    +0.000 C 
ENDBRANCH  25  27
ENDBRANCH  22  23
ENDBRANCH  20  22
ENDBRANCH   6  18
BRANCH   1  34
ATOM     34  N   UNL     1      -1.398  11.810  17.642  0.00  0.00    +0.000 N 
ATOM     35  H   UNL     1      -1.136  12.574  17.023  0.00  0.00    +0.000 HD
BRANCH  34  37
ATOM     36  C   UNL     1      -3.755  11.687  18.094  0.00  0.00    +0.000 C 
ATOM     37  C   UNL     1      -2.601  11.051  17.332  0.00  0.00    +0.000 C 
ATOM     38  C   UNL     1      -2.843  11.020  15.828  0.00  0.00    +0.000 C 
ENDBRANCH  34  37
ENDBRANCH   1  34
TORSDOF 8
ENDMDL
MODEL 5
REMARK VINA RESULT:      -7.6      3.670      6.153
REMARK  Name = 
REMARK  10 active torsions:
REMARK  status: ('A' for Active; 'I' for Inactive)
REMARK    1  A    between atoms: C_1  and  C_2
REMARK    2  A    between atoms: C_2  and  C_3
REMARK    3  A    between atoms: C_2  and  N_4
REMARK    4  A    between atoms: N_4  and  C_5
REMARK    5  A    between atoms: C_7  and  N_8
REMARK    6  A    between atoms: C_13  and  C_14
REMARK    7  A    between atoms: C_21  and  C_22
REMARK    8  A    between atoms: N_24  and  C_25
REMARK    9  A    between atoms: C_25  and  C_26
REMARK   10  A    between atoms: N_28  and  C_29
REMARK                            x       y       z     vdW  Elec       q    Type
REMARK                         _______ _______ _______ _____ _____    ______ ____
ROOT
ATOM      1  C   UNL     1      -0.703  10.909  18.404  0.00  0.00    +0.000 A 
ATOM      2  C   UNL     1       0.134   9.798  18.142  0.00  0.00    +0.000 A 
ATOM      3  C   UNL     1       0.960   9.309  19.134  0.00  0.00    +0.000 A 
ATOM      4  N   UNL     1       0.909   9.797  20.402  0.00  0.00    +0.000 NA
ATOM      5  C   UNL     1       0.148  10.898  20.631  0.00  0.00    +0.000 A 
ATOM      6  C   UNL     1      -0.648  11.518  19.677  0.00  0.00    +0.000 A 
ENDROOT
BRANCH   3   7
ATOM      7  N   UNL     1       1.994   8.361  18.856  0.00  0.00    +0.000 N 
ATOM      8  C   UNL     1       2.739   8.425  17.683  0.00  0.00    +0.000 A 
ATOM      9  C   UNL     1       3.663   7.408  17.703  0.00  0.00    +0.000 A 
ATOM     10  C   UNL     1       2.976   6.419  18.432  0.00  0.00    +0.000 A 
ATOM     11  C   UNL     1       2.830   5.025  18.334  0.00  0.00    +0.000 A 
ATOM     12  C   UNL     1       2.199   4.380  19.392  0.00  0.00    +0.000 A 
ATOM     13  C   UNL     1       1.776   5.142  20.462  0.00  0.00    +0.000 A 
ATOM     14  N   UNL     1       1.730   6.512  20.523  0.00  0.00    +0.000 NA
ATOM     15  C   UNL     1       2.258   7.099  19.421  0.00  0.00    +0.000 A 
BRANCH  12  16
ATOM     16  C   UNL     1       1.936   2.959  19.345  0.00  0.00    +0.000 C 
ATOM     17  N   UNL     1       1.742   1.815  19.266  0.00  0.00    +0.000 NA
ENDBRANCH  12  16
ENDBRANCH   3   7
BRANCH   6  18
ATOM     18  C   UNL     1      -1.349  12.785  20.088  0.00  0.00    +0.000 C 
ATOM     19  O   UNL     1      -2.441  12.732  20.649  0.00  0.00    +0.000 OA
ATOM     20  N   UNL     1      -0.721  13.981  19.816  0.00  0.00    +0.000 N 
ATOM     21  H   UNL     1       0.077  13.963  19.184  0.00  0.00    +0.000 HD
BRANCH  20  22
ATOM     22  C   UNL     1      -1.207  15.301  20.238  0.00  0.00    +0.000 C 
BRANCH  22  23
ATOM     23  C   UNL     1      -0.403  16.406  19.512  0.00  0.00    +0.000 C 
ATOM     24  O   UNL     1      -0.920  17.482  19.213  0.00  0.00    +0.000 OA
ATOM     25  N   UNL     1       0.927  16.120  19.216  0.00  0.00    +0.000 N 
ATOM     26  H   UNL     1       1.345  15.346  19.721  0.00  0.00    +0.000 HD
BRANCH  25  27
ATOM     27  C   UNL     1       1.815  17.154  18.652  0.00  0.00    +0.000 C 
ATOM     28  C   UNL     1       2.856  16.600  17.659  0.00  0.00    +0.000 C 
ATOM     29  C   UNL     1       3.910  15.892  18.493  0.00  0.00    +0.000 C 
ATOM     30  S   UNL     1       4.163  16.980  19.880  0.00  0.00    +0.000 S 
ATOM     31  O   UNL     1       5.270  17.863  19.579  0.00  0.00    +0.000 OA
ATOM     32  O   UNL     1       4.104  16.200  21.099  0.00  0.00    +0.000 OA
ATOM     33  C   UNL     1       2.640  17.894  19.715  0.00  0.00    +0.000 C 
ENDBRANCH  25  27
ENDBRANCH  22  23
ENDBRANCH  20  22
ENDBRANCH   6  18
BRANCH   1  34
ATOM     34  N   UNL     1      -1.595  11.343  17.431  0.00  0.00    +0.000 N 
ATOM     35  H   UNL     1      -1.332  12.155  16.877  0.00  0.00    +0.000 HD
BRANCH  34  37
ATOM     36  C   UNL     1      -3.967  11.014  17.639  0.00  0.00    +0.000 C 
ATOM     37  C   UNL     1      -2.699  10.515  16.962  0.00  0.00    +0.000 C 
ATOM     38  C   UNL     1      -2.794  10.559  15.442  0.00  0.00    +0.000 C 
ENDBRANCH  34  37
ENDBRANCH   1  34
TORSDOF 8
ENDMDL
MODEL 6
REMARK VINA RESULT:      -7.5      2.711      3.897
REMARK  Name = 
REMARK  10 active torsions:
REMARK  status: ('A' for Active; 'I' for Inactive)
REMARK    1  A    between atoms: C_1  and  C_2
REMARK    2  A    between atoms: C_2  and  C_3
REMARK    3  A    between atoms: C_2  and  N_4
REMARK    4  A    between atoms: N_4  and  C_5
REMARK    5  A    between atoms: C_7  and  N_8
REMARK    6  A    between atoms: C_13  and  C_14
REMARK    7  A    between atoms: C_21  and  C_22
REMARK    8  A    between atoms: N_24  and  C_25
REMARK    9  A    between atoms: C_25  and  C_26
REMARK   10  A    between atoms: N_28  and  C_29
REMARK                            x       y       z     vdW  Elec       q    Type
REMARK                         _______ _______ _______ _____ _____    ______ ____
ROOT
ATOM      1  C   UNL     1       0.902   9.432  18.758  0.00  0.00    +0.000 A 
ATOM      2  C   UNL     1       1.284   8.279  18.032  0.00  0.00    +0.000 A 
ATOM      3  C   UNL     1       1.746   7.164  18.701  0.00  0.00    +0.000 A 
ATOM      4  N   UNL     1       1.737   7.100  20.059  0.00  0.00    +0.000 NA
ATOM      5  C   UNL     1       1.425   8.228  20.749  0.00  0.00    +0.000 A 
ATOM      6  C   UNL     1       1.036   9.426  20.165  0.00  0.00    +0.000 A 
ENDROOT
BRANCH   3   7
ATOM      7  N   UNL     1       2.372   6.076  18.015  0.00  0.00    +0.000 N 
ATOM      8  C   UNL     1       1.835   4.795  18.048  0.00  0.00    +0.000 A 
ATOM      9  C   UNL     1       2.633   3.973  17.288  0.00  0.00    +0.000 A 
ATOM     10  C   UNL     1       3.898   4.562  17.472  0.00  0.00    +0.000 A 
ATOM     11  C   UNL     1       5.203   4.085  17.674  0.00  0.00    +0.000 A 
ATOM     12  C   UNL     1       6.233   5.019  17.622  0.00  0.00    +0.000 A 
ATOM     13  C   UNL     1       5.908   6.335  17.364  0.00  0.00    +0.000 A 
ATOM     14  N   UNL     1       4.647   6.876  17.342  0.00  0.00    +0.000 NA
ATOM     15  C   UNL     1       3.678   5.943  17.505  0.00  0.00    +0.000 A 
BRANCH  12  16
ATOM     16  C   UNL     1       7.599   4.633  17.894  0.00  0.00    +0.000 C 
ATOM     17  N   UNL     1       8.686   4.280  18.113  0.00  0.00    +0.000 NA
ENDBRANCH  12  16
ENDBRANCH   3   7
BRANCH   6  18
ATOM     18  C   UNL     1       0.821  10.598  21.083  0.00  0.00    +0.000 C 
ATOM     19  O   UNL     1       1.655  11.499  21.139  0.00  0.00    +0.000 OA
ATOM     20  N   UNL     1      -0.331  10.616  21.839  0.00  0.00    +0.000 N 
ATOM     21  H   UNL     1      -0.876   9.759  21.892  0.00  0.00    +0.000 HD
BRANCH  20  22
ATOM     22  C   UNL     1      -0.751  11.726  22.705  0.00  0.00    +0.000 C 
BRANCH  22  23
ATOM     23  C   UNL     1      -1.502  12.785  21.863  0.00  0.00    +0.000 C 
ATOM     24  O   UNL     1      -0.950  13.824  21.502  0.00  0.00    +0.000 OA
ATOM     25  N   UNL     1      -2.826  12.503  21.539  0.00  0.00    +0.000 N 
ATOM     26  H   UNL     1      -3.118  11.536  21.635  0.00  0.00    +0.000 HD
BRANCH  25  27
ATOM     27  C   UNL     1      -3.584  13.380  20.627  0.00  0.00    +0.000 C 
ATOM     28  C   UNL     1      -4.288  14.552  21.340  0.00  0.00    +0.000 C 
ATOM     29  C   UNL     1      -5.488  13.959  22.059  0.00  0.00    +0.000 C 
ATOM     30  S   UNL     1      -6.163  12.802  20.886  0.00  0.00    +0.000 S 
ATOM     31  O   UNL     1      -7.195  13.469  20.120  0.00  0.00    +0.000 OA
ATOM     32  O   UNL     1      -6.392  11.539  21.557  0.00  0.00    +0.000 OA
ATOM     33  C   UNL     1      -4.704  12.651  19.872  0.00  0.00    +0.000 C 
ENDBRANCH  25  27
ENDBRANCH  22  23
ENDBRANCH  20  22
ENDBRANCH   6  18
BRANCH   1  34
ATOM     34  N   UNL     1       0.356  10.519  18.086  0.00  0.00    +0.000 N 
ATOM     35  H   UNL     1       0.896  10.921  17.323  0.00  0.00    +0.000 HD
BRANCH  34  37
ATOM     36  C   UNL     1      -1.145  12.396  18.076  0.00  0.00    +0.000 C 
ATOM     37  C   UNL     1      -1.049  10.883  18.206  0.00  0.00    +0.000 C 
ATOM     38  C   UNL     1      -1.883  10.154  17.160  0.00  0.00    +0.000 C 
ENDBRANCH  34  37
ENDBRANCH   1  34
TORSDOF 8
ENDMDL
MODEL 7
REMARK VINA RESULT:      -7.4      3.971      6.957
REMARK  Name = 
REMARK  10 active torsions:
REMARK  status: ('A' for Active; 'I' for Inactive)
REMARK    1  A    between atoms: C_1  and  C_2
REMARK    2  A    between atoms: C_2  and  C_3
REMARK    3  A    between atoms: C_2  and  N_4
REMARK    4  A    between atoms: N_4  and  C_5
REMARK    5  A    between atoms: C_7  and  N_8
REMARK    6  A    between atoms: C_13  and  C_14
REMARK    7  A    between atoms: C_21  and  C_22
REMARK    8  A    between atoms: N_24  and  C_25
REMARK    9  A    between atoms: C_25  and  C_26
REMARK   10  A    between atoms: N_28  and  C_29
REMARK                            x       y       z     vdW  Elec       q    Type
REMARK                         _______ _______ _______ _____ _____    ______ ____
ROOT
ATOM      1  C   UNL     1       0.969   9.961  20.470  0.00  0.00    +0.000 A 
ATOM      2  C   UNL     1       1.587   8.687  20.466  0.00  0.00    +0.000 A 
ATOM      3  C   UNL     1       1.968   8.109  19.272  0.00  0.00    +0.000 A 
ATOM      4  N   UNL     1       1.870   8.785  18.097  0.00  0.00    +0.000 NA
ATOM      5  C   UNL     1       1.225   9.980  18.100  0.00  0.00    +0.000 A 
ATOM      6  C   UNL     1       0.725  10.602  19.236  0.00  0.00    +0.000 A 
ENDROOT
BRANCH   3   7
ATOM      7  N   UNL     1       2.363   6.737  19.189  0.00  0.00    +0.000 N 
ATOM      8  C   UNL     1       2.043   5.830  20.193  0.00  0.00    +0.000 A 
ATOM      9  C   UNL     1       2.530   4.597  19.831  0.00  0.00    +0.000 A 
ATOM     10  C   UNL     1       3.675   4.953  19.094  0.00  0.00    +0.000 A 
ATOM     11  C   UNL     1       4.988   4.464  18.989  0.00  0.00    +0.000 A 
ATOM     12  C   UNL     1       5.781   4.998  17.979  0.00  0.00    +0.000 A 
ATOM     13  C   UNL     1       5.228   5.951  17.148  0.00  0.00    +0.000 A 
ATOM     14  N   UNL     1       4.025   6.588  17.323  0.00  0.00    +0.000 NA
ATOM     15  C   UNL     1       3.333   6.108  18.385  0.00  0.00    +0.000 A 
BRANCH  12  16
ATOM     16  C   UNL     1       7.169   4.612  17.842  0.00  0.00    +0.000 C 
ATOM     17  N   UNL     1       8.271   4.260  17.727  0.00  0.00    +0.000 NA
ENDBRANCH  12  16
ENDBRANCH   3   7
BRANCH   6  18
ATOM     18  C   UNL     1      -0.045  11.879  19.035  0.00  0.00    +0.000 C 
ATOM     19  O   UNL     1      -1.271  11.881  19.125  0.00  0.00    +0.000 OA
ATOM     20  N   UNL     1       0.673  13.023  18.756  0.00  0.00    +0.000 N 
ATOM     21  H   UNL     1       1.653  12.916  18.505  0.00  0.00    +0.000 HD
BRANCH  20  22
ATOM     22  C   UNL     1       0.097  14.368  18.636  0.00  0.00    +0.000 C 
BRANCH  22  23
ATOM     23  C   UNL     1       1.224  15.425  18.726  0.00  0.00    +0.000 C 
ATOM     24  O   UNL     1       1.084  16.552  18.253  0.00  0.00    +0.000 OA
ATOM     25  N   UNL     1       2.398  15.034  19.365  0.00  0.00    +0.000 N 
ATOM     26  H   UNL     1       2.339  14.208  19.951  0.00  0.00    +0.000 HD
BRANCH  25  27
ATOM     27  C   UNL     1       3.476  16.006  19.624  0.00  0.00    +0.000 C 
ATOM     28  C   UNL     1       4.882  15.376  19.656  0.00  0.00    +0.000 C 
ATOM     29  C   UNL     1       4.989  14.630  20.976  0.00  0.00    +0.000 C 
ATOM     30  S   UNL     1       4.237  15.733  22.154  0.00  0.00    +0.000 S 
ATOM     31  O   UNL     1       5.273  16.548  22.752  0.00  0.00    +0.000 OA
ATOM     32  O   UNL     1       3.286  14.985  22.950  0.00  0.00    +0.000 OA
ATOM     33  C   UNL     1       3.337  16.723  20.975  0.00  0.00    +0.000 C 
ENDBRANCH  25  27
ENDBRANCH  22  23
ENDBRANCH  20  22
ENDBRANCH   6  18
BRANCH   1  34
ATOM     34  N   UNL     1       0.667  10.575  21.680  0.00  0.00    +0.000 N 
ATOM     35  H   UNL     1       1.215  11.391  21.945  0.00  0.00    +0.000 HD
BRANCH  34  37
ATOM     36  C   UNL     1      -0.244   9.384  23.558  0.00  0.00    +0.000 C 
ATOM     37  C   UNL     1      -0.573  10.312  22.397  0.00  0.00    +0.000 C 
ATOM     38  C   UNL     1      -1.213  11.616  22.858  0.00  0.00    +0.000 C 
ENDBRANCH  34  37
ENDBRANCH   1  34
TORSDOF 8
ENDMDL
MODEL 8
REMARK VINA RESULT:      -7.4      6.204     10.230
REMARK  Name = 
REMARK  10 active torsions:
REMARK  status: ('A' for Active; 'I' for Inactive)
REMARK    1  A    between atoms: C_1  and  C_2
REMARK    2  A    between atoms: C_2  and  C_3
REMARK    3  A    between atoms: C_2  and  N_4
REMARK    4  A    between atoms: N_4  and  C_5
REMARK    5  A    between atoms: C_7  and  N_8
REMARK    6  A    between atoms: C_13  and  C_14
REMARK    7  A    between atoms: C_21  and  C_22
REMARK    8  A    between atoms: N_24  and  C_25
REMARK    9  A    between atoms: C_25  and  C_26
REMARK   10  A    between atoms: N_28  and  C_29
REMARK                            x       y       z     vdW  Elec       q    Type
REMARK                         _______ _______ _______ _____ _____    ______ ____
ROOT
ATOM      1  C   UNL     1       0.871  11.662  20.238  0.00  0.00    +0.000 A 
ATOM      2  C   UNL     1       1.349  12.865  20.810  0.00  0.00    +0.000 A 
ATOM      3  C   UNL     1       2.306  13.609  20.150  0.00  0.00    +0.000 A 
ATOM      4  N   UNL     1       2.723  13.276  18.899  0.00  0.00    +0.000 NA
ATOM      5  C   UNL     1       2.304  12.092  18.382  0.00  0.00    +0.000 A 
ATOM      6  C   UNL     1       1.414  11.230  19.008  0.00  0.00    +0.000 A 
ENDROOT
BRANCH   3   7
ATOM      7  N   UNL     1       2.998  14.687  20.787  0.00  0.00    +0.000 N 
ATOM      8  C   UNL     1       2.942  15.981  20.283  0.00  0.00    +0.000 A 
ATOM      9  C   UNL     1       3.678  16.797  21.110  0.00  0.00    +0.000 A 
ATOM     10  C   UNL     1       4.675  15.912  21.562  0.00  0.00    +0.000 A 
ATOM     11  C   UNL     1       6.057  15.998  21.796  0.00  0.00    +0.000 A 
ATOM     12  C   UNL     1       6.657  14.921  22.439  0.00  0.00    +0.000 A 
ATOM     13  C   UNL     1       5.861  13.858  22.813  0.00  0.00    +0.000 A 
ATOM     14  N   UNL     1       4.555  13.646  22.449  0.00  0.00    +0.000 NA
ATOM     15  C   UNL     1       4.044  14.675  21.730  0.00  0.00    +0.000 A 
BRANCH  12  16
ATOM     16  C   UNL     1       8.087  14.887  22.653  0.00  0.00    +0.000 C 
ATOM     17  N   UNL     1       9.243  14.879  22.785  0.00  0.00    +0.000 NA
ENDBRANCH  12  16
ENDBRANCH   3   7
BRANCH   6  18
ATOM     18  C   UNL     1       1.138   9.917  18.327  0.00  0.00    +0.000 C 
ATOM     19  O   UNL     1       0.034   9.699  17.831  0.00  0.00    +0.000 OA
ATOM     20  N   UNL     1       2.159   8.992  18.281  0.00  0.00    +0.000 N 
ATOM     21  H   UNL     1       2.970   9.155  18.873  0.00  0.00    +0.000 HD
BRANCH  20  22
ATOM     22  C   UNL     1       2.100   7.709  17.570  0.00  0.00    +0.000 C 
BRANCH  22  23
ATOM     23  C   UNL     1       2.955   6.660  18.319  0.00  0.00    +0.000 C 
ATOM     24  O   UNL     1       2.646   6.268  19.445  0.00  0.00    +0.000 OA
ATOM     25  N   UNL     1       4.086   6.188  17.660  0.00  0.00    +0.000 N 
ATOM     26  H   UNL     1       4.123   6.347  16.658  0.00  0.00    +0.000 HD
BRANCH  25  27
ATOM     27  C   UNL     1       4.889   5.089  18.228  0.00  0.00    +0.000 C 
ATOM     28  C   UNL     1       5.976   5.563  19.213  0.00  0.00    +0.000 C 
ATOM     29  C   UNL     1       7.081   6.176  18.369  0.00  0.00    +0.000 C 
ATOM     30  S   UNL     1       7.238   5.061  16.990  0.00  0.00    +0.000 S 
ATOM     31  O   UNL     1       8.271   4.093  17.293  0.00  0.00    +0.000 OA
ATOM     32  O   UNL     1       7.238   5.834  15.765  0.00  0.00    +0.000 OA
ATOM     33  C   UNL     1       5.646   4.277  17.168  0.00  0.00    +0.000 C 
ENDBRANCH  25  27
ENDBRANCH  22  23
ENDBRANCH  20  22
ENDBRANCH   6  18
BRANCH   1  34
ATOM     34  N   UNL     1      -0.154  10.963  20.864  0.00  0.00    +0.000 N 
ATOM     35  H   UNL     1      -1.049  10.905  20.383  0.00  0.00    +0.000 HD
BRANCH  34  37
ATOM     36  C   UNL     1      -0.871  10.445  23.099  0.00  0.00    +0.000 C 
ATOM     37  C   UNL     1       0.089  10.061  21.982  0.00  0.00    +0.000 C 
ATOM     38  C   UNL     1      -0.074   8.610  21.547  0.00  0.00    +0.000 C 
ENDBRANCH  34  37
ENDBRANCH   1  34
TORSDOF 8
ENDMDL
MODEL 9
REMARK VINA RESULT:      -7.4      2.169      3.355
REMARK  Name = 
REMARK  10 active torsions:
REMARK  status: ('A' for Active; 'I' for Inactive)
REMARK    1  A    between atoms: C_1  and  C_2
REMARK    2  A    between atoms: C_2  and  C_3
REMARK    3  A    between atoms: C_2  and  N_4
REMARK    4  A    between atoms: N_4  and  C_5
REMARK    5  A    between atoms: C_7  and  N_8
REMARK    6  A    between atoms: C_13  and  C_14
REMARK    7  A    between atoms: C_21  and  C_22
REMARK    8  A    between atoms: N_24  and  C_25
REMARK    9  A    between atoms: C_25  and  C_26
REMARK   10  A    between atoms: N_28  and  C_29
REMARK                            x       y       z     vdW  Elec       q    Type
REMARK                         _______ _______ _______ _____ _____    ______ ____
ROOT
ATOM      1  C   UNL     1      -1.629  10.728  18.876  0.00  0.00    +0.000 A 
ATOM      2  C   UNL     1      -0.687   9.696  18.649  0.00  0.00    +0.000 A 
ATOM      3  C   UNL     1       0.508   9.689  19.341  0.00  0.00    +0.000 A 
ATOM      4  N   UNL     1       0.759  10.591  20.326  0.00  0.00    +0.000 NA
ATOM      5  C   UNL     1      -0.122  11.610  20.499  0.00  0.00    +0.000 A 
ATOM      6  C   UNL     1      -1.307  11.755  19.791  0.00  0.00    +0.000 A 
ENDROOT
BRANCH   3   7
ATOM      7  N   UNL     1       1.587   8.825  18.975  0.00  0.00    +0.000 N 
ATOM      8  C   UNL     1       2.207   8.926  17.735  0.00  0.00    +0.000 A 
ATOM      9  C   UNL     1       3.212   7.989  17.679  0.00  0.00    +0.000 A 
ATOM     10  C   UNL     1       2.683   6.962  18.483  0.00  0.00    +0.000 A 
ATOM     11  C   UNL     1       2.647   5.559  18.417  0.00  0.00    +0.000 A 
ATOM     12  C   UNL     1       2.177   4.886  19.540  0.00  0.00    +0.000 A 
ATOM     13  C   UNL     1       1.795   5.632  20.636  0.00  0.00    +0.000 A 
ATOM     14  N   UNL     1       1.640   6.995  20.684  0.00  0.00    +0.000 NA
ATOM     15  C   UNL     1       2.009   7.600  19.528  0.00  0.00    +0.000 A 
BRANCH  12  16
ATOM     16  C   UNL     1       2.031   3.448  19.536  0.00  0.00    +0.000 C 
ATOM     17  N   UNL     1       1.879   2.295  19.504  0.00  0.00    +0.000 NA
ENDBRANCH  12  16
ENDBRANCH   3   7
BRANCH   6  18
ATOM     18  C   UNL     1      -2.112  12.999  20.050  0.00  0.00    +0.000 C 
ATOM     19  O   UNL     1      -3.337  12.976  19.942  0.00  0.00    +0.000 OA
ATOM     20  N   UNL     1      -1.429  14.141  20.409  0.00  0.00    +0.000 N 
ATOM     21  H   UNL     1      -0.419  14.144  20.290  0.00  0.00    +0.000 HD
BRANCH  20  22
ATOM     22  C   UNL     1      -2.058  15.410  20.799  0.00  0.00    +0.000 C 
BRANCH  22  23
ATOM     23  C   UNL     1      -2.567  15.310  22.257  0.00  0.00    +0.000 C 
ATOM     24  O   UNL     1      -2.002  15.906  23.174  0.00  0.00    +0.000 OA
ATOM     25  N   UNL     1      -3.688  14.514  22.475  0.00  0.00    +0.000 N 
ATOM     26  H   UNL     1      -4.243  14.283  21.657  0.00  0.00    +0.000 HD
BRANCH  25  27
ATOM     27  C   UNL     1      -4.332  14.463  23.800  0.00  0.00    +0.000 C 
ATOM     28  C   UNL     1      -4.806  13.052  24.203  0.00  0.00    +0.000 C 
ATOM     29  C   UNL     1      -6.055  12.769  23.384  0.00  0.00    +0.000 C 
ATOM     30  S   UNL     1      -6.958  14.304  23.432  0.00  0.00    +0.000 S 
ATOM     31  O   UNL     1      -7.900  14.252  24.530  0.00  0.00    +0.000 OA
ATOM     32  O   UNL     1      -7.358  14.649  22.084  0.00  0.00    +0.000 OA
ATOM     33  C   UNL     1      -5.586  15.343  23.902  0.00  0.00    +0.000 C 
ENDBRANCH  25  27
ENDBRANCH  22  23
ENDBRANCH  20  22
ENDBRANCH   6  18
BRANCH   1  34
ATOM     34  N   UNL     1      -2.865  10.682  18.243  0.00  0.00    +0.000 N 
ATOM     35  H   UNL     1      -3.689  10.537  18.824  0.00  0.00    +0.000 HD
BRANCH  34  37
ATOM     36  C   UNL     1      -2.686  10.004  15.944  0.00  0.00    +0.000 C 
ATOM     37  C   UNL     1      -3.057  11.149  16.876  0.00  0.00    +0.000 C 
ATOM     38  C   UNL     1      -4.488  11.629  16.669  0.00  0.00    +0.000 C 
ENDBRANCH  34  37
ENDBRANCH   1  34
TORSDOF 8
ENDMDL
