MODEL 1
REMARK VINA RESULT:      -7.8      0.000      0.000
REMARK  Name = 
REMARK  6 active torsions:
REMARK  status: ('A' for Active; 'I' for Inactive)
REMARK    1  A    between atoms: C_1  and  C_2
REMARK    2  A    between atoms: C_4  and  N_5
REMARK    3  A    between atoms: N_5  and  C_6
REMARK    4  A    between atoms: C_6  and  C_7
REMARK    5  A    between atoms: C_15  and  C_16
REMARK    6  A    between atoms: C_17  and  C_18
REMARK                            x       y       z     vdW  Elec       q    Type
REMARK                         _______ _______ _______ _____ _____    ______ ____
ROOT
ATOM      1  C   UNL     1       2.066   3.693  21.348  0.00  0.00    +0.000 C 
ATOM      2  C   UNL     1       2.281   4.812  20.357  0.00  0.00    +0.000 A 
ATOM      3  C   UNL     1       3.057   4.486  19.128  0.00  0.00    +0.000 A 
ATOM      4  C   UNL     1       3.264   5.489  18.255  0.00  0.00    +0.000 A 
ATOM      5  N   UNL     1       2.719   6.766  18.561  0.00  0.00    +0.000 N 
ATOM      6  N   UNL     1       2.784   7.890  17.790  0.00  0.00    +0.000 NA
ATOM      7  C   UNL     1       2.116   8.819  18.484  0.00  0.00    +0.000 A 
ATOM      8  C   UNL     1       1.955  10.182  17.908  0.00  0.00    +0.000 C 
ATOM      9  C   UNL     1       1.620   8.322  19.727  0.00  0.00    +0.000 A 
ATOM     10  C   UNL     1       1.993   6.983  19.735  0.00  0.00    +0.000 A 
ATOM     11  N   UNL     1       1.783   5.979  20.643  0.00  0.00    +0.000 NA
ENDROOT
BRANCH   9  12
ATOM     12  C   UNL     1       0.904   8.989  20.813  0.00  0.00    +0.000 A 
ATOM     13  C   UNL     1      -0.270   9.726  20.578  0.00  0.00    +0.000 A 
ATOM     14  C   UNL     1      -0.982  10.303  21.635  0.00  0.00    +0.000 A 
ATOM     15  C   UNL     1      -0.519  10.179  22.941  0.00  0.00    +0.000 A 
ATOM     16  C   UNL     1       0.655   9.478  23.192  0.00  0.00    +0.000 A 
ATOM     17  C   UNL     1       1.352   8.881  22.136  0.00  0.00    +0.000 A 
ENDBRANCH   9  12
BRANCH   4  18
ATOM     18  N   UNL     1       3.996   5.336  17.061  0.00  0.00    +0.000 N 
ATOM     19  H   UNL     1       3.334   5.116  16.307  0.00  0.00    +0.000 HD
BRANCH  18  20
ATOM     20  C   UNL     1       5.166   4.441  17.015  0.00  0.00    +0.000 C 
BRANCH  20  21
ATOM     21  C   UNL     1       6.483   5.210  17.285  0.00  0.00    +0.000 C 
ATOM     22  C   UNL     1       6.816   5.187  18.785  0.00  0.00    +0.000 C 
ATOM     23  C   UNL     1       8.094   5.969  19.081  0.00  0.00    +0.000 C 
ATOM     24  C   UNL     1       8.016   7.374  18.490  0.00  0.00    +0.000 C 
ATOM     25  C   UNL     1       7.628   7.336  17.013  0.00  0.00    +0.000 C 
ATOM     26  N   UNL     1       6.379   6.605  16.820  0.00  0.00    +0.000 NA
ATOM     27  H   UNL     1       6.113   6.592  15.831  0.00  0.00    +0.000 HD
ENDBRANCH  20  21
ENDBRANCH  18  20
ENDBRANCH   4  18
TORSDOF 4
ENDMDL
MODEL 2
REMARK VINA RESULT:      -7.8      0.840      1.164
REMARK  Name = 
REMARK  6 active torsions:
REMARK  status: ('A' for Active; 'I' for Inactive)
REMARK    1  A    between atoms: C_1  and  C_2
REMARK    2  A    between atoms: C_4  and  N_5
REMARK    3  A    between atoms: N_5  and  C_6
REMARK    4  A    between atoms: C_6  and  C_7
REMARK    5  A    between atoms: C_15  and  C_16
REMARK    6  A    between atoms: C_17  and  C_18
REMARK                            x       y       z     vdW  Elec       q    Type
REMARK                         _______ _______ _______ _____ _____    ______ ____
ROOT
ATOM      1  C   UNL     1       1.520   3.241  21.492  0.00  0.00    +0.000 C 
ATOM      2  C   UNL     1       1.875   4.283  20.457  0.00  0.00    +0.000 A 
ATOM      3  C   UNL     1       2.592   3.809  19.240  0.00  0.00    +0.000 A 
ATOM      4  C   UNL     1       2.925   4.741  18.329  0.00  0.00    +0.000 A 
ATOM      5  N   UNL     1       2.556   6.090  18.585  0.00  0.00    +0.000 N 
ATOM      6  N   UNL     1       2.764   7.165  17.770  0.00  0.00    +0.000 NA
ATOM      7  C   UNL     1       2.231   8.201  18.428  0.00  0.00    +0.000 A 
ATOM      8  C   UNL     1       2.249   9.550  17.800  0.00  0.00    +0.000 C 
ATOM      9  C   UNL     1       1.682   7.823  19.691  0.00  0.00    +0.000 A 
ATOM     10  C   UNL     1       1.874   6.447  19.751  0.00  0.00    +0.000 A 
ATOM     11  N   UNL     1       1.539   5.516  20.698  0.00  0.00    +0.000 NA
ENDROOT
BRANCH   9  12
ATOM     12  C   UNL     1       1.069   8.621  20.751  0.00  0.00    +0.000 A 
ATOM     13  C   UNL     1      -0.106   9.360  20.530  0.00  0.00    +0.000 A 
ATOM     14  C   UNL     1      -0.719  10.066  21.571  0.00  0.00    +0.000 A 
ATOM     15  C   UNL     1      -0.155  10.069  22.843  0.00  0.00    +0.000 A 
ATOM     16  C   UNL     1       1.022   9.366  23.075  0.00  0.00    +0.000 A 
ATOM     17  C   UNL     1       1.620   8.641  22.039  0.00  0.00    +0.000 A 
ENDBRANCH   9  12
BRANCH   4  18
ATOM     18  N   UNL     1       3.621   4.446  17.141  0.00  0.00    +0.000 N 
ATOM     19  H   UNL     1       3.130   3.678  16.665  0.00  0.00    +0.000 HD
BRANCH  18  20
ATOM     20  C   UNL     1       5.075   4.205  17.170  0.00  0.00    +0.000 C 
BRANCH  20  21
ATOM     21  C   UNL     1       5.825   5.342  17.907  0.00  0.00    +0.000 C 
ATOM     22  C   UNL     1       6.311   6.398  16.903  0.00  0.00    +0.000 C 
ATOM     23  C   UNL     1       7.084   7.514  17.603  0.00  0.00    +0.000 C 
ATOM     24  C   UNL     1       8.196   6.936  18.474  0.00  0.00    +0.000 C 
ATOM     25  C   UNL     1       7.664   5.853  19.411  0.00  0.00    +0.000 C 
ATOM     26  N   UNL     1       6.973   4.808  18.662  0.00  0.00    +0.000 NA
ATOM     27  H   UNL     1       6.628   4.077  19.291  0.00  0.00    +0.000 HD
ENDBRANCH  20  21
ENDBRANCH  18  20
ENDBRANCH   4  18
TORSDOF 4
ENDMDL
MODEL 3
REMARK VINA RESULT:      -7.8      1.092      1.613
REMARK  Name = 
REMARK  6 active torsions:
REMARK  status: ('A' for Active; 'I' for Inactive)
REMARK    1  A    between atoms: C_1  and  C_2
REMARK    2  A    between atoms: C_4  and  N_5
REMARK    3  A    between atoms: N_5  and  C_6
REMARK    4  A    between atoms: C_6  and  C_7
REMARK    5  A    between atoms: C_15  and  C_16
REMARK    6  A    between atoms: C_17  and  C_18
REMARK                            x       y       z     vdW  Elec       q    Type
REMARK                         _______ _______ _______ _____ _____    ______ ____
ROOT
ATOM      1  C   UNL     1       1.734   2.693  21.348  0.00  0.00    +0.000 C 
ATOM      2  C   UNL     1       2.018   3.817  20.380  0.00  0.00    +0.000 A 
ATOM      3  C   UNL     1       2.686   3.452  19.099  0.00  0.00    +0.000 A 
ATOM      4  C   UNL     1       2.956   4.456  18.246  0.00  0.00    +0.000 A 
ATOM      5  N   UNL     1       2.574   5.774  18.620  0.00  0.00    +0.000 N 
ATOM      6  N   UNL     1       2.721   6.910  17.879  0.00  0.00    +0.000 NA
ATOM      7  C   UNL     1       2.199   7.882  18.638  0.00  0.00    +0.000 A 
ATOM      8  C   UNL     1       2.160   9.274  18.112  0.00  0.00    +0.000 C 
ATOM      9  C   UNL     1       1.719   7.398  19.892  0.00  0.00    +0.000 A 
ATOM     10  C   UNL     1       1.941   6.027  19.840  0.00  0.00    +0.000 A 
ATOM     11  N   UNL     1       1.670   5.020  20.728  0.00  0.00    +0.000 NA
ENDROOT
BRANCH   9  12
ATOM     12  C   UNL     1       1.141   8.101  21.037  0.00  0.00    +0.000 A 
ATOM     13  C   UNL     1       1.943   8.808  21.948  0.00  0.00    +0.000 A 
ATOM     14  C   UNL     1       1.371   9.531  23.001  0.00  0.00    +0.000 A 
ATOM     15  C   UNL     1      -0.008   9.536  23.179  0.00  0.00    +0.000 A 
ATOM     16  C   UNL     1      -0.817   8.819  22.304  0.00  0.00    +0.000 A 
ATOM     17  C   UNL     1      -0.245   8.117  21.238  0.00  0.00    +0.000 A 
ENDBRANCH   9  12
BRANCH   4  18
ATOM     18  N   UNL     1       3.600   4.266  17.008  0.00  0.00    +0.000 N 
ATOM     19  H   UNL     1       3.122   3.504  16.512  0.00  0.00    +0.000 HD
BRANCH  18  20
ATOM     20  C   UNL     1       5.064   4.099  16.948  0.00  0.00    +0.000 C 
BRANCH  20  21
ATOM     21  C   UNL     1       5.797   5.212  17.737  0.00  0.00    +0.000 C 
ATOM     22  C   UNL     1       6.721   6.008  16.801  0.00  0.00    +0.000 C 
ATOM     23  C   UNL     1       7.480   7.092  17.564  0.00  0.00    +0.000 C 
ATOM     24  C   UNL     1       8.194   6.499  18.775  0.00  0.00    +0.000 C 
ATOM     25  C   UNL     1       7.239   5.675  19.637  0.00  0.00    +0.000 C 
ATOM     26  N   UNL     1       6.583   4.639  18.844  0.00  0.00    +0.000 NA
ATOM     27  H   UNL     1       5.953   4.080  19.425  0.00  0.00    +0.000 HD
ENDBRANCH  20  21
ENDBRANCH  18  20
ENDBRANCH   4  18
TORSDOF 4
ENDMDL
MODEL 4
REMARK VINA RESULT:      -7.4      2.609      7.205
REMARK  Name = 
REMARK  6 active torsions:
REMARK  status: ('A' for Active; 'I' for Inactive)
REMARK    1  A    between atoms: C_1  and  C_2
REMARK    2  A    between atoms: C_4  and  N_5
REMARK    3  A    between atoms: N_5  and  C_6
REMARK    4  A    between atoms: C_6  and  C_7
REMARK    5  A    between atoms: C_15  and  C_16
REMARK    6  A    between atoms: C_17  and  C_18
REMARK                            x       y       z     vdW  Elec       q    Type
REMARK                         _______ _______ _______ _____ _____    ______ ____
ROOT
ATOM      1  C   UNL     1      -0.069   9.266  23.186  0.00  0.00    +0.000 C 
ATOM      2  C   UNL     1       0.528   9.213  21.800  0.00  0.00    +0.000 A 
ATOM      3  C   UNL     1       0.427  10.448  20.973  0.00  0.00    +0.000 A 
ATOM      4  C   UNL     1       0.942  10.393  19.731  0.00  0.00    +0.000 A 
ATOM      5  N   UNL     1       1.551   9.179  19.312  0.00  0.00    +0.000 N 
ATOM      6  N   UNL     1       2.162   8.940  18.116  0.00  0.00    +0.000 NA
ATOM      7  C   UNL     1       2.592   7.675  18.199  0.00  0.00    +0.000 A 
ATOM      8  C   UNL     1       3.349   7.087  17.060  0.00  0.00    +0.000 C 
ATOM      9  C   UNL     1       2.252   7.062  19.442  0.00  0.00    +0.000 A 
ATOM     10  C   UNL     1       1.611   8.068  20.158  0.00  0.00    +0.000 A 
ATOM     11  N   UNL     1       1.081   8.099  21.420  0.00  0.00    +0.000 NA
ENDROOT
BRANCH   9  12
ATOM     12  C   UNL     1       2.459   5.700  19.933  0.00  0.00    +0.000 A 
ATOM     13  C   UNL     1       1.449   5.003  20.617  0.00  0.00    +0.000 A 
ATOM     14  C   UNL     1       1.637   3.677  21.022  0.00  0.00    +0.000 A 
ATOM     15  C   UNL     1       2.847   3.035  20.777  0.00  0.00    +0.000 A 
ATOM     16  C   UNL     1       3.868   3.717  20.125  0.00  0.00    +0.000 A 
ATOM     17  C   UNL     1       3.669   5.034  19.700  0.00  0.00    +0.000 A 
ENDBRANCH   9  12
BRANCH   4  18
ATOM     18  N   UNL     1       0.903  11.475  18.830  0.00  0.00    +0.000 N 
ATOM     19  H   UNL     1       1.817  11.941  18.850  0.00  0.00    +0.000 HD
BRANCH  18  20
ATOM     20  C   UNL     1      -0.193  12.459  18.896  0.00  0.00    +0.000 C 
BRANCH  20  21
ATOM     21  C   UNL     1      -1.424  11.995  18.078  0.00  0.00    +0.000 C 
ATOM     22  C   UNL     1      -2.658  11.883  18.988  0.00  0.00    +0.000 C 
ATOM     23  C   UNL     1      -3.878  11.395  18.210  0.00  0.00    +0.000 C 
ATOM     24  C   UNL     1      -3.555  10.111  17.451  0.00  0.00    +0.000 C 
ATOM     25  C   UNL     1      -2.291  10.266  16.607  0.00  0.00    +0.000 C 
ATOM     26  N   UNL     1      -1.164  10.697  17.430  0.00  0.00    +0.000 NA
ATOM     27  H   UNL     1      -0.315  10.788  16.866  0.00  0.00    +0.000 HD
ENDBRANCH  20  21
ENDBRANCH  18  20
ENDBRANCH   4  18
TORSDOF 4
ENDMDL
MODEL 5
REMARK VINA RESULT:      -7.3      2.859      6.614
REMARK  Name = 
REMARK  6 active torsions:
REMARK  status: ('A' for Active; 'I' for Inactive)
REMARK    1  A    between atoms: C_1  and  C_2
REMARK    2  A    between atoms: C_4  and  N_5
REMARK    3  A    between atoms: N_5  and  C_6
REMARK    4  A    between atoms: C_6  and  C_7
REMARK    5  A    between atoms: C_15  and  C_16
REMARK    6  A    between atoms: C_17  and  C_18
REMARK                            x       y       z     vdW  Elec       q    Type
REMARK                         _______ _______ _______ _____ _____    ______ ____
ROOT
ATOM      1  C   UNL     1      -0.458   9.265  22.483  0.00  0.00    +0.000 C 
ATOM      2  C   UNL     1       0.407   9.027  21.268  0.00  0.00    +0.000 A 
ATOM      3  C   UNL     1       0.723  10.211  20.422  0.00  0.00    +0.000 A 
ATOM      4  C   UNL     1       1.477   9.995  19.329  0.00  0.00    +0.000 A 
ATOM      5  N   UNL     1       1.924   8.669  19.076  0.00  0.00    +0.000 N 
ATOM      6  N   UNL     1       2.727   8.256  18.052  0.00  0.00    +0.000 NA
ATOM      7  C   UNL     1       2.882   6.942  18.249  0.00  0.00    +0.000 A 
ATOM      8  C   UNL     1       3.747   6.164  17.319  0.00  0.00    +0.000 C 
ATOM      9  C   UNL     1       2.170   6.472  19.393  0.00  0.00    +0.000 A 
ATOM     10  C   UNL     1       1.589   7.615  19.930  0.00  0.00    +0.000 A 
ATOM     11  N   UNL     1       0.810   7.812  21.040  0.00  0.00    +0.000 NA
ENDROOT
BRANCH   9  12
ATOM     12  C   UNL     1       2.006   5.125  19.938  0.00  0.00    +0.000 A 
ATOM     13  C   UNL     1       2.486   4.783  21.214  0.00  0.00    +0.000 A 
ATOM     14  C   UNL     1       2.264   3.510  21.750  0.00  0.00    +0.000 A 
ATOM     15  C   UNL     1       1.584   2.548  21.010  0.00  0.00    +0.000 A 
ATOM     16  C   UNL     1       1.125   2.858  19.735  0.00  0.00    +0.000 A 
ATOM     17  C   UNL     1       1.327   4.138  19.211  0.00  0.00    +0.000 A 
ENDBRANCH   9  12
BRANCH   4  18
ATOM     18  N   UNL     1       1.839  11.012  18.426  0.00  0.00    +0.000 N 
ATOM     19  H   UNL     1       2.863  11.099  18.435  0.00  0.00    +0.000 HD
BRANCH  18  20
ATOM     20  C   UNL     1       1.196  12.337  18.500  0.00  0.00    +0.000 C 
BRANCH  20  21
ATOM     21  C   UNL     1       2.226  13.454  18.800  0.00  0.00    +0.000 C 
ATOM     22  C   UNL     1       1.527  14.821  18.865  0.00  0.00    +0.000 C 
ATOM     23  C   UNL     1       2.528  15.944  19.127  0.00  0.00    +0.000 C 
ATOM     24  C   UNL     1       3.676  15.887  18.124  0.00  0.00    +0.000 C 
ATOM     25  C   UNL     1       4.296  14.492  18.063  0.00  0.00    +0.000 C 
ATOM     26  N   UNL     1       3.281  13.483  17.772  0.00  0.00    +0.000 NA
ATOM     27  H   UNL     1       3.700  12.550  17.719  0.00  0.00    +0.000 HD
ENDBRANCH  20  21
ENDBRANCH  18  20
ENDBRANCH   4  18
TORSDOF 4
ENDMDL
MODEL 6
REMARK VINA RESULT:      -7.2      1.767      2.562
REMARK  Name = 
REMARK  6 active torsions:
REMARK  status: ('A' for Active; 'I' for Inactive)
REMARK    1  A    between atoms: C_1  and  C_2
REMARK    2  A    between atoms: C_4  and  N_5
REMARK    3  A    between atoms: N_5  and  C_6
REMARK    4  A    between atoms: C_6  and  C_7
REMARK    5  A    between atoms: C_15  and  C_16
REMARK    6  A    between atoms: C_17  and  C_18
REMARK                            x       y       z     vdW  Elec       q    Type
REMARK                         _______ _______ _______ _____ _____    ______ ____
ROOT
ATOM      1  C   UNL     1       2.464   2.914  21.517  0.00  0.00    +0.000 C 
ATOM      2  C   UNL     1       2.588   4.026  20.503  0.00  0.00    +0.000 A 
ATOM      3  C   UNL     1       3.272   3.698  19.221  0.00  0.00    +0.000 A 
ATOM      4  C   UNL     1       3.399   4.695  18.327  0.00  0.00    +0.000 A 
ATOM      5  N   UNL     1       2.861   5.968  18.662  0.00  0.00    +0.000 N 
ATOM      6  N   UNL     1       2.852   7.085  17.878  0.00  0.00    +0.000 NA
ATOM      7  C   UNL     1       2.225   8.012  18.613  0.00  0.00    +0.000 A 
ATOM      8  C   UNL     1       2.002   9.367  18.040  0.00  0.00    +0.000 C 
ATOM      9  C   UNL     1       1.833   7.521  19.895  0.00  0.00    +0.000 A 
ATOM     10  C   UNL     1       2.224   6.186  19.886  0.00  0.00    +0.000 A 
ATOM     11  N   UNL     1       2.097   5.189  20.817  0.00  0.00    +0.000 NA
ENDROOT
BRANCH   9  12
ATOM     12  C   UNL     1       1.192   8.189  21.027  0.00  0.00    +0.000 A 
ATOM     13  C   UNL     1       1.941   8.883  21.992  0.00  0.00    +0.000 A 
ATOM     14  C   UNL     1       1.310   9.573  23.033  0.00  0.00    +0.000 A 
ATOM     15  C   UNL     1      -0.076   9.559  23.144  0.00  0.00    +0.000 A 
ATOM     16  C   UNL     1      -0.833   8.856  22.214  0.00  0.00    +0.000 A 
ATOM     17  C   UNL     1      -0.203   8.186  21.160  0.00  0.00    +0.000 A 
ENDBRANCH   9  12
BRANCH   4  18
ATOM     18  N   UNL     1       4.040   4.540  17.082  0.00  0.00    +0.000 N 
ATOM     19  H   UNL     1       3.959   3.555  16.802  0.00  0.00    +0.000 HD
BRANCH  18  20
ATOM     20  C   UNL     1       5.415   5.033  16.886  0.00  0.00    +0.000 C 
BRANCH  20  21
ATOM     21  C   UNL     1       5.783   5.112  15.384  0.00  0.00    +0.000 C 
ATOM     22  C   UNL     1       5.277   3.864  14.645  0.00  0.00    +0.000 C 
ATOM     23  C   UNL     1       5.657   3.903  13.166  0.00  0.00    +0.000 C 
ATOM     24  C   UNL     1       7.154   4.151  13.001  0.00  0.00    +0.000 C 
ATOM     25  C   UNL     1       7.608   5.371  13.801  0.00  0.00    +0.000 C 
ATOM     26  N   UNL     1       7.241   5.239  15.208  0.00  0.00    +0.000 NA
ATOM     27  H   UNL     1       7.557   6.050  15.745  0.00  0.00    +0.000 HD
ENDBRANCH  20  21
ENDBRANCH  18  20
ENDBRANCH   4  18
TORSDOF 4
ENDMDL
MODEL 7
REMARK VINA RESULT:      -7.2      0.839      1.193
REMARK  Name = 
REMARK  6 active torsions:
REMARK  status: ('A' for Active; 'I' for Inactive)
REMARK    1  A    between atoms: C_1  and  C_2
REMARK    2  A    between atoms: C_4  and  N_5
REMARK    3  A    between atoms: N_5  and  C_6
REMARK    4  A    between atoms: C_6  and  C_7
REMARK    5  A    between atoms: C_15  and  C_16
REMARK    6  A    between atoms: C_17  and  C_18
REMARK                            x       y       z     vdW  Elec       q    Type
REMARK                         _______ _______ _______ _____ _____    ______ ____
ROOT
ATOM      1  C   UNL     1       2.004   4.429  21.245  0.00  0.00    +0.000 C 
ATOM      2  C   UNL     1       2.155   5.607  20.312  0.00  0.00    +0.000 A 
ATOM      3  C   UNL     1       2.965   5.394  19.079  0.00  0.00    +0.000 A 
ATOM      4  C   UNL     1       3.115   6.449  18.259  0.00  0.00    +0.000 A 
ATOM      5  N   UNL     1       2.482   7.671  18.618  0.00  0.00    +0.000 N 
ATOM      6  N   UNL     1       2.480   8.833  17.902  0.00  0.00    +0.000 NA
ATOM      7  C   UNL     1       1.743   9.681  18.630  0.00  0.00    +0.000 A 
ATOM      8  C   UNL     1       1.498  11.057  18.118  0.00  0.00    +0.000 C 
ATOM      9  C   UNL     1       1.268   9.092  19.841  0.00  0.00    +0.000 A 
ATOM     10  C   UNL     1       1.730   7.782  19.790  0.00  0.00    +0.000 A 
ATOM     11  N   UNL     1       1.577   6.723  20.646  0.00  0.00    +0.000 NA
ENDROOT
BRANCH   9  12
ATOM     12  C   UNL     1       0.496   9.657  20.947  0.00  0.00    +0.000 A 
ATOM     13  C   UNL     1       0.285   8.941  22.138  0.00  0.00    +0.000 A 
ATOM     14  C   UNL     1      -0.398   9.518  23.214  0.00  0.00    +0.000 A 
ATOM     15  C   UNL     1      -0.907  10.808  23.108  0.00  0.00    +0.000 A 
ATOM     16  C   UNL     1      -0.732  11.523  21.929  0.00  0.00    +0.000 A 
ATOM     17  C   UNL     1      -0.028  10.953  20.863  0.00  0.00    +0.000 A 
ENDBRANCH   9  12
BRANCH   4  18
ATOM     18  N   UNL     1       3.868   6.403  17.070  0.00  0.00    +0.000 N 
ATOM     19  H   UNL     1       3.220   6.493  16.278  0.00  0.00    +0.000 HD
BRANCH  18  20
ATOM     20  C   UNL     1       4.833   5.312  16.842  0.00  0.00    +0.000 C 
BRANCH  20  21
ATOM     21  C   UNL     1       6.275   5.743  17.204  0.00  0.00    +0.000 C 
ATOM     22  C   UNL     1       6.601   5.354  18.655  0.00  0.00    +0.000 C 
ATOM     23  C   UNL     1       8.009   5.799  19.045  0.00  0.00    +0.000 C 
ATOM     24  C   UNL     1       8.208   7.282  18.747  0.00  0.00    +0.000 C 
ATOM     25  C   UNL     1       7.817   7.619  17.309  0.00  0.00    +0.000 C 
ATOM     26  N   UNL     1       6.448   7.196  17.027  0.00  0.00    +0.000 NA
ATOM     27  H   UNL     1       6.183   7.434  16.068  0.00  0.00    +0.000 HD
ENDBRANCH  20  21
ENDBRANCH  18  20
ENDBRANCH   4  18
TORSDOF 4
ENDMDL
MODEL 8
REMARK VINA RESULT:      -7.2      2.880      7.378
REMARK  Name = 
REMARK  6 active torsions:
REMARK  status: ('A' for Active; 'I' for Inactive)
REMARK    1  A    between atoms: C_1  and  C_2
REMARK    2  A    between atoms: C_4  and  N_5
REMARK    3  A    between atoms: N_5  and  C_6
REMARK    4  A    between atoms: C_6  and  C_7
REMARK    5  A    between atoms: C_15  and  C_16
REMARK    6  A    between atoms: C_17  and  C_18
REMARK                            x       y       z     vdW  Elec       q    Type
REMARK                         _______ _______ _______ _____ _____    ______ ____
ROOT
ATOM      1  C   UNL     1      -0.072   9.368  23.350  0.00  0.00    +0.000 C 
ATOM      2  C   UNL     1       0.478   9.356  21.944  0.00  0.00    +0.000 A 
ATOM      3  C   UNL     1       0.329  10.609  21.150  0.00  0.00    +0.000 A 
ATOM      4  C   UNL     1       0.801  10.591  19.890  0.00  0.00    +0.000 A 
ATOM      5  N   UNL     1       1.414   9.396  19.422  0.00  0.00    +0.000 N 
ATOM      6  N   UNL     1       1.988   9.195  18.200  0.00  0.00    +0.000 NA
ATOM      7  C   UNL     1       2.439   7.935  18.239  0.00  0.00    +0.000 A 
ATOM      8  C   UNL     1       3.166   7.386  17.062  0.00  0.00    +0.000 C 
ATOM      9  C   UNL     1       2.152   7.289  19.479  0.00  0.00    +0.000 A 
ATOM     10  C   UNL     1       1.521   8.267  20.239  0.00  0.00    +0.000 A 
ATOM     11  N   UNL     1       1.034   8.260  21.520  0.00  0.00    +0.000 NA
ENDROOT
BRANCH   9  12
ATOM     12  C   UNL     1       2.397   5.920  19.930  0.00  0.00    +0.000 A 
ATOM     13  C   UNL     1       1.414   5.181  20.610  0.00  0.00    +0.000 A 
ATOM     14  C   UNL     1       1.638   3.850  20.977  0.00  0.00    +0.000 A 
ATOM     15  C   UNL     1       2.857   3.243  20.697  0.00  0.00    +0.000 A 
ATOM     16  C   UNL     1       3.853   3.965  20.049  0.00  0.00    +0.000 A 
ATOM     17  C   UNL     1       3.619   5.288  19.662  0.00  0.00    +0.000 A 
ENDBRANCH   9  12
BRANCH   4  18
ATOM     18  N   UNL     1       0.714  11.691  19.017  0.00  0.00    +0.000 N 
ATOM     19  H   UNL     1       1.534  12.290  19.174  0.00  0.00    +0.000 HD
BRANCH  18  20
ATOM     20  C   UNL     1      -0.521  12.494  18.952  0.00  0.00    +0.000 C 
BRANCH  20  21
ATOM     21  C   UNL     1      -1.771  11.602  18.753  0.00  0.00    +0.000 C 
ATOM     22  C   UNL     1      -1.606  10.726  17.501  0.00  0.00    +0.000 C 
ATOM     23  C   UNL     1      -2.841   9.859  17.264  0.00  0.00    +0.000 C 
ATOM     24  C   UNL     1      -4.106  10.714  17.255  0.00  0.00    +0.000 C 
ATOM     25  C   UNL     1      -4.187  11.602  18.495  0.00  0.00    +0.000 C 
ATOM     26  N   UNL     1      -2.987  12.424  18.629  0.00  0.00    +0.000 NA
ATOM     27  H   UNL     1      -3.049  13.028  19.453  0.00  0.00    +0.000 HD
ENDBRANCH  20  21
ENDBRANCH  18  20
ENDBRANCH   4  18
TORSDOF 4
ENDMDL
MODEL 9
REMARK VINA RESULT:      -7.2      2.543      4.569
REMARK  Name = 
REMARK  6 active torsions:
REMARK  status: ('A' for Active; 'I' for Inactive)
REMARK    1  A    between atoms: C_1  and  C_2
REMARK    2  A    between atoms: C_4  and  N_5
REMARK    3  A    between atoms: N_5  and  C_6
REMARK    4  A    between atoms: C_6  and  C_7
REMARK    5  A    between atoms: C_15  and  C_16
REMARK    6  A    between atoms: C_17  and  C_18
REMARK                            x       y       z     vdW  Elec       q    Type
REMARK                         _______ _______ _______ _____ _____    ______ ____
ROOT
ATOM      1  C   UNL     1       3.764   7.507  16.723  0.00  0.00    +0.000 C 
ATOM      2  C   UNL     1       3.000   7.553  18.025  0.00  0.00    +0.000 A 
ATOM      3  C   UNL     1       3.103   6.359  18.910  0.00  0.00    +0.000 A 
ATOM      4  C   UNL     1       2.406   6.393  20.061  0.00  0.00    +0.000 A 
ATOM      5  N   UNL     1       1.646   7.560  20.349  0.00  0.00    +0.000 N 
ATOM      6  N   UNL     1       0.913   7.802  21.474  0.00  0.00    +0.000 NA
ATOM      7  C   UNL     1       0.403   9.026  21.292  0.00  0.00    +0.000 A 
ATOM      8  C   UNL     1      -0.435   9.632  22.363  0.00  0.00    +0.000 C 
ATOM      9  C   UNL     1       0.780   9.595  20.039  0.00  0.00    +0.000 A 
ATOM     10  C   UNL     1       1.613   8.641  19.465  0.00  0.00    +0.000 A 
ATOM     11  N   UNL     1       2.304   8.620  18.282  0.00  0.00    +0.000 NA
ENDROOT
BRANCH   9  12
ATOM     12  C   UNL     1       0.410  10.860  19.406  0.00  0.00    +0.000 A 
ATOM     13  C   UNL     1      -0.812  11.014  18.728  0.00  0.00    +0.000 A 
ATOM     14  C   UNL     1      -1.183  12.249  18.185  0.00  0.00    +0.000 A 
ATOM     15  C   UNL     1      -0.328  13.342  18.282  0.00  0.00    +0.000 A 
ATOM     16  C   UNL     1       0.897  13.203  18.925  0.00  0.00    +0.000 A 
ATOM     17  C   UNL     1       1.255  11.974  19.489  0.00  0.00    +0.000 A 
ENDBRANCH   9  12
BRANCH   4  18
ATOM     18  N   UNL     1       2.391   5.332  20.987  0.00  0.00    +0.000 N 
ATOM     19  H   UNL     1       3.344   4.956  21.058  0.00  0.00    +0.000 HD
BRANCH  18  20
ATOM     20  C   UNL     1       1.404   4.245  20.857  0.00  0.00    +0.000 C 
BRANCH  20  21
ATOM     21  C   UNL     1       1.977   3.046  20.063  0.00  0.00    +0.000 C 
ATOM     22  C   UNL     1       3.499   2.956  20.258  0.00  0.00    +0.000 C 
ATOM     23  C   UNL     1       4.093   1.800  19.457  0.00  0.00    +0.000 C 
ATOM     24  C   UNL     1       3.665   1.881  17.994  0.00  0.00    +0.000 C 
ATOM     25  C   UNL     1       2.149   2.024  17.865  0.00  0.00    +0.000 C 
ATOM     26  N   UNL     1       1.666   3.172  18.628  0.00  0.00    +0.000 NA
ATOM     27  H   UNL     1       0.653   3.274  18.529  0.00  0.00    +0.000 HD
ENDBRANCH  20  21
ENDBRANCH  18  20
ENDBRANCH   4  18
TORSDOF 4
ENDMDL
