MODEL 1
REMARK VINA RESULT:      -8.3      0.000      0.000
REMARK  Name = 
REMARK  5 active torsions:
REMARK  status: ('A' for Active; 'I' for Inactive)
REMARK    1  A    between atoms: C_1  and  N_2
REMARK    2  A    between atoms: N_5  and  C_6
REMARK    3  A    between atoms: C_9  and  N_10
REMARK    4  A    between atoms: C_11  and  C_13
REMARK    5  A    between atoms: C_16  and  C_17
REMARK                            x       y       z     vdW  Elec       q    Type
REMARK                         _______ _______ _______ _____ _____    ______ ____
ROOT
ATOM      1  N   UNL     1       2.346   7.079  20.040  0.00  0.00    +0.000 N 
ATOM      2  C   UNL     1       2.099   5.722  20.170  0.00  0.00    +0.000 C 
ATOM      3  O   UNL     1       1.116   5.230  20.717  0.00  0.00    +0.000 OA
ATOM      4  H   UNL     1       3.225   7.323  19.600  0.00  0.00    +0.000 HD
ENDROOT
BRANCH   1   8
ATOM      5  C   UNL     1      -0.183  10.332  21.167  0.00  0.00    +0.000 A 
ATOM      6  C   UNL     1       0.178   9.343  22.087  0.00  0.00    +0.000 A 
ATOM      7  C   UNL     1       1.007   8.269  21.741  0.00  0.00    +0.000 A 
ATOM      8  C   UNL     1       1.505   8.136  20.448  0.00  0.00    +0.000 A 
ATOM      9  C   UNL     1       1.144   9.099  19.506  0.00  0.00    +0.000 A 
ATOM     10  C   UNL     1       0.314  10.174  19.865  0.00  0.00    +0.000 A 
BRANCH   5  15
ATOM     11  C   UNL     1      -4.431  13.703  22.339  0.00  0.00    +0.000 C 
ATOM     12  N   UNL     1      -3.027  13.336  22.191  0.00  0.00    +0.000 NA
ATOM     13  C   UNL     1      -2.735  12.946  20.793  0.00  0.00    +0.000 C 
ATOM     14  C   UNL     1      -1.266  12.506  20.584  0.00  0.00    +0.000 C 
ATOM     15  N   UNL     1      -0.932  11.431  21.532  0.00  0.00    +0.000 N 
ATOM     16  C   UNL     1      -1.202  11.777  22.936  0.00  0.00    +0.000 C 
ATOM     17  C   UNL     1      -2.680  12.208  23.088  0.00  0.00    +0.000 C 
ENDBRANCH   5  15
ENDBRANCH   1   8
BRANCH   2  18
ATOM     18  C   UNL     1       3.121   4.875  19.588  0.00  0.00    +0.000 A 
ATOM     19  C   UNL     1       3.592   3.651  20.016  0.00  0.00    +0.000 A 
ATOM     20  C   UNL     1       4.562   3.240  19.078  0.00  0.00    +0.000 A 
ATOM     21  C   UNL     1       4.642   4.233  18.121  0.00  0.00    +0.000 A 
ATOM     22  O   UNL     1       3.765   5.241  18.436  0.00  0.00    +0.000 OA
BRANCH  21  23
ATOM     23  C   UNL     1       5.428   4.403  16.901  0.00  0.00    +0.000 A 
ATOM     24  C   UNL     1       4.846   4.254  15.632  0.00  0.00    +0.000 A 
ATOM     25  C   UNL     1       5.605   4.410  14.468  0.00  0.00    +0.000 A 
ATOM     26  C   UNL     1       6.961   4.719  14.549  0.00  0.00    +0.000 A 
ATOM     27  C   UNL     1       7.558   4.872  15.797  0.00  0.00    +0.000 A 
ATOM     28  C   UNL     1       6.796   4.716  16.955  0.00  0.00    +0.000 A 
ATOM     29  F   UNL     1       7.421   4.873  18.133  0.00  0.00    +0.000 F 
ENDBRANCH  21  23
ENDBRANCH   2  18
TORSDOF 4
ENDMDL
MODEL 2
REMARK VINA RESULT:      -8.3      6.677      8.638
REMARK  Name = 
REMARK  5 active torsions:
REMARK  status: ('A' for Active; 'I' for Inactive)
REMARK    1  A    between atoms: C_1  and  N_2
REMARK    2  A    between atoms: N_5  and  C_6
REMARK    3  A    between atoms: C_9  and  N_10
REMARK    4  A    between atoms: C_11  and  C_13
REMARK    5  A    between atoms: C_16  and  C_17
REMARK                            x       y       z     vdW  Elec       q    Type
REMARK                         _______ _______ _______ _____ _____    ______ ____
ROOT
ATOM      1  N   UNL     1       7.545   8.403  17.498  0.00  0.00    +0.000 N 
ATOM      2  C   UNL     1       7.602   7.117  18.009  0.00  0.00    +0.000 C 
ATOM      3  O   UNL     1       8.301   6.761  18.955  0.00  0.00    +0.000 OA
ATOM      4  H   UNL     1       6.950   8.524  16.687  0.00  0.00    +0.000 HD
ENDROOT
BRANCH   1   8
ATOM      5  C   UNL     1       9.535  11.915  18.895  0.00  0.00    +0.000 A 
ATOM      6  C   UNL     1       9.725  10.679  19.518  0.00  0.00    +0.000 A 
ATOM      7  C   UNL     1       9.085   9.514  19.077  0.00  0.00    +0.000 A 
ATOM      8  C   UNL     1       8.216   9.542  17.991  0.00  0.00    +0.000 A 
ATOM      9  C   UNL     1       7.993  10.767  17.363  0.00  0.00    +0.000 A 
ATOM     10  C   UNL     1       8.643  11.929  17.813  0.00  0.00    +0.000 A 
BRANCH   5  15
ATOM     11  C   UNL     1      10.794  17.032  20.633  0.00  0.00    +0.000 C 
ATOM     12  N   UNL     1      11.078  15.673  20.181  0.00  0.00    +0.000 NA
ATOM     13  C   UNL     1      10.527  15.450  18.825  0.00  0.00    +0.000 C 
ATOM     14  C   UNL     1      10.763  14.010  18.309  0.00  0.00    +0.000 C 
ATOM     15  N   UNL     1      10.228  13.043  19.281  0.00  0.00    +0.000 N 
ATOM     16  C   UNL     1      10.752  13.225  20.644  0.00  0.00    +0.000 C 
ATOM     17  C   UNL     1      10.491  14.677  21.108  0.00  0.00    +0.000 C 
ENDBRANCH   5  15
ENDBRANCH   1   8
BRANCH   2  18
ATOM     18  C   UNL     1       6.742   6.169  17.329  0.00  0.00    +0.000 A 
ATOM     19  C   UNL     1       6.871   5.615  16.073  0.00  0.00    +0.000 A 
ATOM     20  C   UNL     1       5.785   4.730  15.908  0.00  0.00    +0.000 A 
ATOM     21  C   UNL     1       5.040   4.786  17.070  0.00  0.00    +0.000 A 
ATOM     22  O   UNL     1       5.621   5.674  17.940  0.00  0.00    +0.000 OA
BRANCH  21  23
ATOM     23  C   UNL     1       3.827   4.113  17.529  0.00  0.00    +0.000 A 
ATOM     24  C   UNL     1       3.782   2.718  17.680  0.00  0.00    +0.000 A 
ATOM     25  C   UNL     1       2.616   2.077  18.112  0.00  0.00    +0.000 A 
ATOM     26  C   UNL     1       1.473   2.819  18.403  0.00  0.00    +0.000 A 
ATOM     27  C   UNL     1       1.498   4.203  18.262  0.00  0.00    +0.000 A 
ATOM     28  C   UNL     1       2.663   4.837  17.830  0.00  0.00    +0.000 A 
ATOM     29  F   UNL     1       2.632   6.174  17.709  0.00  0.00    +0.000 F 
ENDBRANCH  21  23
ENDBRANCH   2  18
TORSDOF 4
ENDMDL
MODEL 3
REMARK VINA RESULT:      -8.2      1.571      2.307
REMARK  Name = 
REMARK  5 active torsions:
REMARK  status: ('A' for Active; 'I' for Inactive)
REMARK    1  A    between atoms: C_1  and  N_2
REMARK    2  A    between atoms: N_5  and  C_6
REMARK    3  A    between atoms: C_9  and  N_10
REMARK    4  A    between atoms: C_11  and  C_13
REMARK    5  A    between atoms: C_16  and  C_17
REMARK                            x       y       z     vdW  Elec       q    Type
REMARK                         _______ _______ _______ _____ _____    ______ ____
ROOT
ATOM      1  N   UNL     1       1.234   8.264  21.157  0.00  0.00    +0.000 N 
ATOM      2  C   UNL     1       1.681   8.020  19.869  0.00  0.00    +0.000 C 
ATOM      3  O   UNL     1       1.498   8.760  18.905  0.00  0.00    +0.000 OA
ATOM      4  H   UNL     1       1.430   7.534  21.832  0.00  0.00    +0.000 HD
ENDROOT
BRANCH   1   8
ATOM      5  C   UNL     1      -0.902  11.662  22.619  0.00  0.00    +0.000 A 
ATOM      6  C   UNL     1       0.006  11.777  21.562  0.00  0.00    +0.000 A 
ATOM      7  C   UNL     1       0.716  10.677  21.065  0.00  0.00    +0.000 A 
ATOM      8  C   UNL     1       0.550   9.409  21.615  0.00  0.00    +0.000 A 
ATOM      9  C   UNL     1      -0.335   9.271  22.684  0.00  0.00    +0.000 A 
ATOM     10  C   UNL     1      -1.044  10.381  23.173  0.00  0.00    +0.000 A 
BRANCH   5  15
ATOM     11  C   UNL     1      -4.248  16.086  22.747  0.00  0.00    +0.000 C 
ATOM     12  N   UNL     1      -3.392  15.049  23.315  0.00  0.00    +0.000 NA
ATOM     13  C   UNL     1      -2.017  15.157  22.777  0.00  0.00    +0.000 C 
ATOM     14  C   UNL     1      -1.072  14.055  23.314  0.00  0.00    +0.000 C 
ATOM     15  N   UNL     1      -1.658  12.730  23.052  0.00  0.00    +0.000 N 
ATOM     16  C   UNL     1      -3.025  12.577  23.573  0.00  0.00    +0.000 C 
ATOM     17  C   UNL     1      -3.924  13.700  23.007  0.00  0.00    +0.000 C 
ENDBRANCH   5  15
ENDBRANCH   1   8
BRANCH   2  18
ATOM     18  C   UNL     1       2.417   6.781  19.720  0.00  0.00    +0.000 A 
ATOM     19  C   UNL     1       2.246   5.578  20.372  0.00  0.00    +0.000 A 
ATOM     20  C   UNL     1       3.201   4.688  19.835  0.00  0.00    +0.000 A 
ATOM     21  C   UNL     1       3.913   5.390  18.882  0.00  0.00    +0.000 A 
ATOM     22  O   UNL     1       3.440   6.676  18.815  0.00  0.00    +0.000 OA
BRANCH  21  23
ATOM     23  C   UNL     1       5.006   5.043  17.976  0.00  0.00    +0.000 A 
ATOM     24  C   UNL     1       4.757   4.671  16.645  0.00  0.00    +0.000 A 
ATOM     25  C   UNL     1       5.806   4.332  15.783  0.00  0.00    +0.000 A 
ATOM     26  C   UNL     1       7.124   4.359  16.236  0.00  0.00    +0.000 A 
ATOM     27  C   UNL     1       7.391   4.727  17.551  0.00  0.00    +0.000 A 
ATOM     28  C   UNL     1       6.342   5.064  18.406  0.00  0.00    +0.000 A 
ATOM     29  F   UNL     1       6.656   5.409  19.665  0.00  0.00    +0.000 F 
ENDBRANCH  21  23
ENDBRANCH   2  18
TORSDOF 4
ENDMDL
MODEL 4
REMARK VINA RESULT:      -8.1      1.673      2.177
REMARK  Name = 
REMARK  5 active torsions:
REMARK  status: ('A' for Active; 'I' for Inactive)
REMARK    1  A    between atoms: C_1  and  N_2
REMARK    2  A    between atoms: N_5  and  C_6
REMARK    3  A    between atoms: C_9  and  N_10
REMARK    4  A    between atoms: C_11  and  C_13
REMARK    5  A    between atoms: C_16  and  C_17
REMARK                            x       y       z     vdW  Elec       q    Type
REMARK                         _______ _______ _______ _____ _____    ______ ____
ROOT
ATOM      1  N   UNL     1       1.069   7.969  20.984  0.00  0.00    +0.000 N 
ATOM      2  C   UNL     1       1.779   7.881  19.798  0.00  0.00    +0.000 C 
ATOM      3  O   UNL     1       1.842   8.761  18.943  0.00  0.00    +0.000 OA
ATOM      4  H   UNL     1       1.083   7.139  21.564  0.00  0.00    +0.000 HD
ENDROOT
BRANCH   1   8
ATOM      5  C   UNL     1      -1.112  11.395  22.309  0.00  0.00    +0.000 A 
ATOM      6  C   UNL     1      -0.731  10.389  23.201  0.00  0.00    +0.000 A 
ATOM      7  C   UNL     1      -0.015   9.258  22.791  0.00  0.00    +0.000 A 
ATOM      8  C   UNL     1       0.346   9.084  21.458  0.00  0.00    +0.000 A 
ATOM      9  C   UNL     1      -0.040  10.063  20.543  0.00  0.00    +0.000 A 
ATOM     10  C   UNL     1      -0.756  11.195  20.967  0.00  0.00    +0.000 A 
BRANCH   5  15
ATOM     11  C   UNL     1      -3.106  15.499  25.465  0.00  0.00    +0.000 C 
ATOM     12  N   UNL     1      -2.863  14.777  24.221  0.00  0.00    +0.000 NA
ATOM     13  C   UNL     1      -3.455  13.421  24.281  0.00  0.00    +0.000 C 
ATOM     14  C   UNL     1      -3.193  12.592  23.001  0.00  0.00    +0.000 C 
ATOM     15  N   UNL     1      -1.746  12.544  22.730  0.00  0.00    +0.000 N 
ATOM     16  C   UNL     1      -1.115  13.871  22.658  0.00  0.00    +0.000 C 
ATOM     17  C   UNL     1      -1.409  14.655  23.959  0.00  0.00    +0.000 C 
ENDBRANCH   5  15
ENDBRANCH   1   8
BRANCH   2  18
ATOM     18  C   UNL     1       2.482   6.626  19.619  0.00  0.00    +0.000 A 
ATOM     19  C   UNL     1       2.278   5.412  20.241  0.00  0.00    +0.000 A 
ATOM     20  C   UNL     1       3.209   4.511  19.684  0.00  0.00    +0.000 A 
ATOM     21  C   UNL     1       3.941   5.216  18.748  0.00  0.00    +0.000 A 
ATOM     22  O   UNL     1       3.503   6.515  18.712  0.00  0.00    +0.000 OA
BRANCH  21  23
ATOM     23  C   UNL     1       5.024   4.862  17.833  0.00  0.00    +0.000 A 
ATOM     24  C   UNL     1       4.759   4.396  16.536  0.00  0.00    +0.000 A 
ATOM     25  C   UNL     1       5.799   4.050  15.667  0.00  0.00    +0.000 A 
ATOM     26  C   UNL     1       7.126   4.165  16.078  0.00  0.00    +0.000 A 
ATOM     27  C   UNL     1       7.410   4.627  17.360  0.00  0.00    +0.000 A 
ATOM     28  C   UNL     1       6.369   4.970  18.222  0.00  0.00    +0.000 A 
ATOM     29  F   UNL     1       6.699   5.407  19.448  0.00  0.00    +0.000 F 
ENDBRANCH  21  23
ENDBRANCH   2  18
TORSDOF 4
ENDMDL
MODEL 5
REMARK VINA RESULT:      -8.1      1.784      2.593
REMARK  Name = 
REMARK  5 active torsions:
REMARK  status: ('A' for Active; 'I' for Inactive)
REMARK    1  A    between atoms: C_1  and  N_2
REMARK    2  A    between atoms: N_5  and  C_6
REMARK    3  A    between atoms: C_9  and  N_10
REMARK    4  A    between atoms: C_11  and  C_13
REMARK    5  A    between atoms: C_16  and  C_17
REMARK                            x       y       z     vdW  Elec       q    Type
REMARK                         _______ _______ _______ _____ _____    ______ ____
ROOT
ATOM      1  N   UNL     1       1.235   8.379  21.062  0.00  0.00    +0.000 N 
ATOM      2  C   UNL     1       1.630   8.169  19.752  0.00  0.00    +0.000 C 
ATOM      3  O   UNL     1       1.375   8.912  18.808  0.00  0.00    +0.000 OA
ATOM      4  H   UNL     1       1.490   7.648  21.717  0.00  0.00    +0.000 HD
ENDROOT
BRANCH   1   8
ATOM      5  C   UNL     1      -0.961  11.673  22.666  0.00  0.00    +0.000 A 
ATOM      6  C   UNL     1      -0.073  11.845  21.600  0.00  0.00    +0.000 A 
ATOM      7  C   UNL     1       0.657  10.780  21.057  0.00  0.00    +0.000 A 
ATOM      8  C   UNL     1       0.531   9.491  21.568  0.00  0.00    +0.000 A 
ATOM      9  C   UNL     1      -0.334   9.296  22.645  0.00  0.00    +0.000 A 
ATOM     10  C   UNL     1      -1.063  10.372  23.180  0.00  0.00    +0.000 A 
BRANCH   5  15
ATOM     11  C   UNL     1      -4.372  16.037  22.984  0.00  0.00    +0.000 C 
ATOM     12  N   UNL     1      -3.506  14.985  23.507  0.00  0.00    +0.000 NA
ATOM     13  C   UNL     1      -2.128  15.139  22.989  0.00  0.00    +0.000 C 
ATOM     14  C   UNL     1      -1.172  14.026  23.479  0.00  0.00    +0.000 C 
ATOM     15  N   UNL     1      -1.736  12.707  23.145  0.00  0.00    +0.000 N 
ATOM     16  C   UNL     1      -3.106  12.508  23.644  0.00  0.00    +0.000 C 
ATOM     17  C   UNL     1      -4.016  13.646  23.127  0.00  0.00    +0.000 C 
ENDBRANCH   5  15
ENDBRANCH   1   8
BRANCH   2  18
ATOM     18  C   UNL     1       2.405   6.961  19.551  0.00  0.00    +0.000 A 
ATOM     19  C   UNL     1       2.338   5.756  20.220  0.00  0.00    +0.000 A 
ATOM     20  C   UNL     1       3.285   4.904  19.615  0.00  0.00    +0.000 A 
ATOM     21  C   UNL     1       3.891   5.628  18.606  0.00  0.00    +0.000 A 
ATOM     22  O   UNL     1       3.359   6.892  18.570  0.00  0.00    +0.000 OA
BRANCH  21  23
ATOM     23  C   UNL     1       4.924   5.321  17.618  0.00  0.00    +0.000 A 
ATOM     24  C   UNL     1       6.140   6.021  17.596  0.00  0.00    +0.000 A 
ATOM     25  C   UNL     1       7.122   5.729  16.643  0.00  0.00    +0.000 A 
ATOM     26  C   UNL     1       6.907   4.730  15.696  0.00  0.00    +0.000 A 
ATOM     27  C   UNL     1       5.708   4.023  15.702  0.00  0.00    +0.000 A 
ATOM     28  C   UNL     1       4.733   4.319  16.655  0.00  0.00    +0.000 A 
ATOM     29  F   UNL     1       3.594   3.608  16.615  0.00  0.00    +0.000 F 
ENDBRANCH  21  23
ENDBRANCH   2  18
TORSDOF 4
ENDMDL
MODEL 6
REMARK VINA RESULT:      -8.1      0.822      1.250
REMARK  Name = 
REMARK  5 active torsions:
REMARK  status: ('A' for Active; 'I' for Inactive)
REMARK    1  A    between atoms: C_1  and  N_2
REMARK    2  A    between atoms: N_5  and  C_6
REMARK    3  A    between atoms: C_9  and  N_10
REMARK    4  A    between atoms: C_11  and  C_13
REMARK    5  A    between atoms: C_16  and  C_17
REMARK                            x       y       z     vdW  Elec       q    Type
REMARK                         _______ _______ _______ _____ _____    ______ ____
ROOT
ATOM      1  N   UNL     1       2.336   7.198  20.061  0.00  0.00    +0.000 N 
ATOM      2  C   UNL     1       2.078   5.845  20.203  0.00  0.00    +0.000 C 
ATOM      3  O   UNL     1       1.090   5.366  20.753  0.00  0.00    +0.000 OA
ATOM      4  H   UNL     1       3.218   7.430  19.620  0.00  0.00    +0.000 HD
ENDROOT
BRANCH   1   8
ATOM      5  C   UNL     1      -0.175  10.477  21.151  0.00  0.00    +0.000 A 
ATOM      6  C   UNL     1       0.265   9.554  22.104  0.00  0.00    +0.000 A 
ATOM      7  C   UNL     1       1.089   8.472  21.771  0.00  0.00    +0.000 A 
ATOM      8  C   UNL     1       1.504   8.266  20.458  0.00  0.00    +0.000 A 
ATOM      9  C   UNL     1       1.063   9.161  19.484  0.00  0.00    +0.000 A 
ATOM     10  C   UNL     1       0.238  10.244  19.831  0.00  0.00    +0.000 A 
BRANCH   5  15
ATOM     11  C   UNL     1      -1.738  15.688  22.242  0.00  0.00    +0.000 C 
ATOM     12  N   UNL     1      -1.919  14.246  22.104  0.00  0.00    +0.000 NA
ATOM     13  C   UNL     1      -1.021  13.518  23.028  0.00  0.00    +0.000 C 
ATOM     14  C   UNL     1      -1.140  11.980  22.897  0.00  0.00    +0.000 C 
ATOM     15  N   UNL     1      -0.920  11.585  21.496  0.00  0.00    +0.000 N 
ATOM     16  C   UNL     1      -1.796  12.282  20.541  0.00  0.00    +0.000 C 
ATOM     17  C   UNL     1      -1.637  13.811  20.715  0.00  0.00    +0.000 C 
ENDBRANCH   5  15
ENDBRANCH   1   8
BRANCH   2  18
ATOM     18  C   UNL     1       3.094   4.984  19.631  0.00  0.00    +0.000 A 
ATOM     19  C   UNL     1       3.541   3.752  20.061  0.00  0.00    +0.000 A 
ATOM     20  C   UNL     1       4.515   3.328  19.133  0.00  0.00    +0.000 A 
ATOM     21  C   UNL     1       4.621   4.322  18.179  0.00  0.00    +0.000 A 
ATOM     22  O   UNL     1       3.756   5.342  18.487  0.00  0.00    +0.000 OA
BRANCH  21  23
ATOM     23  C   UNL     1       5.424   4.483  16.969  0.00  0.00    +0.000 A 
ATOM     24  C   UNL     1       4.932   4.097  15.712  0.00  0.00    +0.000 A 
ATOM     25  C   UNL     1       5.708   4.245  14.557  0.00  0.00    +0.000 A 
ATOM     26  C   UNL     1       6.991   4.785  14.637  0.00  0.00    +0.000 A 
ATOM     27  C   UNL     1       7.496   5.175  15.874  0.00  0.00    +0.000 A 
ATOM     28  C   UNL     1       6.718   5.025  17.021  0.00  0.00    +0.000 A 
ATOM     29  F   UNL     1       7.255   5.416  18.188  0.00  0.00    +0.000 F 
ENDBRANCH  21  23
ENDBRANCH   2  18
TORSDOF 4
ENDMDL
MODEL 7
REMARK VINA RESULT:      -8.0      2.275      3.407
REMARK  Name = 
REMARK  5 active torsions:
REMARK  status: ('A' for Active; 'I' for Inactive)
REMARK    1  A    between atoms: C_1  and  N_2
REMARK    2  A    between atoms: N_5  and  C_6
REMARK    3  A    between atoms: C_9  and  N_10
REMARK    4  A    between atoms: C_11  and  C_13
REMARK    5  A    between atoms: C_16  and  C_17
REMARK                            x       y       z     vdW  Elec       q    Type
REMARK                         _______ _______ _______ _____ _____    ______ ____
ROOT
ATOM      1  N   UNL     1       1.414   9.034  20.093  0.00  0.00    +0.000 N 
ATOM      2  C   UNL     1       1.446   8.895  18.715  0.00  0.00    +0.000 C 
ATOM      3  O   UNL     1       0.763   9.539  17.922  0.00  0.00    +0.000 OA
ATOM      4  H   UNL     1       2.009   8.398  20.609  0.00  0.00    +0.000 HD
ENDROOT
BRANCH   1   8
ATOM      5  C   UNL     1      -0.941  11.749  22.402  0.00  0.00    +0.000 A 
ATOM      6  C   UNL     1      -0.197  12.189  21.303  0.00  0.00    +0.000 A 
ATOM      7  C   UNL     1       0.581  11.318  20.531  0.00  0.00    +0.000 A 
ATOM      8  C   UNL     1       0.651   9.961  20.833  0.00  0.00    +0.000 A 
ATOM      9  C   UNL     1      -0.067   9.499  21.937  0.00  0.00    +0.000 A 
ATOM     10  C   UNL     1      -0.846  10.382  22.703  0.00  0.00    +0.000 A 
BRANCH   5  15
ATOM     11  C   UNL     1      -4.721  15.588  23.728  0.00  0.00    +0.000 C 
ATOM     12  N   UNL     1      -3.714  14.566  23.994  0.00  0.00    +0.000 NA
ATOM     13  C   UNL     1      -2.409  14.959  23.415  0.00  0.00    +0.000 C 
ATOM     14  C   UNL     1      -1.308  13.892  23.631  0.00  0.00    +0.000 C 
ATOM     15  N   UNL     1      -1.769  12.594  23.110  0.00  0.00    +0.000 N 
ATOM     16  C   UNL     1      -3.062  12.162  23.661  0.00  0.00    +0.000 C 
ATOM     17  C   UNL     1      -4.122  13.262  23.419  0.00  0.00    +0.000 C 
ENDBRANCH   5  15
ENDBRANCH   1   8
BRANCH   2  18
ATOM     18  C   UNL     1       2.385   7.899  18.241  0.00  0.00    +0.000 A 
ATOM     19  C   UNL     1       3.537   8.063  17.500  0.00  0.00    +0.000 A 
ATOM     20  C   UNL     1       4.098   6.780  17.334  0.00  0.00    +0.000 A 
ATOM     21  C   UNL     1       3.262   5.889  17.979  0.00  0.00    +0.000 A 
ATOM     22  O   UNL     1       2.206   6.572  18.529  0.00  0.00    +0.000 OA
BRANCH  21  23
ATOM     23  C   UNL     1       3.289   4.442  18.185  0.00  0.00    +0.000 A 
ATOM     24  C   UNL     1       2.372   3.598  17.539  0.00  0.00    +0.000 A 
ATOM     25  C   UNL     1       2.396   2.214  17.746  0.00  0.00    +0.000 A 
ATOM     26  C   UNL     1       3.340   1.649  18.602  0.00  0.00    +0.000 A 
ATOM     27  C   UNL     1       4.258   2.469  19.250  0.00  0.00    +0.000 A 
ATOM     28  C   UNL     1       4.229   3.847  19.040  0.00  0.00    +0.000 A 
ATOM     29  F   UNL     1       5.137   4.592  19.692  0.00  0.00    +0.000 F 
ENDBRANCH  21  23
ENDBRANCH   2  18
TORSDOF 4
ENDMDL
MODEL 8
REMARK VINA RESULT:      -8.0      1.689      2.590
REMARK  Name = 
REMARK  5 active torsions:
REMARK  status: ('A' for Active; 'I' for Inactive)
REMARK    1  A    between atoms: C_1  and  N_2
REMARK    2  A    between atoms: N_5  and  C_6
REMARK    3  A    between atoms: C_9  and  N_10
REMARK    4  A    between atoms: C_11  and  C_13
REMARK    5  A    between atoms: C_16  and  C_17
REMARK                            x       y       z     vdW  Elec       q    Type
REMARK                         _______ _______ _______ _____ _____    ______ ____
ROOT
ATOM      1  N   UNL     1       0.889   8.325  20.962  0.00  0.00    +0.000 N 
ATOM      2  C   UNL     1       1.606   8.168  19.788  0.00  0.00    +0.000 C 
ATOM      3  O   UNL     1       1.636   8.978  18.864  0.00  0.00    +0.000 OA
ATOM      4  H   UNL     1       0.934   7.545  21.608  0.00  0.00    +0.000 HD
ENDROOT
BRANCH   1   8
ATOM      5  C   UNL     1      -1.448  11.668  22.230  0.00  0.00    +0.000 A 
ATOM      6  C   UNL     1      -1.043  11.531  20.899  0.00  0.00    +0.000 A 
ATOM      7  C   UNL     1      -0.278  10.443  20.460  0.00  0.00    +0.000 A 
ATOM      8  C   UNL     1       0.121   9.445  21.344  0.00  0.00    +0.000 A 
ATOM      9  C   UNL     1      -0.253   9.569  22.682  0.00  0.00    +0.000 A 
ATOM     10  C   UNL     1      -1.023  10.663  23.111  0.00  0.00    +0.000 A 
BRANCH   5  15
ATOM     11  C   UNL     1      -3.567  15.970  25.021  0.00  0.00    +0.000 C 
ATOM     12  N   UNL     1      -3.527  14.952  23.976  0.00  0.00    +0.000 NA
ATOM     13  C   UNL     1      -3.521  13.596  24.570  0.00  0.00    +0.000 C 
ATOM     14  C   UNL     1      -3.438  12.474  23.507  0.00  0.00    +0.000 C 
ATOM     15  N   UNL     1      -2.268  12.697  22.642  0.00  0.00    +0.000 N 
ATOM     16  C   UNL     1      -2.236  14.034  22.026  0.00  0.00    +0.000 C 
ATOM     17  C   UNL     1      -2.321  15.113  23.130  0.00  0.00    +0.000 C 
ENDBRANCH   5  15
ENDBRANCH   1   8
BRANCH   2  18
ATOM     18  C   UNL     1       2.357   6.932  19.711  0.00  0.00    +0.000 A 
ATOM     19  C   UNL     1       2.201   5.766  20.432  0.00  0.00    +0.000 A 
ATOM     20  C   UNL     1       3.167   4.859  19.949  0.00  0.00    +0.000 A 
ATOM     21  C   UNL     1       3.872   5.513  18.957  0.00  0.00    +0.000 A 
ATOM     22  O   UNL     1       3.383   6.787  18.815  0.00  0.00    +0.000 OA
BRANCH  21  23
ATOM     23  C   UNL     1       4.970   5.128  18.073  0.00  0.00    +0.000 A 
ATOM     24  C   UNL     1       4.734   4.748  16.742  0.00  0.00    +0.000 A 
ATOM     25  C   UNL     1       5.788   4.372  15.902  0.00  0.00    +0.000 A 
ATOM     26  C   UNL     1       7.098   4.370  16.376  0.00  0.00    +0.000 A 
ATOM     27  C   UNL     1       7.353   4.745  17.692  0.00  0.00    +0.000 A 
ATOM     28  C   UNL     1       6.299   5.119  18.525  0.00  0.00    +0.000 A 
ATOM     29  F   UNL     1       6.601   5.469  19.785  0.00  0.00    +0.000 F 
ENDBRANCH  21  23
ENDBRANCH   2  18
TORSDOF 4
ENDMDL
MODEL 9
REMARK VINA RESULT:      -8.0      2.572      3.814
REMARK  Name = 
REMARK  5 active torsions:
REMARK  status: ('A' for Active; 'I' for Inactive)
REMARK    1  A    between atoms: C_1  and  N_2
REMARK    2  A    between atoms: N_5  and  C_6
REMARK    3  A    between atoms: C_9  and  N_10
REMARK    4  A    between atoms: C_11  and  C_13
REMARK    5  A    between atoms: C_16  and  C_17
REMARK                            x       y       z     vdW  Elec       q    Type
REMARK                         _______ _______ _______ _____ _____    ______ ____
ROOT
ATOM      1  N   UNL     1       1.286   9.120  20.215  0.00  0.00    +0.000 N 
ATOM      2  C   UNL     1       1.374   9.030  18.835  0.00  0.00    +0.000 C 
ATOM      3  O   UNL     1       0.754   9.730  18.039  0.00  0.00    +0.000 OA
ATOM      4  H   UNL     1       1.831   8.440  20.732  0.00  0.00    +0.000 HD
ENDROOT
BRANCH   1   8
ATOM      5  C   UNL     1      -1.048  11.848  22.529  0.00  0.00    +0.000 A 
ATOM      6  C   UNL     1      -0.321  12.280  21.416  0.00  0.00    +0.000 A 
ATOM      7  C   UNL     1       0.450  11.404  20.642  0.00  0.00    +0.000 A 
ATOM      8  C   UNL     1       0.530  10.051  20.957  0.00  0.00    +0.000 A 
ATOM      9  C   UNL     1      -0.171   9.597  22.074  0.00  0.00    +0.000 A 
ATOM     10  C   UNL     1      -0.943  10.485  22.842  0.00  0.00    +0.000 A 
BRANCH   5  15
ATOM     11  C   UNL     1      -4.815  15.695  23.869  0.00  0.00    +0.000 C 
ATOM     12  N   UNL     1      -3.805  14.674  24.131  0.00  0.00    +0.000 NA
ATOM     13  C   UNL     1      -2.505  15.064  23.540  0.00  0.00    +0.000 C 
ATOM     14  C   UNL     1      -1.404  13.997  23.752  0.00  0.00    +0.000 C 
ATOM     15  N   UNL     1      -1.869  12.697  23.240  0.00  0.00    +0.000 N 
ATOM     16  C   UNL     1      -3.158  12.268  23.805  0.00  0.00    +0.000 C 
ATOM     17  C   UNL     1      -4.219  13.368  23.566  0.00  0.00    +0.000 C 
ENDBRANCH   5  15
ENDBRANCH   1   8
BRANCH   2  18
ATOM     18  C   UNL     1       2.291   8.012  18.364  0.00  0.00    +0.000 A 
ATOM     19  C   UNL     1       3.437   8.147  17.608  0.00  0.00    +0.000 A 
ATOM     20  C   UNL     1       3.975   6.853  17.454  0.00  0.00    +0.000 A 
ATOM     21  C   UNL     1       3.133   5.984  18.120  0.00  0.00    +0.000 A 
ATOM     22  O   UNL     1       2.095   6.692  18.673  0.00  0.00    +0.000 OA
BRANCH  21  23
ATOM     23  C   UNL     1       3.139   4.541  18.346  0.00  0.00    +0.000 A 
ATOM     24  C   UNL     1       4.194   3.915  19.030  0.00  0.00    +0.000 A 
ATOM     25  C   UNL     1       4.199   2.531  19.236  0.00  0.00    +0.000 A 
ATOM     26  C   UNL     1       3.149   1.747  18.765  0.00  0.00    +0.000 A 
ATOM     27  C   UNL     1       2.093   2.348  18.086  0.00  0.00    +0.000 A 
ATOM     28  C   UNL     1       2.093   3.728  17.883  0.00  0.00    +0.000 A 
ATOM     29  F   UNL     1       1.051   4.255  17.221  0.00  0.00    +0.000 F 
ENDBRANCH  21  23
ENDBRANCH   2  18
TORSDOF 4
ENDMDL
