MODEL 1
REMARK VINA RESULT:      -9.5      0.000      0.000
REMARK  Name = 
REMARK  3 active torsions:
REMARK  status: ('A' for Active; 'I' for Inactive)
REMARK    1  A    between atoms: C_1  and  N_2
REMARK    2  A    between atoms: C_5  and  C_6
REMARK    3  A    between atoms: C_9  and  C_10
REMARK                            x       y       z     vdW  Elec       q    Type
REMARK                         _______ _______ _______ _____ _____    ______ ____
ROOT
ATOM      1  C   UNL     1       7.902   8.010  18.035  0.00  0.00    +0.000 A 
ATOM      2  N   UNL     1       6.945   7.768  17.185  0.00  0.00    +0.000 NA
ATOM      3  C   UNL     1       6.315   6.489  17.210  0.00  0.00    +0.000 A 
ATOM      4  C   UNL     1       5.357   6.108  16.258  0.00  0.00    +0.000 A 
ATOM      5  F   UNL     1       5.094   6.900  15.207  0.00  0.00    +0.000 F 
ATOM      6  C   UNL     1       4.633   4.914  16.371  0.00  0.00    +0.000 A 
ATOM      7  C   UNL     1       4.855   4.084  17.461  0.00  0.00    +0.000 A 
ATOM      8  F   UNL     1       4.145   2.956  17.593  0.00  0.00    +0.000 F 
ATOM      9  C   UNL     1       5.809   4.408  18.412  0.00  0.00    +0.000 A 
ATOM     10  C   UNL     1       6.538   5.595  18.259  0.00  0.00    +0.000 A 
ATOM     11  C   UNL     1       7.601   5.944  19.202  0.00  0.00    +0.000 A 
ATOM     12  O   UNL     1       7.756   5.335  20.255  0.00  0.00    +0.000 OA
ATOM     13  N   UNL     1       8.376   7.016  18.867  0.00  0.00    +0.000 N 
ATOM     14  H   UNL     1       9.127   7.181  19.513  0.00  0.00    +0.000 HD
ENDROOT
BRANCH   1  18
ATOM     15  C   UNL     1       9.473  12.123  18.583  0.00  0.00    +0.000 A 
ATOM     16  C   UNL     1       9.863  11.064  19.428  0.00  0.00    +0.000 A 
ATOM     17  C   UNL     1       9.379   9.737  19.259  0.00  0.00    +0.000 A 
ATOM     18  C   UNL     1       8.487   9.401  18.226  0.00  0.00    +0.000 A 
ATOM     19  C   UNL     1       8.033  10.457  17.430  0.00  0.00    +0.000 A 
ATOM     20  C   UNL     1       8.475  11.795  17.639  0.00  0.00    +0.000 A 
BRANCH  15  25
ATOM     21  C   UNL     1      10.884  17.666  17.354  0.00  0.00    +0.000 C 
ATOM     22  N   UNL     1      10.413  16.294  17.591  0.00  0.00    +0.000 NA
ATOM     23  C   UNL     1      11.423  15.318  17.181  0.00  0.00    +0.000 C 
ATOM     24  C   UNL     1      10.860  13.892  17.286  0.00  0.00    +0.000 C 
ATOM     25  C   UNL     1      10.230  13.497  18.658  0.00  0.00    +0.000 C 
ATOM     26  C   UNL     1       9.427  14.699  19.226  0.00  0.00    +0.000 C 
ATOM     27  C   UNL     1      10.082  16.079  19.003  0.00  0.00    +0.000 C 
ENDBRANCH  15  25
ENDBRANCH   1  18
TORSDOF 2
ENDMDL
MODEL 2
REMARK VINA RESULT:      -9.1      0.568      1.092
REMARK  Name = 
REMARK  3 active torsions:
REMARK  status: ('A' for Active; 'I' for Inactive)
REMARK    1  A    between atoms: C_1  and  N_2
REMARK    2  A    between atoms: C_5  and  C_6
REMARK    3  A    between atoms: C_9  and  C_10
REMARK                            x       y       z     vdW  Elec       q    Type
REMARK                         _______ _______ _______ _____ _____    ______ ____
ROOT
ATOM      1  C   UNL     1       7.873   8.101  18.016  0.00  0.00    +0.000 A 
ATOM      2  N   UNL     1       6.930   7.838  17.156  0.00  0.00    +0.000 NA
ATOM      3  C   UNL     1       6.352   6.536  17.149  0.00  0.00    +0.000 A 
ATOM      4  C   UNL     1       5.415   6.138  16.183  0.00  0.00    +0.000 A 
ATOM      5  F   UNL     1       5.126   6.942  15.149  0.00  0.00    +0.000 F 
ATOM      6  C   UNL     1       4.739   4.913  16.265  0.00  0.00    +0.000 A 
ATOM      7  C   UNL     1       4.988   4.069  17.338  0.00  0.00    +0.000 A 
ATOM      8  F   UNL     1       4.324   2.911  17.441  0.00  0.00    +0.000 F 
ATOM      9  C   UNL     1       5.924   4.410  18.302  0.00  0.00    +0.000 A 
ATOM     10  C   UNL     1       6.605   5.628  18.180  0.00  0.00    +0.000 A 
ATOM     11  C   UNL     1       7.648   5.998  19.136  0.00  0.00    +0.000 A 
ATOM     12  O   UNL     1       7.823   5.372  20.176  0.00  0.00    +0.000 OA
ATOM     13  N   UNL     1       8.381   7.108  18.829  0.00  0.00    +0.000 N 
ATOM     14  H   UNL     1       9.123   7.288  19.484  0.00  0.00    +0.000 HD
ENDROOT
BRANCH   1  18
ATOM     15  C   UNL     1       9.544  12.154  18.689  0.00  0.00    +0.000 A 
ATOM     16  C   UNL     1       8.638  11.893  17.641  0.00  0.00    +0.000 A 
ATOM     17  C   UNL     1       8.083  10.603  17.419  0.00  0.00    +0.000 A 
ATOM     18  C   UNL     1       8.400   9.509  18.242  0.00  0.00    +0.000 A 
ATOM     19  C   UNL     1       9.356   9.738  19.237  0.00  0.00    +0.000 A 
ATOM     20  C   UNL     1       9.954  11.018  19.420  0.00  0.00    +0.000 A 
BRANCH  15  25
ATOM     21  C   UNL     1       9.685  17.993  18.334  0.00  0.00    +0.000 C 
ATOM     22  N   UNL     1       9.542  16.530  18.337  0.00  0.00    +0.000 NA
ATOM     23  C   UNL     1      10.805  15.881  17.985  0.00  0.00    +0.000 C 
ATOM     24  C   UNL     1      10.605  14.365  17.838  0.00  0.00    +0.000 C 
ATOM     25  C   UNL     1       9.921  13.638  19.039  0.00  0.00    +0.000 C 
ATOM     26  C   UNL     1       8.780  14.528  19.602  0.00  0.00    +0.000 C 
ATOM     27  C   UNL     1       9.096  16.038  19.644  0.00  0.00    +0.000 C 
ENDBRANCH  15  25
ENDBRANCH   1  18
TORSDOF 2
ENDMDL
MODEL 3
REMARK VINA RESULT:      -8.9      7.411     10.276
REMARK  Name = 
REMARK  3 active torsions:
REMARK  status: ('A' for Active; 'I' for Inactive)
REMARK    1  A    between atoms: C_1  and  N_2
REMARK    2  A    between atoms: C_5  and  C_6
REMARK    3  A    between atoms: C_9  and  C_10
REMARK                            x       y       z     vdW  Elec       q    Type
REMARK                         _______ _______ _______ _____ _____    ______ ____
ROOT
ATOM      1  C   UNL     1       0.538   9.215  20.465  0.00  0.00    +0.000 A 
ATOM      2  N   UNL     1      -0.087  10.240  19.960  0.00  0.00    +0.000 NA
ATOM      3  C   UNL     1      -0.848  11.074  20.830  0.00  0.00    +0.000 A 
ATOM      4  C   UNL     1      -1.641  12.129  20.351  0.00  0.00    +0.000 A 
ATOM      5  F   UNL     1      -1.809  12.305  19.032  0.00  0.00    +0.000 F 
ATOM      6  C   UNL     1      -2.267  13.038  21.216  0.00  0.00    +0.000 A 
ATOM      7  C   UNL     1      -2.091  12.906  22.586  0.00  0.00    +0.000 A 
ATOM      8  F   UNL     1      -2.660  13.789  23.417  0.00  0.00    +0.000 F 
ATOM      9  C   UNL     1      -1.336  11.865  23.104  0.00  0.00    +0.000 A 
ATOM     10  C   UNL     1      -0.745  10.955  22.218  0.00  0.00    +0.000 A 
ATOM     11  C   UNL     1       0.004   9.804  22.722  0.00  0.00    +0.000 A 
ATOM     12  O   UNL     1       0.314   9.702  23.903  0.00  0.00    +0.000 OA
ATOM     13  N   UNL     1       0.380   8.876  21.793  0.00  0.00    +0.000 N 
ATOM     14  H   UNL     1       0.838   8.077  22.194  0.00  0.00    +0.000 HD
ENDROOT
BRANCH   1  18
ATOM     15  C   UNL     1       3.377   6.705  18.159  0.00  0.00    +0.000 A 
ATOM     16  C   UNL     1       2.844   7.896  17.627  0.00  0.00    +0.000 A 
ATOM     17  C   UNL     1       1.942   8.719  18.357  0.00  0.00    +0.000 A 
ATOM     18  C   UNL     1       1.537   8.396  19.663  0.00  0.00    +0.000 A 
ATOM     19  C   UNL     1       1.999   7.178  20.172  0.00  0.00    +0.000 A 
ATOM     20  C   UNL     1       2.855   6.327  19.415  0.00  0.00    +0.000 A 
BRANCH  15  25
ATOM     21  C   UNL     1       6.211   3.758  13.974  0.00  0.00    +0.000 C 
ATOM     22  N   UNL     1       5.398   4.519  14.933  0.00  0.00    +0.000 NA
ATOM     23  C   UNL     1       5.186   3.753  16.161  0.00  0.00    +0.000 C 
ATOM     24  C   UNL     1       4.209   4.491  17.089  0.00  0.00    +0.000 C 
ATOM     25  C   UNL     1       4.553   5.979  17.414  0.00  0.00    +0.000 C 
ATOM     26  C   UNL     1       5.099   6.675  16.137  0.00  0.00    +0.000 C 
ATOM     27  C   UNL     1       6.027   5.800  15.268  0.00  0.00    +0.000 C 
ENDBRANCH  15  25
ENDBRANCH   1  18
TORSDOF 2
ENDMDL
MODEL 4
REMARK VINA RESULT:      -8.8      8.088      9.490
REMARK  Name = 
REMARK  3 active torsions:
REMARK  status: ('A' for Active; 'I' for Inactive)
REMARK    1  A    between atoms: C_1  and  N_2
REMARK    2  A    between atoms: C_5  and  C_6
REMARK    3  A    between atoms: C_9  and  C_10
REMARK                            x       y       z     vdW  Elec       q    Type
REMARK                         _______ _______ _______ _____ _____    ______ ____
ROOT
ATOM      1  C   UNL     1       1.826   7.503  20.226  0.00  0.00    +0.000 A 
ATOM      2  N   UNL     1       2.436   7.490  19.075  0.00  0.00    +0.000 NA
ATOM      3  C   UNL     1       3.050   6.281  18.639  0.00  0.00    +0.000 A 
ATOM      4  C   UNL     1       3.822   6.213  17.469  0.00  0.00    +0.000 A 
ATOM      5  F   UNL     1       4.114   7.329  16.785  0.00  0.00    +0.000 F 
ATOM      6  C   UNL     1       4.298   4.995  16.964  0.00  0.00    +0.000 A 
ATOM      7  C   UNL     1       3.990   3.816  17.627  0.00  0.00    +0.000 A 
ATOM      8  F   UNL     1       4.414   2.645  17.134  0.00  0.00    +0.000 F 
ATOM      9  C   UNL     1       3.251   3.838  18.800  0.00  0.00    +0.000 A 
ATOM     10  C   UNL     1       2.811   5.072  19.297  0.00  0.00    +0.000 A 
ATOM     11  C   UNL     1       2.087   5.149  20.565  0.00  0.00    +0.000 A 
ATOM     12  O   UNL     1       1.662   4.146  21.129  0.00  0.00    +0.000 OA
ATOM     13  N   UNL     1       1.866   6.403  21.058  0.00  0.00    +0.000 N 
ATOM     14  H   UNL     1       1.419   6.403  21.958  0.00  0.00    +0.000 HD
ENDROOT
BRANCH   1  18
ATOM     15  C   UNL     1      -0.588  10.937  21.660  0.00  0.00    +0.000 A 
ATOM     16  C   UNL     1      -0.211  10.813  20.308  0.00  0.00    +0.000 A 
ATOM     17  C   UNL     1       0.552   9.712  19.829  0.00  0.00    +0.000 A 
ATOM     18  C   UNL     1       0.968   8.674  20.679  0.00  0.00    +0.000 A 
ATOM     19  C   UNL     1       0.665   8.825  22.036  0.00  0.00    +0.000 A 
ATOM     20  C   UNL     1      -0.049   9.958  22.522  0.00  0.00    +0.000 A 
BRANCH  15  25
ATOM     21  C   UNL     1      -5.784  13.427  22.681  0.00  0.00    +0.000 C 
ATOM     22  N   UNL     1      -4.545  12.681  22.417  0.00  0.00    +0.000 NA
ATOM     23  C   UNL     1      -3.826  13.249  21.276  0.00  0.00    +0.000 C 
ATOM     24  C   UNL     1      -2.620  12.370  20.913  0.00  0.00    +0.000 C 
ATOM     25  C   UNL     1      -1.637  12.030  22.078  0.00  0.00    +0.000 C 
ATOM     26  C   UNL     1      -2.445  11.754  23.375  0.00  0.00    +0.000 C 
ATOM     27  C   UNL     1      -3.663  12.677  23.588  0.00  0.00    +0.000 C 
ENDBRANCH  15  25
ENDBRANCH   1  18
TORSDOF 2
ENDMDL
MODEL 5
REMARK VINA RESULT:      -8.7      6.933      8.561
REMARK  Name = 
REMARK  3 active torsions:
REMARK  status: ('A' for Active; 'I' for Inactive)
REMARK    1  A    between atoms: C_1  and  N_2
REMARK    2  A    between atoms: C_5  and  C_6
REMARK    3  A    between atoms: C_9  and  C_10
REMARK                            x       y       z     vdW  Elec       q    Type
REMARK                         _______ _______ _______ _____ _____    ______ ____
ROOT
ATOM      1  C   UNL     1       2.850   6.910  18.706  0.00  0.00    +0.000 A 
ATOM      2  N   UNL     1       3.979   7.170  18.111  0.00  0.00    +0.000 NA
ATOM      3  C   UNL     1       4.620   6.132  17.374  0.00  0.00    +0.000 A 
ATOM      4  C   UNL     1       5.891   6.296  16.800  0.00  0.00    +0.000 A 
ATOM      5  F   UNL     1       6.603   7.407  17.039  0.00  0.00    +0.000 F 
ATOM      6  C   UNL     1       6.452   5.330  15.953  0.00  0.00    +0.000 A 
ATOM      7  C   UNL     1       5.731   4.182  15.658  0.00  0.00    +0.000 A 
ATOM      8  F   UNL     1       6.248   3.269  14.825  0.00  0.00    +0.000 F 
ATOM      9  C   UNL     1       4.483   3.967  16.222  0.00  0.00    +0.000 A 
ATOM     10  C   UNL     1       3.958   4.936  17.087  0.00  0.00    +0.000 A 
ATOM     11  C   UNL     1       2.676   4.721  17.757  0.00  0.00    +0.000 A 
ATOM     12  O   UNL     1       1.927   3.803  17.439  0.00  0.00    +0.000 OA
ATOM     13  N   UNL     1       2.338   5.628  18.719  0.00  0.00    +0.000 N 
ATOM     14  H   UNL     1       1.479   5.406  19.191  0.00  0.00    +0.000 HD
ENDROOT
BRANCH   1  18
ATOM     15  C   UNL     1       0.260  10.078  20.419  0.00  0.00    +0.000 A 
ATOM     16  C   UNL     1       0.669   8.966  21.182  0.00  0.00    +0.000 A 
ATOM     17  C   UNL     1       1.510   7.947  20.652  0.00  0.00    +0.000 A 
ATOM     18  C   UNL     1       1.992   7.997  19.333  0.00  0.00    +0.000 A 
ATOM     19  C   UNL     1       1.530   9.055  18.544  0.00  0.00    +0.000 A 
ATOM     20  C   UNL     1       0.641  10.041  19.060  0.00  0.00    +0.000 A 
BRANCH  15  25
ATOM     21  C   UNL     1      -4.027  13.295  22.765  0.00  0.00    +0.000 C 
ATOM     22  N   UNL     1      -3.038  12.380  22.178  0.00  0.00    +0.000 NA
ATOM     23  C   UNL     1      -2.502  12.922  20.929  0.00  0.00    +0.000 C 
ATOM     24  C   UNL     1      -1.590  11.890  20.248  0.00  0.00    +0.000 C 
ATOM     25  C   UNL     1      -0.450  11.287  21.127  0.00  0.00    +0.000 C 
ATOM     26  C   UNL     1      -0.982  11.033  22.563  0.00  0.00    +0.000 C 
ATOM     27  C   UNL     1      -1.932  12.123  23.105  0.00  0.00    +0.000 C 
ENDBRANCH  15  25
ENDBRANCH   1  18
TORSDOF 2
ENDMDL
MODEL 6
REMARK VINA RESULT:      -8.7      7.273      8.277
REMARK  Name = 
REMARK  3 active torsions:
REMARK  status: ('A' for Active; 'I' for Inactive)
REMARK    1  A    between atoms: C_1  and  N_2
REMARK    2  A    between atoms: C_5  and  C_6
REMARK    3  A    between atoms: C_9  and  C_10
REMARK                            x       y       z     vdW  Elec       q    Type
REMARK                         _______ _______ _______ _____ _____    ______ ____
ROOT
ATOM      1  C   UNL     1       2.103   7.088  20.134  0.00  0.00    +0.000 A 
ATOM      2  N   UNL     1       2.674   6.906  18.977  0.00  0.00    +0.000 NA
ATOM      3  C   UNL     1       3.141   5.603  18.640  0.00  0.00    +0.000 A 
ATOM      4  C   UNL     1       3.866   5.347  17.466  0.00  0.00    +0.000 A 
ATOM      5  F   UNL     1       4.255   6.360  16.677  0.00  0.00    +0.000 F 
ATOM      6  C   UNL     1       4.193   4.044  17.065  0.00  0.00    +0.000 A 
ATOM      7  C   UNL     1       3.780   2.970  17.839  0.00  0.00    +0.000 A 
ATOM      8  F   UNL     1       4.061   1.721  17.447  0.00  0.00    +0.000 F 
ATOM      9  C   UNL     1       3.083   3.177  19.019  0.00  0.00    +0.000 A 
ATOM     10  C   UNL     1       2.794   4.490  19.410  0.00  0.00    +0.000 A 
ATOM     11  C   UNL     1       2.120   4.759  20.681  0.00  0.00    +0.000 A 
ATOM     12  O   UNL     1       1.608   3.863  21.343  0.00  0.00    +0.000 OA
ATOM     13  N   UNL     1       2.051   6.068  21.062  0.00  0.00    +0.000 N 
ATOM     14  H   UNL     1       1.633   6.197  21.967  0.00  0.00    +0.000 HD
ENDROOT
BRANCH   1  18
ATOM     15  C   UNL     1      -0.067  10.840  21.076  0.00  0.00    +0.000 A 
ATOM     16  C   UNL     1       0.235   9.892  22.073  0.00  0.00    +0.000 A 
ATOM     17  C   UNL     1       0.941   8.689  21.791  0.00  0.00    +0.000 A 
ATOM     18  C   UNL     1       1.390   8.381  20.495  0.00  0.00    +0.000 A 
ATOM     19  C   UNL     1       1.029   9.277  19.485  0.00  0.00    +0.000 A 
ATOM     20  C   UNL     1       0.271  10.452  19.761  0.00  0.00    +0.000 A 
BRANCH  15  25
ATOM     21  C   UNL     1      -0.926  15.652  24.291  0.00  0.00    +0.000 C 
ATOM     22  N   UNL     1      -0.606  14.413  23.568  0.00  0.00    +0.000 NA
ATOM     23  C   UNL     1      -1.786  13.557  23.451  0.00  0.00    +0.000 C 
ATOM     24  C   UNL     1      -1.404  12.203  22.835  0.00  0.00    +0.000 C 
ATOM     25  C   UNL     1      -0.617  12.253  21.487  0.00  0.00    +0.000 C 
ATOM     26  C   UNL     1       0.416  13.411  21.533  0.00  0.00    +0.000 C 
ATOM     27  C   UNL     1      -0.082  14.697  22.229  0.00  0.00    +0.000 C 
ENDBRANCH  15  25
ENDBRANCH   1  18
TORSDOF 2
ENDMDL
MODEL 7
REMARK VINA RESULT:      -8.7      6.550      8.230
REMARK  Name = 
REMARK  3 active torsions:
REMARK  status: ('A' for Active; 'I' for Inactive)
REMARK    1  A    between atoms: C_1  and  N_2
REMARK    2  A    between atoms: C_5  and  C_6
REMARK    3  A    between atoms: C_9  and  C_10
REMARK                            x       y       z     vdW  Elec       q    Type
REMARK                         _______ _______ _______ _____ _____    ______ ____
ROOT
ATOM      1  C   UNL     1       3.032   6.678  18.482  0.00  0.00    +0.000 A 
ATOM      2  N   UNL     1       4.166   6.980  17.916  0.00  0.00    +0.000 NA
ATOM      3  C   UNL     1       4.847   5.977  17.168  0.00  0.00    +0.000 A 
ATOM      4  C   UNL     1       6.124   6.186  16.624  0.00  0.00    +0.000 A 
ATOM      5  F   UNL     1       6.803   7.308  16.903  0.00  0.00    +0.000 F 
ATOM      6  C   UNL     1       6.726   5.255  15.766  0.00  0.00    +0.000 A 
ATOM      7  C   UNL     1       6.040   4.097  15.429  0.00  0.00    +0.000 A 
ATOM      8  F   UNL     1       6.595   3.217  14.585  0.00  0.00    +0.000 F 
ATOM      9  C   UNL     1       4.787   3.837  15.962  0.00  0.00    +0.000 A 
ATOM     10  C   UNL     1       4.221   4.772  16.839  0.00  0.00    +0.000 A 
ATOM     11  C   UNL     1       2.932   4.509  17.478  0.00  0.00    +0.000 A 
ATOM     12  O   UNL     1       2.213   3.580  17.124  0.00  0.00    +0.000 OA
ATOM     13  N   UNL     1       2.553   5.384  18.454  0.00  0.00    +0.000 N 
ATOM     14  H   UNL     1       1.691   5.129  18.904  0.00  0.00    +0.000 HD
ENDROOT
BRANCH   1  18
ATOM     15  C   UNL     1       0.495   9.736  20.456  0.00  0.00    +0.000 A 
ATOM     16  C   UNL     1       0.958   9.901  19.135  0.00  0.00    +0.000 A 
ATOM     17  C   UNL     1       1.762   8.925  18.483  0.00  0.00    +0.000 A 
ATOM     18  C   UNL     1       2.134   7.728  19.118  0.00  0.00    +0.000 A 
ATOM     19  C   UNL     1       1.746   7.588  20.454  0.00  0.00    +0.000 A 
ATOM     20  C   UNL     1       0.990   8.594  21.123  0.00  0.00    +0.000 A 
BRANCH  15  25
ATOM     21  C   UNL     1      -1.845  14.042  23.652  0.00  0.00    +0.000 C 
ATOM     22  N   UNL     1      -1.133  13.009  22.885  0.00  0.00    +0.000 NA
ATOM     23  C   UNL     1      -1.579  11.671  23.271  0.00  0.00    +0.000 C 
ATOM     24  C   UNL     1      -0.721  10.601  22.580  0.00  0.00    +0.000 C 
ATOM     25  C   UNL     1      -0.589  10.717  21.028  0.00  0.00    +0.000 C 
ATOM     26  C   UNL     1      -0.449  12.212  20.630  0.00  0.00    +0.000 C 
ATOM     27  C   UNL     1      -1.330  13.185  21.443  0.00  0.00    +0.000 C 
ENDBRANCH  15  25
ENDBRANCH   1  18
TORSDOF 2
ENDMDL
MODEL 8
REMARK VINA RESULT:      -8.6      7.353      8.331
REMARK  Name = 
REMARK  3 active torsions:
REMARK  status: ('A' for Active; 'I' for Inactive)
REMARK    1  A    between atoms: C_1  and  N_2
REMARK    2  A    between atoms: C_5  and  C_6
REMARK    3  A    between atoms: C_9  and  C_10
REMARK                            x       y       z     vdW  Elec       q    Type
REMARK                         _______ _______ _______ _____ _____    ______ ____
ROOT
ATOM      1  C   UNL     1       2.155   6.844  20.109  0.00  0.00    +0.000 A 
ATOM      2  N   UNL     1       2.714   6.615  18.954  0.00  0.00    +0.000 NA
ATOM      3  C   UNL     1       3.099   5.281  18.632  0.00  0.00    +0.000 A 
ATOM      4  C   UNL     1       3.807   4.968  17.461  0.00  0.00    +0.000 A 
ATOM      5  F   UNL     1       4.259   5.946  16.662  0.00  0.00    +0.000 F 
ATOM      6  C   UNL     1       4.052   3.643  17.075  0.00  0.00    +0.000 A 
ATOM      7  C   UNL     1       3.572   2.605  17.860  0.00  0.00    +0.000 A 
ATOM      8  F   UNL     1       3.775   1.336  17.481  0.00  0.00    +0.000 F 
ATOM      9  C   UNL     1       2.889   2.868  19.037  0.00  0.00    +0.000 A 
ATOM     10  C   UNL     1       2.682   4.201  19.414  0.00  0.00    +0.000 A 
ATOM     11  C   UNL     1       2.026   4.524  20.681  0.00  0.00    +0.000 A 
ATOM     12  O   UNL     1       1.458   3.669  21.351  0.00  0.00    +0.000 OA
ATOM     13  N   UNL     1       2.039   5.839  21.047  0.00  0.00    +0.000 N 
ATOM     14  H   UNL     1       1.629   6.004  21.950  0.00  0.00    +0.000 HD
ENDROOT
BRANCH   1  18
ATOM     15  C   UNL     1       0.407  10.764  21.230  0.00  0.00    +0.000 A 
ATOM     16  C   UNL     1       0.727  10.453  19.893  0.00  0.00    +0.000 A 
ATOM     17  C   UNL     1       1.276   9.197  19.514  0.00  0.00    +0.000 A 
ATOM     18  C   UNL     1       1.524   8.183  20.455  0.00  0.00    +0.000 A 
ATOM     19  C   UNL     1       1.283   8.507  21.794  0.00  0.00    +0.000 A 
ATOM     20  C   UNL     1       0.788   9.787  22.176  0.00  0.00    +0.000 A 
BRANCH  15  25
ATOM     21  C   UNL     1      -1.490  15.468  24.147  0.00  0.00    +0.000 C 
ATOM     22  N   UNL     1      -0.907  14.282  23.502  0.00  0.00    +0.000 NA
ATOM     23  C   UNL     1      -1.888  13.200  23.414  0.00  0.00    +0.000 C 
ATOM     24  C   UNL     1      -1.225  11.920  22.884  0.00  0.00    +0.000 C 
ATOM     25  C   UNL     1      -0.426  12.056  21.550  0.00  0.00    +0.000 C 
ATOM     26  C   UNL     1       0.352  13.400  21.547  0.00  0.00    +0.000 C 
ATOM     27  C   UNL     1      -0.412  14.594  22.158  0.00  0.00    +0.000 C 
ENDBRANCH  15  25
ENDBRANCH   1  18
TORSDOF 2
ENDMDL
MODEL 9
REMARK VINA RESULT:      -8.5      8.227     11.501
REMARK  Name = 
REMARK  3 active torsions:
REMARK  status: ('A' for Active; 'I' for Inactive)
REMARK    1  A    between atoms: C_1  and  N_2
REMARK    2  A    between atoms: C_5  and  C_6
REMARK    3  A    between atoms: C_9  and  C_10
REMARK                            x       y       z     vdW  Elec       q    Type
REMARK                         _______ _______ _______ _____ _____    ______ ____
ROOT
ATOM      1  C   UNL     1       0.342  10.644  20.141  0.00  0.00    +0.000 A 
ATOM      2  N   UNL     1      -0.444  10.645  21.180  0.00  0.00    +0.000 NA
ATOM      3  C   UNL     1      -1.220  11.809  21.451  0.00  0.00    +0.000 A 
ATOM      4  C   UNL     1      -2.003  11.934  22.610  0.00  0.00    +0.000 A 
ATOM      5  F   UNL     1      -1.944  10.999  23.570  0.00  0.00    +0.000 F 
ATOM      6  C   UNL     1      -2.878  13.012  22.801  0.00  0.00    +0.000 A 
ATOM      7  C   UNL     1      -2.989  13.982  21.814  0.00  0.00    +0.000 A 
ATOM      8  F   UNL     1      -3.845  14.999  21.976  0.00  0.00    +0.000 F 
ATOM      9  C   UNL     1      -2.216  13.912  20.666  0.00  0.00    +0.000 A 
ATOM     10  C   UNL     1      -1.330  12.838  20.513  0.00  0.00    +0.000 A 
ATOM     11  C   UNL     1      -0.447  12.759  19.349  0.00  0.00    +0.000 A 
ATOM     12  O   UNL     1      -0.587  13.499  18.381  0.00  0.00    +0.000 OA
ATOM     13  N   UNL     1       0.507  11.784  19.381  0.00  0.00    +0.000 N 
ATOM     14  H   UNL     1       1.125  11.807  18.589  0.00  0.00    +0.000 HD
ENDROOT
BRANCH   1  18
ATOM     15  C   UNL     1       2.483   7.059  18.644  0.00  0.00    +0.000 A 
ATOM     16  C   UNL     1       2.108   7.184  19.996  0.00  0.00    +0.000 A 
ATOM     17  C   UNL     1       1.410   8.321  20.491  0.00  0.00    +0.000 A 
ATOM     18  C   UNL     1       1.043   9.387  19.652  0.00  0.00    +0.000 A 
ATOM     19  C   UNL     1       1.477   9.309  18.325  0.00  0.00    +0.000 A 
ATOM     20  C   UNL     1       2.226   8.196  17.846  0.00  0.00    +0.000 A 
BRANCH  15  25
ATOM     21  C   UNL     1       3.721   1.342  18.530  0.00  0.00    +0.000 C 
ATOM     22  N   UNL     1       3.328   2.752  18.667  0.00  0.00    +0.000 NA
ATOM     23  C   UNL     1       4.506   3.614  18.766  0.00  0.00    +0.000 C 
ATOM     24  C   UNL     1       4.085   5.061  19.066  0.00  0.00    +0.000 C 
ATOM     25  C   UNL     1       3.019   5.683  18.109  0.00  0.00    +0.000 C 
ATOM     26  C   UNL     1       1.950   4.613  17.759  0.00  0.00    +0.000 C 
ATOM     27  C   UNL     1       2.505   3.190  17.536  0.00  0.00    +0.000 C 
ENDBRANCH  15  25
ENDBRANCH   1  18
TORSDOF 2
ENDMDL
