MODEL 1
REMARK VINA RESULT:      -8.3      0.000      0.000
REMARK  Name = 
REMARK  7 active torsions:
REMARK  status: ('A' for Active; 'I' for Inactive)
REMARK    1  A    between atoms: C_2  and  O_3
REMARK    2  A    between atoms: C_2  and  C_4
REMARK    3  A    between atoms: C_4  and  C_5
REMARK    4  A    between atoms: C_8  and  N_9
REMARK    5  A    between atoms: C_11  and  C_12
REMARK    6  A    between atoms: C_17  and  C_18
REMARK    7  A    between atoms: C_21  and  C_22
REMARK                            x       y       z     vdW  Elec       q    Type
REMARK                         _______ _______ _______ _____ _____    ______ ____
ROOT
ATOM      1  N   UNL     1       6.471   5.855  16.376  0.00  0.00    +0.000 N 
ATOM      2  N   UNL     1       7.558   6.669  16.437  0.00  0.00    +0.000 NA
ATOM      3  C   UNL     1       7.320   7.493  17.472  0.00  0.00    +0.000 A 
ATOM      4  C   UNL     1       6.178   7.068  18.192  0.00  0.00    +0.000 A 
ATOM      5  C   UNL     1       5.666   5.975  17.513  0.00  0.00    +0.000 A 
ENDROOT
BRANCH   1   9
ATOM      6  C   UNL     1       5.845   3.539  12.891  0.00  0.00    +0.000 A 
ATOM      7  C   UNL     1       4.856   3.620  13.883  0.00  0.00    +0.000 A 
ATOM      8  C   UNL     1       5.074   4.364  15.047  0.00  0.00    +0.000 A 
ATOM      9  C   UNL     1       6.281   5.046  15.220  0.00  0.00    +0.000 A 
ATOM     10  C   UNL     1       7.282   4.943  14.242  0.00  0.00    +0.000 A 
ATOM     11  C   UNL     1       7.059   4.208  13.079  0.00  0.00    +0.000 A 
BRANCH   6  12
ATOM     12  C   UNL     1       5.583   2.800  11.602  0.00  0.00    +0.000 C 
BRANCH  12  14
ATOM     13  O   UNL     1       7.667   1.824  10.918  0.00  0.00    +0.000 OA
ATOM     14  C   UNL     1       6.518   1.641  11.297  0.00  0.00    +0.000 C 
BRANCH  14  15
ATOM     15  O   UNL     1       6.029   0.400  11.461  0.00  0.00    +0.000 OA
ATOM     16  H   UNL     1       5.340   0.129  10.819  0.00  0.00    +0.000 HD
ENDBRANCH  14  15
ENDBRANCH  12  14
ENDBRANCH   6  12
ENDBRANCH   1   9
BRANCH   5  17
ATOM     17  C   UNL     1       4.552   5.092  17.892  0.00  0.00    +0.000 A 
ATOM     18  C   UNL     1       4.799   3.821  18.427  0.00  0.00    +0.000 A 
ATOM     19  C   UNL     1       3.742   3.009  18.861  0.00  0.00    +0.000 A 
ATOM     20  C   UNL     1       2.417   3.462  18.790  0.00  0.00    +0.000 A 
ATOM     21  C   UNL     1       2.165   4.722  18.235  0.00  0.00    +0.000 A 
ATOM     22  C   UNL     1       3.217   5.496  17.746  0.00  0.00    +0.000 A 
BRANCH  20  23
ATOM     23  C   UNL     1       1.269   2.630  19.300  0.00  0.00    +0.000 C 
ATOM     24  F   UNL     1       0.633   1.931  18.323  0.00  0.00    +0.000 F 
ATOM     25  F   UNL     1       1.665   1.711  20.228  0.00  0.00    +0.000 F 
ATOM     26  F   UNL     1       0.314   3.387  19.904  0.00  0.00    +0.000 F 
ENDBRANCH  20  23
ENDBRANCH   5  17
BRANCH   3  27
ATOM     27  C   UNL     1       8.184   8.678  17.812  0.00  0.00    +0.000 C 
ATOM     28  F   UNL     1       9.095   8.987  16.854  0.00  0.00    +0.000 F 
ATOM     29  F   UNL     1       7.428   9.795  18.006  0.00  0.00    +0.000 F 
ATOM     30  F   UNL     1       8.873   8.480  18.967  0.00  0.00    +0.000 F 
ENDBRANCH   3  27
TORSDOF 7
ENDMDL
MODEL 2
REMARK VINA RESULT:      -8.2      0.327      1.286
REMARK  Name = 
REMARK  7 active torsions:
REMARK  status: ('A' for Active; 'I' for Inactive)
REMARK    1  A    between atoms: C_2  and  O_3
REMARK    2  A    between atoms: C_2  and  C_4
REMARK    3  A    between atoms: C_4  and  C_5
REMARK    4  A    between atoms: C_8  and  N_9
REMARK    5  A    between atoms: C_11  and  C_12
REMARK    6  A    between atoms: C_17  and  C_18
REMARK    7  A    between atoms: C_21  and  C_22
REMARK                            x       y       z     vdW  Elec       q    Type
REMARK                         _______ _______ _______ _____ _____    ______ ____
ROOT
ATOM      1  N   UNL     1       6.360   5.759  16.253  0.00  0.00    +0.000 N 
ATOM      2  N   UNL     1       7.460   6.552  16.332  0.00  0.00    +0.000 NA
ATOM      3  C   UNL     1       7.267   7.309  17.426  0.00  0.00    +0.000 A 
ATOM      4  C   UNL     1       6.142   6.853  18.153  0.00  0.00    +0.000 A 
ATOM      5  C   UNL     1       5.592   5.814  17.421  0.00  0.00    +0.000 A 
ENDROOT
BRANCH   1   9
ATOM      6  C   UNL     1       5.711   3.505  12.731  0.00  0.00    +0.000 A 
ATOM      7  C   UNL     1       6.919   4.192  12.928  0.00  0.00    +0.000 A 
ATOM      8  C   UNL     1       7.122   4.959  14.080  0.00  0.00    +0.000 A 
ATOM      9  C   UNL     1       6.121   5.030  15.052  0.00  0.00    +0.000 A 
ATOM     10  C   UNL     1       4.903   4.367  14.844  0.00  0.00    +0.000 A 
ATOM     11  C   UNL     1       4.705   3.596  13.699  0.00  0.00    +0.000 A 
BRANCH   6  12
ATOM     12  C   UNL     1       5.519   2.616  11.526  0.00  0.00    +0.000 C 
BRANCH  12  14
ATOM     13  O   UNL     1       7.704   1.792  10.973  0.00  0.00    +0.000 OA
ATOM     14  C   UNL     1       6.564   1.529  11.328  0.00  0.00    +0.000 C 
BRANCH  14  15
ATOM     15  O   UNL     1       6.180   0.262  11.558  0.00  0.00    +0.000 OA
ATOM     16  H   UNL     1       5.214   0.099  11.522  0.00  0.00    +0.000 HD
ENDBRANCH  14  15
ENDBRANCH  12  14
ENDBRANCH   6  12
ENDBRANCH   1   9
BRANCH   5  17
ATOM     17  C   UNL     1       4.477   4.922  17.777  0.00  0.00    +0.000 A 
ATOM     18  C   UNL     1       4.722   3.622  18.235  0.00  0.00    +0.000 A 
ATOM     19  C   UNL     1       3.666   2.798  18.648  0.00  0.00    +0.000 A 
ATOM     20  C   UNL     1       2.345   3.267  18.634  0.00  0.00    +0.000 A 
ATOM     21  C   UNL     1       2.095   4.558  18.155  0.00  0.00    +0.000 A 
ATOM     22  C   UNL     1       3.144   5.348  17.685  0.00  0.00    +0.000 A 
BRANCH  20  23
ATOM     23  C   UNL     1       1.200   2.420  19.124  0.00  0.00    +0.000 C 
ATOM     24  F   UNL     1       1.559   1.140  19.412  0.00  0.00    +0.000 F 
ATOM     25  F   UNL     1       0.633   2.920  20.260  0.00  0.00    +0.000 F 
ATOM     26  F   UNL     1       0.197   2.332  18.210  0.00  0.00    +0.000 F 
ENDBRANCH  20  23
ENDBRANCH   5  17
BRANCH   3  27
ATOM     27  C   UNL     1       8.160   8.457  17.815  0.00  0.00    +0.000 C 
ATOM     28  F   UNL     1       8.895   8.229  18.933  0.00  0.00    +0.000 F 
ATOM     29  F   UNL     1       9.044   8.748  16.820  0.00  0.00    +0.000 F 
ATOM     30  F   UNL     1       7.445   9.594  18.033  0.00  0.00    +0.000 F 
ENDBRANCH   3  27
TORSDOF 7
ENDMDL
MODEL 3
REMARK VINA RESULT:      -8.2      0.158      1.118
REMARK  Name = 
REMARK  7 active torsions:
REMARK  status: ('A' for Active; 'I' for Inactive)
REMARK    1  A    between atoms: C_2  and  O_3
REMARK    2  A    between atoms: C_2  and  C_4
REMARK    3  A    between atoms: C_4  and  C_5
REMARK    4  A    between atoms: C_8  and  N_9
REMARK    5  A    between atoms: C_11  and  C_12
REMARK    6  A    between atoms: C_17  and  C_18
REMARK    7  A    between atoms: C_21  and  C_22
REMARK                            x       y       z     vdW  Elec       q    Type
REMARK                         _______ _______ _______ _____ _____    ______ ____
ROOT
ATOM      1  N   UNL     1       6.425   5.833  16.337  0.00  0.00    +0.000 N 
ATOM      2  N   UNL     1       7.520   6.635  16.404  0.00  0.00    +0.000 NA
ATOM      3  C   UNL     1       7.288   7.458  17.442  0.00  0.00    +0.000 A 
ATOM      4  C   UNL     1       6.140   7.042  18.157  0.00  0.00    +0.000 A 
ATOM      5  C   UNL     1       5.619   5.957  17.472  0.00  0.00    +0.000 A 
ENDROOT
BRANCH   1   9
ATOM      6  C   UNL     1       5.783   3.539  12.840  0.00  0.00    +0.000 A 
ATOM      7  C   UNL     1       4.789   3.633  13.827  0.00  0.00    +0.000 A 
ATOM      8  C   UNL     1       5.013   4.369  14.994  0.00  0.00    +0.000 A 
ATOM      9  C   UNL     1       6.229   5.031  15.176  0.00  0.00    +0.000 A 
ATOM     10  C   UNL     1       7.234   4.916  14.204  0.00  0.00    +0.000 A 
ATOM     11  C   UNL     1       7.007   4.188  13.037  0.00  0.00    +0.000 A 
BRANCH   6  12
ATOM     12  C   UNL     1       5.517   2.809  11.547  0.00  0.00    +0.000 C 
BRANCH  12  14
ATOM     13  O   UNL     1       5.843   0.447  11.265  0.00  0.00    +0.000 OA
ATOM     14  C   UNL     1       6.350   1.560  11.304  0.00  0.00    +0.000 C 
BRANCH  14  15
ATOM     15  O   UNL     1       7.672   1.729  11.135  0.00  0.00    +0.000 OA
ATOM     16  H   UNL     1       8.149   2.123  11.895  0.00  0.00    +0.000 HD
ENDBRANCH  14  15
ENDBRANCH  12  14
ENDBRANCH   6  12
ENDBRANCH   1   9
BRANCH   5  17
ATOM     17  C   UNL     1       4.495   5.084  17.845  0.00  0.00    +0.000 A 
ATOM     18  C   UNL     1       4.726   3.786  18.320  0.00  0.00    +0.000 A 
ATOM     19  C   UNL     1       3.662   2.981  18.749  0.00  0.00    +0.000 A 
ATOM     20  C   UNL     1       2.347   3.466  18.734  0.00  0.00    +0.000 A 
ATOM     21  C   UNL     1       2.110   4.754  18.239  0.00  0.00    +0.000 A 
ATOM     22  C   UNL     1       3.166   5.524  17.754  0.00  0.00    +0.000 A 
BRANCH  20  23
ATOM     23  C   UNL     1       1.193   2.639  19.241  0.00  0.00    +0.000 C 
ATOM     24  F   UNL     1       1.582   1.505  19.881  0.00  0.00    +0.000 F 
ATOM     25  F   UNL     1       0.411   3.325  20.123  0.00  0.00    +0.000 F 
ATOM     26  F   UNL     1       0.367   2.239  18.237  0.00  0.00    +0.000 F 
ENDBRANCH  20  23
ENDBRANCH   5  17
BRANCH   3  27
ATOM     27  C   UNL     1       8.164   8.632  17.788  0.00  0.00    +0.000 C 
ATOM     28  F   UNL     1       7.480   9.785  18.000  0.00  0.00    +0.000 F 
ATOM     29  F   UNL     1       8.881   8.391  18.921  0.00  0.00    +0.000 F 
ATOM     30  F   UNL     1       9.074   8.884  16.809  0.00  0.00    +0.000 F 
ENDBRANCH   3  27
TORSDOF 7
ENDMDL
MODEL 4
REMARK VINA RESULT:      -8.0      4.254      6.238
REMARK  Name = 
REMARK  7 active torsions:
REMARK  status: ('A' for Active; 'I' for Inactive)
REMARK    1  A    between atoms: C_2  and  O_3
REMARK    2  A    between atoms: C_2  and  C_4
REMARK    3  A    between atoms: C_4  and  C_5
REMARK    4  A    between atoms: C_8  and  N_9
REMARK    5  A    between atoms: C_11  and  C_12
REMARK    6  A    between atoms: C_17  and  C_18
REMARK    7  A    between atoms: C_21  and  C_22
REMARK                            x       y       z     vdW  Elec       q    Type
REMARK                         _______ _______ _______ _____ _____    ______ ____
ROOT
ATOM      1  N   UNL     1       6.171   5.455  15.944  0.00  0.00    +0.000 N 
ATOM      2  N   UNL     1       6.577   5.406  14.648  0.00  0.00    +0.000 NA
ATOM      3  C   UNL     1       5.994   4.306  14.140  0.00  0.00    +0.000 A 
ATOM      4  C   UNL     1       5.057   3.774  15.057  0.00  0.00    +0.000 A 
ATOM      5  C   UNL     1       5.132   4.554  16.198  0.00  0.00    +0.000 A 
ENDROOT
BRANCH   1   9
ATOM      6  C   UNL     1       8.227   8.083  18.545  0.00  0.00    +0.000 A 
ATOM      7  C   UNL     1       8.248   6.697  18.765  0.00  0.00    +0.000 A 
ATOM      8  C   UNL     1       7.546   5.832  17.921  0.00  0.00    +0.000 A 
ATOM      9  C   UNL     1       6.829   6.347  16.838  0.00  0.00    +0.000 A 
ATOM     10  C   UNL     1       6.784   7.734  16.633  0.00  0.00    +0.000 A 
ATOM     11  C   UNL     1       7.491   8.595  17.471  0.00  0.00    +0.000 A 
BRANCH   6  12
ATOM     12  C   UNL     1       9.045   9.012  19.409  0.00  0.00    +0.000 C 
BRANCH  12  14
ATOM     13  O   UNL     1       9.761  10.647  17.804  0.00  0.00    +0.000 OA
ATOM     14  C   UNL     1       9.223  10.427  18.881  0.00  0.00    +0.000 C 
BRANCH  14  15
ATOM     15  O   UNL     1       8.766  11.429  19.650  0.00  0.00    +0.000 OA
ATOM     16  H   UNL     1       7.920  11.256  20.112  0.00  0.00    +0.000 HD
ENDBRANCH  14  15
ENDBRANCH  12  14
ENDBRANCH   6  12
ENDBRANCH   1   9
BRANCH   5  17
ATOM     17  C   UNL     1       4.300   4.500  17.410  0.00  0.00    +0.000 A 
ATOM     18  C   UNL     1       3.323   5.475  17.648  0.00  0.00    +0.000 A 
ATOM     19  C   UNL     1       2.476   5.383  18.762  0.00  0.00    +0.000 A 
ATOM     20  C   UNL     1       2.574   4.301  19.647  0.00  0.00    +0.000 A 
ATOM     21  C   UNL     1       3.564   3.337  19.424  0.00  0.00    +0.000 A 
ATOM     22  C   UNL     1       4.444   3.470  18.352  0.00  0.00    +0.000 A 
BRANCH  20  23
ATOM     23  C   UNL     1       1.640   4.151  20.820  0.00  0.00    +0.000 C 
ATOM     24  F   UNL     1       0.858   3.041  20.750  0.00  0.00    +0.000 F 
ATOM     25  F   UNL     1       2.306   4.073  22.008  0.00  0.00    +0.000 F 
ATOM     26  F   UNL     1       0.787   5.205  20.935  0.00  0.00    +0.000 F 
ENDBRANCH  20  23
ENDBRANCH   5  17
BRANCH   3  27
ATOM     27  C   UNL     1       6.295   3.759  12.771  0.00  0.00    +0.000 C 
ATOM     28  F   UNL     1       7.277   4.427  12.114  0.00  0.00    +0.000 F 
ATOM     29  F   UNL     1       6.689   2.456  12.840  0.00  0.00    +0.000 F 
ATOM     30  F   UNL     1       5.195   3.781  11.971  0.00  0.00    +0.000 F 
ENDBRANCH   3  27
TORSDOF 7
ENDMDL
MODEL 5
REMARK VINA RESULT:      -8.0      4.231      6.226
REMARK  Name = 
REMARK  7 active torsions:
REMARK  status: ('A' for Active; 'I' for Inactive)
REMARK    1  A    between atoms: C_2  and  O_3
REMARK    2  A    between atoms: C_2  and  C_4
REMARK    3  A    between atoms: C_4  and  C_5
REMARK    4  A    between atoms: C_8  and  N_9
REMARK    5  A    between atoms: C_11  and  C_12
REMARK    6  A    between atoms: C_17  and  C_18
REMARK    7  A    between atoms: C_21  and  C_22
REMARK                            x       y       z     vdW  Elec       q    Type
REMARK                         _______ _______ _______ _____ _____    ______ ____
ROOT
ATOM      1  N   UNL     1       6.193   5.429  15.895  0.00  0.00    +0.000 N 
ATOM      2  N   UNL     1       6.591   5.394  14.596  0.00  0.00    +0.000 NA
ATOM      3  C   UNL     1       6.028   4.283  14.088  0.00  0.00    +0.000 A 
ATOM      4  C   UNL     1       5.110   3.727  15.010  0.00  0.00    +0.000 A 
ATOM      5  C   UNL     1       5.177   4.504  16.154  0.00  0.00    +0.000 A 
ENDROOT
BRANCH   1   9
ATOM      6  C   UNL     1       8.211   8.091  18.492  0.00  0.00    +0.000 A 
ATOM      7  C   UNL     1       8.252   6.706  18.715  0.00  0.00    +0.000 A 
ATOM      8  C   UNL     1       7.562   5.830  17.872  0.00  0.00    +0.000 A 
ATOM      9  C   UNL     1       6.838   6.332  16.788  0.00  0.00    +0.000 A 
ATOM     10  C   UNL     1       6.773   7.718  16.580  0.00  0.00    +0.000 A 
ATOM     11  C   UNL     1       7.468   8.590  17.417  0.00  0.00    +0.000 A 
BRANCH   6  12
ATOM     12  C   UNL     1       9.015   9.034  19.354  0.00  0.00    +0.000 C 
BRANCH  12  14
ATOM     13  O   UNL     1       8.632  11.403  19.348  0.00  0.00    +0.000 OA
ATOM     14  C   UNL     1       9.181  10.447  18.819  0.00  0.00    +0.000 C 
BRANCH  14  15
ATOM     15  O   UNL     1       9.959  10.603  17.734  0.00  0.00    +0.000 OA
ATOM     16  H   UNL     1      10.665   9.934  17.620  0.00  0.00    +0.000 HD
ENDBRANCH  14  15
ENDBRANCH  12  14
ENDBRANCH   6  12
ENDBRANCH   1   9
BRANCH   5  17
ATOM     17  C   UNL     1       4.355   4.427  17.372  0.00  0.00    +0.000 A 
ATOM     18  C   UNL     1       3.498   5.478  17.722  0.00  0.00    +0.000 A 
ATOM     19  C   UNL     1       2.657   5.374  18.838  0.00  0.00    +0.000 A 
ATOM     20  C   UNL     1       2.639   4.207  19.615  0.00  0.00    +0.000 A 
ATOM     21  C   UNL     1       3.511   3.164  19.281  0.00  0.00    +0.000 A 
ATOM     22  C   UNL     1       4.391   3.301  18.208  0.00  0.00    +0.000 A 
BRANCH  20  23
ATOM     23  C   UNL     1       1.705   4.051  20.787  0.00  0.00    +0.000 C 
ATOM     24  F   UNL     1       0.678   4.941  20.781  0.00  0.00    +0.000 F 
ATOM     25  F   UNL     1       1.135   2.812  20.834  0.00  0.00    +0.000 F 
ATOM     26  F   UNL     1       2.342   4.219  21.977  0.00  0.00    +0.000 F 
ENDBRANCH  20  23
ENDBRANCH   5  17
BRANCH   3  27
ATOM     27  C   UNL     1       6.330   3.748  12.714  0.00  0.00    +0.000 C 
ATOM     28  F   UNL     1       6.745   2.454  12.707  0.00  0.00    +0.000 F 
ATOM     29  F   UNL     1       5.231   3.809  11.912  0.00  0.00    +0.000 F 
ATOM     30  F   UNL     1       7.296   4.478  12.094  0.00  0.00    +0.000 F 
ENDBRANCH   3  27
TORSDOF 7
ENDMDL
MODEL 6
REMARK VINA RESULT:      -7.9      4.991      7.549
REMARK  Name = 
REMARK  7 active torsions:
REMARK  status: ('A' for Active; 'I' for Inactive)
REMARK    1  A    between atoms: C_2  and  O_3
REMARK    2  A    between atoms: C_2  and  C_4
REMARK    3  A    between atoms: C_4  and  C_5
REMARK    4  A    between atoms: C_8  and  N_9
REMARK    5  A    between atoms: C_11  and  C_12
REMARK    6  A    between atoms: C_17  and  C_18
REMARK    7  A    between atoms: C_21  and  C_22
REMARK                            x       y       z     vdW  Elec       q    Type
REMARK                         _______ _______ _______ _____ _____    ______ ____
ROOT
ATOM      1  N   UNL     1       3.541   5.139  18.544  0.00  0.00    +0.000 N 
ATOM      2  N   UNL     1       3.440   3.796  18.356  0.00  0.00    +0.000 NA
ATOM      3  C   UNL     1       2.294   3.443  18.964  0.00  0.00    +0.000 A 
ATOM      4  C   UNL     1       1.568   4.592  19.358  0.00  0.00    +0.000 A 
ATOM      5  C   UNL     1       2.351   5.687  19.033  0.00  0.00    +0.000 A 
ENDROOT
BRANCH   1   9
ATOM      6  C   UNL     1       7.182   7.146  17.761  0.00  0.00    +0.000 A 
ATOM      7  C   UNL     1       6.051   7.377  16.961  0.00  0.00    +0.000 A 
ATOM      8  C   UNL     1       4.857   6.693  17.204  0.00  0.00    +0.000 A 
ATOM      9  C   UNL     1       4.779   5.782  18.261  0.00  0.00    +0.000 A 
ATOM     10  C   UNL     1       5.915   5.530  19.044  0.00  0.00    +0.000 A 
ATOM     11  C   UNL     1       7.104   6.219  18.806  0.00  0.00    +0.000 A 
BRANCH   6  12
ATOM     12  C   UNL     1       8.449   7.938  17.549  0.00  0.00    +0.000 C 
BRANCH  12  14
ATOM     13  O   UNL     1       7.979  10.284  17.741  0.00  0.00    +0.000 OA
ATOM     14  C   UNL     1       8.507   9.296  18.231  0.00  0.00    +0.000 C 
BRANCH  14  15
ATOM     15  O   UNL     1       9.166   9.366  19.400  0.00  0.00    +0.000 OA
ATOM     16  H   UNL     1       9.477   8.510  19.763  0.00  0.00    +0.000 HD
ENDBRANCH  14  15
ENDBRANCH  12  14
ENDBRANCH   6  12
ENDBRANCH   1   9
BRANCH   5  17
ATOM     17  C   UNL     1       2.023   7.118  19.130  0.00  0.00    +0.000 A 
ATOM     18  C   UNL     1       1.981   7.920  17.983  0.00  0.00    +0.000 A 
ATOM     19  C   UNL     1       1.593   9.265  18.063  0.00  0.00    +0.000 A 
ATOM     20  C   UNL     1       1.217   9.829  19.290  0.00  0.00    +0.000 A 
ATOM     21  C   UNL     1       1.281   9.036  20.443  0.00  0.00    +0.000 A 
ATOM     22  C   UNL     1       1.729   7.718  20.364  0.00  0.00    +0.000 A 
BRANCH  20  23
ATOM     23  C   UNL     1       0.745  11.256  19.393  0.00  0.00    +0.000 C 
ATOM     24  F   UNL     1       1.057  11.843  20.579  0.00  0.00    +0.000 F 
ATOM     25  F   UNL     1       1.281  12.051  18.423  0.00  0.00    +0.000 F 
ATOM     26  F   UNL     1      -0.605  11.361  19.265  0.00  0.00    +0.000 F 
ENDBRANCH  20  23
ENDBRANCH   5  17
BRANCH   3  27
ATOM     27  C   UNL     1       1.855   2.016  19.155  0.00  0.00    +0.000 C 
ATOM     28  F   UNL     1       0.686   1.711  18.536  0.00  0.00    +0.000 F 
ATOM     29  F   UNL     1       2.789   1.149  18.674  0.00  0.00    +0.000 F 
ATOM     30  F   UNL     1       1.698   1.714  20.472  0.00  0.00    +0.000 F 
ENDBRANCH   3  27
TORSDOF 7
ENDMDL
MODEL 7
REMARK VINA RESULT:      -7.9      4.227      6.240
REMARK  Name = 
REMARK  7 active torsions:
REMARK  status: ('A' for Active; 'I' for Inactive)
REMARK    1  A    between atoms: C_2  and  O_3
REMARK    2  A    between atoms: C_2  and  C_4
REMARK    3  A    between atoms: C_4  and  C_5
REMARK    4  A    between atoms: C_8  and  N_9
REMARK    5  A    between atoms: C_11  and  C_12
REMARK    6  A    between atoms: C_17  and  C_18
REMARK    7  A    between atoms: C_21  and  C_22
REMARK                            x       y       z     vdW  Elec       q    Type
REMARK                         _______ _______ _______ _____ _____    ______ ____
ROOT
ATOM      1  N   UNL     1       6.169   5.400  15.987  0.00  0.00    +0.000 N 
ATOM      2  N   UNL     1       6.484   5.399  14.665  0.00  0.00    +0.000 NA
ATOM      3  C   UNL     1       5.953   4.263  14.180  0.00  0.00    +0.000 A 
ATOM      4  C   UNL     1       5.129   3.647  15.151  0.00  0.00    +0.000 A 
ATOM      5  C   UNL     1       5.226   4.416  16.298  0.00  0.00    +0.000 A 
ENDROOT
BRANCH   1   9
ATOM      6  C   UNL     1       8.199   8.143  18.488  0.00  0.00    +0.000 A 
ATOM      7  C   UNL     1       8.279   6.763  18.728  0.00  0.00    +0.000 A 
ATOM      8  C   UNL     1       7.586   5.859  17.917  0.00  0.00    +0.000 A 
ATOM      9  C   UNL     1       6.819   6.330  16.848  0.00  0.00    +0.000 A 
ATOM     10  C   UNL     1       6.715   7.710  16.624  0.00  0.00    +0.000 A 
ATOM     11  C   UNL     1       7.413   8.610  17.429  0.00  0.00    +0.000 A 
BRANCH   6  12
ATOM     12  C   UNL     1       9.005   9.116  19.313  0.00  0.00    +0.000 C 
BRANCH  12  14
ATOM     13  O   UNL     1       8.577  11.473  19.164  0.00  0.00    +0.000 OA
ATOM     14  C   UNL     1       9.181  10.505  18.722  0.00  0.00    +0.000 C 
BRANCH  14  15
ATOM     15  O   UNL     1      10.029  10.627  17.686  0.00  0.00    +0.000 OA
ATOM     16  H   UNL     1      10.964  10.403  17.876  0.00  0.00    +0.000 HD
ENDBRANCH  14  15
ENDBRANCH  12  14
ENDBRANCH   6  12
ENDBRANCH   1   9
BRANCH   5  17
ATOM     17  C   UNL     1       4.489   4.281  17.565  0.00  0.00    +0.000 A 
ATOM     18  C   UNL     1       3.372   5.083  17.829  0.00  0.00    +0.000 A 
ATOM     19  C   UNL     1       2.622   4.903  19.000  0.00  0.00    +0.000 A 
ATOM     20  C   UNL     1       2.962   3.901  19.920  0.00  0.00    +0.000 A 
ATOM     21  C   UNL     1       4.092   3.113  19.670  0.00  0.00    +0.000 A 
ATOM     22  C   UNL     1       4.869   3.342  18.535  0.00  0.00    +0.000 A 
BRANCH  20  23
ATOM     23  C   UNL     1       2.141   3.653  21.158  0.00  0.00    +0.000 C 
ATOM     24  F   UNL     1       2.422   2.469  21.765  0.00  0.00    +0.000 F 
ATOM     25  F   UNL     1       2.324   4.618  22.105  0.00  0.00    +0.000 F 
ATOM     26  F   UNL     1       0.806   3.633  20.895  0.00  0.00    +0.000 F 
ENDBRANCH  20  23
ENDBRANCH   5  17
BRANCH   3  27
ATOM     27  C   UNL     1       6.196   3.758  12.783  0.00  0.00    +0.000 C 
ATOM     28  F   UNL     1       5.118   3.866  11.963  0.00  0.00    +0.000 F 
ATOM     29  F   UNL     1       7.210   4.443  12.184  0.00  0.00    +0.000 F 
ATOM     30  F   UNL     1       6.567   2.450  12.781  0.00  0.00    +0.000 F 
ENDBRANCH   3  27
TORSDOF 7
ENDMDL
MODEL 8
REMARK VINA RESULT:      -7.9      4.946      7.539
REMARK  Name = 
REMARK  7 active torsions:
REMARK  status: ('A' for Active; 'I' for Inactive)
REMARK    1  A    between atoms: C_2  and  O_3
REMARK    2  A    between atoms: C_2  and  C_4
REMARK    3  A    between atoms: C_4  and  C_5
REMARK    4  A    between atoms: C_8  and  N_9
REMARK    5  A    between atoms: C_11  and  C_12
REMARK    6  A    between atoms: C_17  and  C_18
REMARK    7  A    between atoms: C_21  and  C_22
REMARK                            x       y       z     vdW  Elec       q    Type
REMARK                         _______ _______ _______ _____ _____    ______ ____
ROOT
ATOM      1  N   UNL     1       3.545   5.149  18.590  0.00  0.00    +0.000 N 
ATOM      2  N   UNL     1       3.451   3.803  18.426  0.00  0.00    +0.000 NA
ATOM      3  C   UNL     1       2.308   3.455  19.043  0.00  0.00    +0.000 A 
ATOM      4  C   UNL     1       1.577   4.606  19.420  0.00  0.00    +0.000 A 
ATOM      5  C   UNL     1       2.354   5.699  19.074  0.00  0.00    +0.000 A 
ENDROOT
BRANCH   1   9
ATOM      6  C   UNL     1       7.171   7.164  17.757  0.00  0.00    +0.000 A 
ATOM      7  C   UNL     1       6.047   7.345  16.936  0.00  0.00    +0.000 A 
ATOM      8  C   UNL     1       4.857   6.658  17.196  0.00  0.00    +0.000 A 
ATOM      9  C   UNL     1       4.779   5.794  18.292  0.00  0.00    +0.000 A 
ATOM     10  C   UNL     1       5.909   5.591  19.096  0.00  0.00    +0.000 A 
ATOM     11  C   UNL     1       7.092   6.283  18.840  0.00  0.00    +0.000 A 
BRANCH   6  12
ATOM     12  C   UNL     1       8.431   7.961  17.523  0.00  0.00    +0.000 C 
BRANCH  12  14
ATOM     13  O   UNL     1       8.073  10.322  17.758  0.00  0.00    +0.000 OA
ATOM     14  C   UNL     1       8.518   9.294  18.248  0.00  0.00    +0.000 C 
BRANCH  14  15
ATOM     15  O   UNL     1       9.110   9.298  19.455  0.00  0.00    +0.000 OA
ATOM     16  H   UNL     1       9.444  10.167  19.760  0.00  0.00    +0.000 HD
ENDBRANCH  14  15
ENDBRANCH  12  14
ENDBRANCH   6  12
ENDBRANCH   1   9
BRANCH   5  17
ATOM     17  C   UNL     1       2.019   7.130  19.148  0.00  0.00    +0.000 A 
ATOM     18  C   UNL     1       2.042   7.929  17.998  0.00  0.00    +0.000 A 
ATOM     19  C   UNL     1       1.648   9.273  18.052  0.00  0.00    +0.000 A 
ATOM     20  C   UNL     1       1.200   9.840  19.254  0.00  0.00    +0.000 A 
ATOM     21  C   UNL     1       1.198   9.050  20.410  0.00  0.00    +0.000 A 
ATOM     22  C   UNL     1       1.652   7.733  20.361  0.00  0.00    +0.000 A 
BRANCH  20  23
ATOM     23  C   UNL     1       0.721  11.266  19.326  0.00  0.00    +0.000 C 
ATOM     24  F   UNL     1      -0.263  11.550  18.433  0.00  0.00    +0.000 F 
ATOM     25  F   UNL     1       0.223  11.585  20.555  0.00  0.00    +0.000 F 
ATOM     26  F   UNL     1       1.720  12.157  19.081  0.00  0.00    +0.000 F 
ENDBRANCH  20  23
ENDBRANCH   5  17
BRANCH   3  27
ATOM     27  C   UNL     1       1.878   2.029  19.260  0.00  0.00    +0.000 C 
ATOM     28  F   UNL     1       1.638   1.718  20.560  0.00  0.00    +0.000 F 
ATOM     29  F   UNL     1       0.733   1.753  18.576  0.00  0.00    +0.000 F 
ATOM     30  F   UNL     1       2.813   1.150  18.807  0.00  0.00    +0.000 F 
ENDBRANCH   3  27
TORSDOF 7
ENDMDL
MODEL 9
REMARK VINA RESULT:      -7.9      0.383      1.204
REMARK  Name = 
REMARK  7 active torsions:
REMARK  status: ('A' for Active; 'I' for Inactive)
REMARK    1  A    between atoms: C_2  and  O_3
REMARK    2  A    between atoms: C_2  and  C_4
REMARK    3  A    between atoms: C_4  and  C_5
REMARK    4  A    between atoms: C_8  and  N_9
REMARK    5  A    between atoms: C_11  and  C_12
REMARK    6  A    between atoms: C_17  and  C_18
REMARK    7  A    between atoms: C_21  and  C_22
REMARK                            x       y       z     vdW  Elec       q    Type
REMARK                         _______ _______ _______ _____ _____    ______ ____
ROOT
ATOM      1  N   UNL     1       6.525   5.944  16.483  0.00  0.00    +0.000 N 
ATOM      2  N   UNL     1       7.607   6.766  16.501  0.00  0.00    +0.000 NA
ATOM      3  C   UNL     1       7.397   7.599  17.534  0.00  0.00    +0.000 A 
ATOM      4  C   UNL     1       6.281   7.174  18.294  0.00  0.00    +0.000 A 
ATOM      5  C   UNL     1       5.756   6.071  17.644  0.00  0.00    +0.000 A 
ENDROOT
BRANCH   1   9
ATOM      6  C   UNL     1       5.798   3.584  13.047  0.00  0.00    +0.000 A 
ATOM      7  C   UNL     1       4.872   3.617  14.101  0.00  0.00    +0.000 A 
ATOM      8  C   UNL     1       5.126   4.376  15.248  0.00  0.00    +0.000 A 
ATOM      9  C   UNL     1       6.304   5.122  15.342  0.00  0.00    +0.000 A 
ATOM     10  C   UNL     1       7.243   5.068  14.301  0.00  0.00    +0.000 A 
ATOM     11  C   UNL     1       6.985   4.318  13.155  0.00  0.00    +0.000 A 
BRANCH   6  12
ATOM     12  C   UNL     1       5.493   2.828  11.777  0.00  0.00    +0.000 C 
BRANCH  12  14
ATOM     13  O   UNL     1       7.617   1.989  11.039  0.00  0.00    +0.000 OA
ATOM     14  C   UNL     1       6.478   1.732  11.403  0.00  0.00    +0.000 C 
BRANCH  14  15
ATOM     15  O   UNL     1       6.043   0.463  11.486  0.00  0.00    +0.000 OA
ATOM     16  H   UNL     1       5.831   0.147  12.389  0.00  0.00    +0.000 HD
ENDBRANCH  14  15
ENDBRANCH  12  14
ENDBRANCH   6  12
ENDBRANCH   1   9
BRANCH   5  17
ATOM     17  C   UNL     1       4.661   5.184  18.068  0.00  0.00    +0.000 A 
ATOM     18  C   UNL     1       3.325   5.574  17.910  0.00  0.00    +0.000 A 
ATOM     19  C   UNL     1       2.280   4.701  18.240  0.00  0.00    +0.000 A 
ATOM     20  C   UNL     1       2.550   3.409  18.714  0.00  0.00    +0.000 A 
ATOM     21  C   UNL     1       3.884   3.025  18.895  0.00  0.00    +0.000 A 
ATOM     22  C   UNL     1       4.916   3.922  18.625  0.00  0.00    +0.000 A 
BRANCH  20  23
ATOM     23  C   UNL     1       1.445   2.433  19.025  0.00  0.00    +0.000 C 
ATOM     24  F   UNL     1       0.401   2.505  18.157  0.00  0.00    +0.000 F 
ATOM     25  F   UNL     1       1.873   1.138  18.998  0.00  0.00    +0.000 F 
ATOM     26  F   UNL     1       0.918   2.630  20.263  0.00  0.00    +0.000 F 
ENDBRANCH  20  23
ENDBRANCH   5  17
BRANCH   3  27
ATOM     27  C   UNL     1       8.263   8.793  17.834  0.00  0.00    +0.000 C 
ATOM     28  F   UNL     1       8.972   8.684  18.986  0.00  0.00    +0.000 F 
ATOM     29  F   UNL     1       9.168   9.003  16.838  0.00  0.00    +0.000 F 
ATOM     30  F   UNL     1       7.528   9.934  17.927  0.00  0.00    +0.000 F 
ENDBRANCH   3  27
TORSDOF 7
ENDMDL
