MODEL 1
REMARK VINA RESULT:      -8.0      0.000      0.000
REMARK  Name = 
REMARK  5 active torsions:
REMARK  status: ('A' for Active; 'I' for Inactive)
REMARK    1  A    between atoms: C_1  and  N_2
REMARK    2  A    between atoms: N_7  and  C_8
REMARK    3  A    between atoms: C_11  and  C_12
REMARK    4  A    between atoms: C_11  and  C_16
REMARK    5  A    between atoms: C_21  and  C_22
REMARK                            x       y       z     vdW  Elec       q    Type
REMARK                         _______ _______ _______ _____ _____    ______ ____
ROOT
ATOM      1  C   UNL     1       5.186   7.879  16.614  0.00  0.00    +0.000 C 
ATOM      2  N   UNL     1       4.851   6.485  16.881  0.00  0.00    +0.000 N 
ATOM      3  C   UNL     1       3.874   6.147  17.799  0.00  0.00    +0.000 A 
ATOM      4  C   UNL     1       3.585   4.863  18.035  0.00  0.00    +0.000 A 
ATOM      5  C   UNL     1       4.290   3.823  17.274  0.00  0.00    +0.000 A 
ATOM      6  O   UNL     1       3.952   2.654  17.463  0.00  0.00    +0.000 OA
ATOM      7  N   UNL     1       5.260   4.218  16.391  0.00  0.00    +0.000 N 
ATOM      8  C   UNL     1       5.973   3.208  15.621  0.00  0.00    +0.000 C 
ATOM      9  C   UNL     1       5.575   5.542  16.151  0.00  0.00    +0.000 A 
ATOM     10  O   UNL     1       6.440   5.871  15.336  0.00  0.00    +0.000 OA
ATOM     11  C   UNL     1       2.537   4.399  19.032  0.00  0.00    +0.000 C 
ATOM     12  N   UNL     1       2.026   5.625  19.728  0.00  0.00    +0.000 N 
ATOM     13  C   UNL     1       2.356   6.897  19.355  0.00  0.00    +0.000 C 
ATOM     14  N   UNL     1       3.219   7.172  18.438  0.00  0.00    +0.000 NA
ATOM     15  H   UNL     1       1.222   5.474  20.333  0.00  0.00    +0.000 HD
ENDROOT
BRANCH  13  16
ATOM     16  C   UNL     1       1.685   8.014  20.085  0.00  0.00    +0.000 A 
ATOM     17  C   UNL     1       1.313   9.178  19.397  0.00  0.00    +0.000 A 
ATOM     18  C   UNL     1       0.638  10.197  20.071  0.00  0.00    +0.000 A 
ATOM     19  C   UNL     1       0.351  10.054  21.426  0.00  0.00    +0.000 A 
ATOM     20 CL   UNL     1      -0.481  11.311  22.256  0.00  0.00    +0.000 Cl
ATOM     21  C   UNL     1       0.731   8.906  22.119  0.00  0.00    +0.000 A 
ATOM     22  C   UNL     1       1.399   7.879  21.446  0.00  0.00    +0.000 A 
ENDBRANCH  13  16
BRANCH  11  23
ATOM     23  C   UNL     1       1.350   3.695  18.338  0.00  0.00    +0.000 C 
ATOM     24  F   UNL     1       0.854   4.376  17.278  0.00  0.00    +0.000 F 
ATOM     25  F   UNL     1       1.593   2.443  17.921  0.00  0.00    +0.000 F 
ATOM     26  F   UNL     1       0.308   3.580  19.216  0.00  0.00    +0.000 F 
ENDBRANCH  11  23
BRANCH  11  27
ATOM     27  C   UNL     1       3.111   3.460  20.121  0.00  0.00    +0.000 C 
ATOM     28  F   UNL     1       4.459   3.541  20.209  0.00  0.00    +0.000 F 
ATOM     29  F   UNL     1       2.651   3.840  21.355  0.00  0.00    +0.000 F 
ATOM     30  F   UNL     1       2.799   2.155  20.037  0.00  0.00    +0.000 F 
ENDBRANCH  11  27
TORSDOF 3
ENDMDL
MODEL 2
REMARK VINA RESULT:      -7.9      0.071      1.131
REMARK  Name = 
REMARK  5 active torsions:
REMARK  status: ('A' for Active; 'I' for Inactive)
REMARK    1  A    between atoms: C_1  and  N_2
REMARK    2  A    between atoms: N_7  and  C_8
REMARK    3  A    between atoms: C_11  and  C_12
REMARK    4  A    between atoms: C_11  and  C_16
REMARK    5  A    between atoms: C_21  and  C_22
REMARK                            x       y       z     vdW  Elec       q    Type
REMARK                         _______ _______ _______ _____ _____    ______ ____
ROOT
ATOM      1  C   UNL     1       5.121   7.892  16.625  0.00  0.00    +0.000 C 
ATOM      2  N   UNL     1       4.813   6.493  16.896  0.00  0.00    +0.000 N 
ATOM      3  C   UNL     1       3.838   6.138  17.810  0.00  0.00    +0.000 A 
ATOM      4  C   UNL     1       3.574   4.850  18.050  0.00  0.00    +0.000 A 
ATOM      5  C   UNL     1       4.304   3.821  17.297  0.00  0.00    +0.000 A 
ATOM      6  O   UNL     1       3.989   2.646  17.490  0.00  0.00    +0.000 OA
ATOM      7  N   UNL     1       5.271   4.233  16.418  0.00  0.00    +0.000 N 
ATOM      8  C   UNL     1       6.008   3.234  15.656  0.00  0.00    +0.000 C 
ATOM      9  C   UNL     1       5.560   5.562  16.174  0.00  0.00    +0.000 A 
ATOM     10  O   UNL     1       6.423   5.905  15.362  0.00  0.00    +0.000 OA
ATOM     11  C   UNL     1       2.530   4.369  19.044  0.00  0.00    +0.000 C 
ATOM     12  N   UNL     1       1.991   5.587  19.732  0.00  0.00    +0.000 N 
ATOM     13  C   UNL     1       2.297   6.864  19.355  0.00  0.00    +0.000 C 
ATOM     14  N   UNL     1       3.159   7.153  18.442  0.00  0.00    +0.000 NA
ATOM     15  H   UNL     1       1.187   5.422  20.333  0.00  0.00    +0.000 HD
ENDROOT
BRANCH  13  16
ATOM     16  C   UNL     1       1.599   7.970  20.077  0.00  0.00    +0.000 A 
ATOM     17  C   UNL     1       1.302   7.838  21.442  0.00  0.00    +0.000 A 
ATOM     18  C   UNL     1       0.699   8.894  22.126  0.00  0.00    +0.000 A 
ATOM     19  C   UNL     1       0.384  10.067  21.443  0.00  0.00    +0.000 A 
ATOM     20 CL   UNL     1      -0.360  11.368  22.287  0.00  0.00    +0.000 Cl
ATOM     21  C   UNL     1       0.664  10.198  20.084  0.00  0.00    +0.000 A 
ATOM     22  C   UNL     1       1.277   9.146  19.397  0.00  0.00    +0.000 A 
ENDBRANCH  13  16
BRANCH  11  23
ATOM     23  C   UNL     1       1.362   3.638  18.347  0.00  0.00    +0.000 C 
ATOM     24  F   UNL     1       1.707   2.445  17.807  0.00  0.00    +0.000 F 
ATOM     25  F   UNL     1       0.283   3.422  19.115  0.00  0.00    +0.000 F 
ATOM     26  F   UNL     1       0.909   4.392  17.301  0.00  0.00    +0.000 F 
ENDBRANCH  11  23
BRANCH  11  27
ATOM     27  C   UNL     1       3.118   3.446  20.140  0.00  0.00    +0.000 C 
ATOM     28  F   UNL     1       4.466   3.540  20.221  0.00  0.00    +0.000 F 
ATOM     29  F   UNL     1       2.660   3.835  21.371  0.00  0.00    +0.000 F 
ATOM     30  F   UNL     1       2.817   2.138  20.071  0.00  0.00    +0.000 F 
ENDBRANCH  11  27
TORSDOF 3
ENDMDL
MODEL 3
REMARK VINA RESULT:      -7.5      9.196     10.864
REMARK  Name = 
REMARK  5 active torsions:
REMARK  status: ('A' for Active; 'I' for Inactive)
REMARK    1  A    between atoms: C_1  and  N_2
REMARK    2  A    between atoms: N_7  and  C_8
REMARK    3  A    between atoms: C_11  and  C_12
REMARK    4  A    between atoms: C_11  and  C_16
REMARK    5  A    between atoms: C_21  and  C_22
REMARK                            x       y       z     vdW  Elec       q    Type
REMARK                         _______ _______ _______ _____ _____    ______ ____
ROOT
ATOM      1  C   UNL     1       7.734  16.956  20.465  0.00  0.00    +0.000 C 
ATOM      2  N   UNL     1       8.598  16.119  19.642  0.00  0.00    +0.000 N 
ATOM      3  C   UNL     1       8.864  14.806  19.988  0.00  0.00    +0.000 A 
ATOM      4  C   UNL     1       9.664  14.056  19.225  0.00  0.00    +0.000 A 
ATOM      5  C   UNL     1      10.219  14.632  17.993  0.00  0.00    +0.000 A 
ATOM      6  O   UNL     1      10.896  13.894  17.275  0.00  0.00    +0.000 OA
ATOM      7  N   UNL     1       9.935  15.942  17.712  0.00  0.00    +0.000 N 
ATOM      8  C   UNL     1      10.471  16.539  16.496  0.00  0.00    +0.000 C 
ATOM      9  C   UNL     1       9.121  16.730  18.503  0.00  0.00    +0.000 A 
ATOM     10  O   UNL     1       8.866  17.903  18.215  0.00  0.00    +0.000 OA
ATOM     11  C   UNL     1      10.020  12.611  19.533  0.00  0.00    +0.000 C 
ATOM     12  N   UNL     1       9.406  12.286  20.862  0.00  0.00    +0.000 N 
ATOM     13  C   UNL     1       8.553  13.123  21.524  0.00  0.00    +0.000 C 
ATOM     14  N   UNL     1       8.270  14.316  21.127  0.00  0.00    +0.000 NA
ATOM     15  H   UNL     1       9.456  11.307  21.132  0.00  0.00    +0.000 HD
ENDROOT
BRANCH  13  16
ATOM     16  C   UNL     1       7.948  12.612  22.790  0.00  0.00    +0.000 A 
ATOM     17  C   UNL     1       6.572  12.348  22.853  0.00  0.00    +0.000 A 
ATOM     18  C   UNL     1       6.019  11.819  24.020  0.00  0.00    +0.000 A 
ATOM     19  C   UNL     1       6.839  11.571  25.119  0.00  0.00    +0.000 A 
ATOM     20 CL   UNL     1       6.156  10.920  26.558  0.00  0.00    +0.000 Cl
ATOM     21  C   UNL     1       8.204  11.845  25.067  0.00  0.00    +0.000 A 
ATOM     22  C   UNL     1       8.763  12.365  23.897  0.00  0.00    +0.000 A 
ENDBRANCH  13  16
BRANCH  11  23
ATOM     23  C   UNL     1       9.452  11.638  18.477  0.00  0.00    +0.000 C 
ATOM     24  F   UNL     1       8.364  12.112  17.825  0.00  0.00    +0.000 F 
ATOM     25  F   UNL     1      10.326  11.238  17.540  0.00  0.00    +0.000 F 
ATOM     26  F   UNL     1       9.037  10.488  19.089  0.00  0.00    +0.000 F 
ENDBRANCH  11  23
BRANCH  11  27
ATOM     27  C   UNL     1      11.545  12.378  19.663  0.00  0.00    +0.000 C 
ATOM     28  F   UNL     1      12.216  13.519  19.940  0.00  0.00    +0.000 F 
ATOM     29  F   UNL     1      11.801  11.548  20.724  0.00  0.00    +0.000 F 
ATOM     30  F   UNL     1      12.170  11.794  18.626  0.00  0.00    +0.000 F 
ENDBRANCH  11  27
TORSDOF 3
ENDMDL
MODEL 4
REMARK VINA RESULT:      -7.4      3.515      6.379
REMARK  Name = 
REMARK  5 active torsions:
REMARK  status: ('A' for Active; 'I' for Inactive)
REMARK    1  A    between atoms: C_1  and  N_2
REMARK    2  A    between atoms: N_7  and  C_8
REMARK    3  A    between atoms: C_11  and  C_12
REMARK    4  A    between atoms: C_11  and  C_16
REMARK    5  A    between atoms: C_21  and  C_22
REMARK                            x       y       z     vdW  Elec       q    Type
REMARK                         _______ _______ _______ _____ _____    ______ ____
ROOT
ATOM      1  C   UNL     1       3.271   8.536  17.514  0.00  0.00    +0.000 C 
ATOM      2  N   UNL     1       2.866   7.417  18.357  0.00  0.00    +0.000 N 
ATOM      3  C   UNL     1       3.266   6.124  18.073  0.00  0.00    +0.000 A 
ATOM      4  C   UNL     1       2.879   5.111  18.853  0.00  0.00    +0.000 A 
ATOM      5  C   UNL     1       2.059   5.397  20.039  0.00  0.00    +0.000 A 
ATOM      6  O   UNL     1       1.778   4.451  20.775  0.00  0.00    +0.000 OA
ATOM      7  N   UNL     1       1.679   6.694  20.258  0.00  0.00    +0.000 N 
ATOM      8  C   UNL     1       0.869   7.007  21.427  0.00  0.00    +0.000 C 
ATOM      9  C   UNL     1       2.063   7.746  19.449  0.00  0.00    +0.000 A 
ATOM     10  O   UNL     1       1.722   8.909  19.682  0.00  0.00    +0.000 OA
ATOM     11  C   UNL     1       3.261   3.660  18.611  0.00  0.00    +0.000 C 
ATOM     12  N   UNL     1       4.018   3.620  17.317  0.00  0.00    +0.000 N 
ATOM     13  C   UNL     1       4.407   4.738  16.636  0.00  0.00    +0.000 C 
ATOM     14  N   UNL     1       4.075   5.935  16.977  0.00  0.00    +0.000 NA
ATOM     15  H   UNL     1       4.448   2.725  17.098  0.00  0.00    +0.000 HD
ENDROOT
BRANCH  13  16
ATOM     16  C   UNL     1       5.241   4.531  15.414  0.00  0.00    +0.000 A 
ATOM     17  C   UNL     1       4.737   3.782  14.340  0.00  0.00    +0.000 A 
ATOM     18  C   UNL     1       5.497   3.636  13.179  0.00  0.00    +0.000 A 
ATOM     19  C   UNL     1       6.757   4.226  13.101  0.00  0.00    +0.000 A 
ATOM     20 CL   UNL     1       7.693   4.045  11.669  0.00  0.00    +0.000 Cl
ATOM     21  C   UNL     1       7.268   4.959  14.170  0.00  0.00    +0.000 A 
ATOM     22  C   UNL     1       6.506   5.116  15.331  0.00  0.00    +0.000 A 
ENDBRANCH  13  16
BRANCH  11  23
ATOM     23  C   UNL     1       4.170   3.107  19.731  0.00  0.00    +0.000 C 
ATOM     24  F   UNL     1       5.235   3.894  20.010  0.00  0.00    +0.000 F 
ATOM     25  F   UNL     1       3.553   2.857  20.896  0.00  0.00    +0.000 F 
ATOM     26  F   UNL     1       4.696   1.906  19.343  0.00  0.00    +0.000 F 
ENDBRANCH  11  23
BRANCH  11  27
ATOM     27  C   UNL     1       2.034   2.729  18.454  0.00  0.00    +0.000 C 
ATOM     28  F   UNL     1       0.925   3.403  18.072  0.00  0.00    +0.000 F 
ATOM     29  F   UNL     1       2.262   1.822  17.452  0.00  0.00    +0.000 F 
ATOM     30  F   UNL     1       1.692   1.975  19.513  0.00  0.00    +0.000 F 
ENDBRANCH  11  27
TORSDOF 3
ENDMDL
MODEL 5
REMARK VINA RESULT:      -7.2      2.543      4.310
REMARK  Name = 
REMARK  5 active torsions:
REMARK  status: ('A' for Active; 'I' for Inactive)
REMARK    1  A    between atoms: C_1  and  N_2
REMARK    2  A    between atoms: N_7  and  C_8
REMARK    3  A    between atoms: C_11  and  C_12
REMARK    4  A    between atoms: C_11  and  C_16
REMARK    5  A    between atoms: C_21  and  C_22
REMARK                            x       y       z     vdW  Elec       q    Type
REMARK                         _______ _______ _______ _____ _____    ______ ____
ROOT
ATOM      1  C   UNL     1       0.755   3.934  19.847  0.00  0.00    +0.000 C 
ATOM      2  N   UNL     1       2.031   3.781  19.158  0.00  0.00    +0.000 N 
ATOM      3  C   UNL     1       2.742   4.882  18.715  0.00  0.00    +0.000 A 
ATOM      4  C   UNL     1       3.906   4.722  18.079  0.00  0.00    +0.000 A 
ATOM      5  C   UNL     1       4.438   3.364  17.896  0.00  0.00    +0.000 A 
ATOM      6  O   UNL     1       5.546   3.255  17.369  0.00  0.00    +0.000 OA
ATOM      7  N   UNL     1       3.681   2.313  18.339  0.00  0.00    +0.000 N 
ATOM      8  C   UNL     1       4.184   0.956  18.174  0.00  0.00    +0.000 C 
ATOM      9  C   UNL     1       2.469   2.468  18.986  0.00  0.00    +0.000 A 
ATOM     10  O   UNL     1       1.816   1.503  19.393  0.00  0.00    +0.000 OA
ATOM     11  C   UNL     1       4.749   5.870  17.549  0.00  0.00    +0.000 C 
ATOM     12  N   UNL     1       3.965   7.127  17.782  0.00  0.00    +0.000 N 
ATOM     13  C   UNL     1       2.805   7.171  18.502  0.00  0.00    +0.000 C 
ATOM     14  N   UNL     1       2.211   6.125  18.964  0.00  0.00    +0.000 NA
ATOM     15  H   UNL     1       4.468   7.990  17.593  0.00  0.00    +0.000 HD
ENDROOT
BRANCH  13  16
ATOM     16  C   UNL     1       2.197   8.516  18.728  0.00  0.00    +0.000 A 
ATOM     17  C   UNL     1       2.385   9.538  17.785  0.00  0.00    +0.000 A 
ATOM     18  C   UNL     1       1.771  10.777  17.973  0.00  0.00    +0.000 A 
ATOM     19  C   UNL     1       0.986  10.992  19.104  0.00  0.00    +0.000 A 
ATOM     20 CL   UNL     1       0.230  12.521  19.335  0.00  0.00    +0.000 Cl
ATOM     21  C   UNL     1       0.807   9.986  20.050  0.00  0.00    +0.000 A 
ATOM     22  C   UNL     1       1.412   8.740  19.861  0.00  0.00    +0.000 A 
ENDBRANCH  13  16
BRANCH  11  23
ATOM     23  C   UNL     1       6.099   5.987  18.289  0.00  0.00    +0.000 C 
ATOM     24  F   UNL     1       6.010   5.784  19.625  0.00  0.00    +0.000 F 
ATOM     25  F   UNL     1       7.071   5.181  17.835  0.00  0.00    +0.000 F 
ATOM     26  F   UNL     1       6.592   7.254  18.147  0.00  0.00    +0.000 F 
ENDBRANCH  11  23
BRANCH  11  27
ATOM     27  C   UNL     1       5.017   5.773  16.027  0.00  0.00    +0.000 C 
ATOM     28  F   UNL     1       4.281   4.802  15.438  0.00  0.00    +0.000 F 
ATOM     29  F   UNL     1       4.631   6.934  15.410  0.00  0.00    +0.000 F 
ATOM     30  F   UNL     1       6.291   5.595  15.635  0.00  0.00    +0.000 F 
ENDBRANCH  11  27
TORSDOF 3
ENDMDL
MODEL 6
REMARK VINA RESULT:      -7.2      0.893      1.184
REMARK  Name = 
REMARK  5 active torsions:
REMARK  status: ('A' for Active; 'I' for Inactive)
REMARK    1  A    between atoms: C_1  and  N_2
REMARK    2  A    between atoms: N_7  and  C_8
REMARK    3  A    between atoms: C_11  and  C_12
REMARK    4  A    between atoms: C_11  and  C_16
REMARK    5  A    between atoms: C_21  and  C_22
REMARK                            x       y       z     vdW  Elec       q    Type
REMARK                         _______ _______ _______ _____ _____    ______ ____
ROOT
ATOM      1  C   UNL     1       4.630   7.994  17.128  0.00  0.00    +0.000 C 
ATOM      2  N   UNL     1       4.433   6.558  17.287  0.00  0.00    +0.000 N 
ATOM      3  C   UNL     1       3.540   6.057  18.217  0.00  0.00    +0.000 A 
ATOM      4  C   UNL     1       3.379   4.737  18.353  0.00  0.00    +0.000 A 
ATOM      5  C   UNL     1       4.131   3.832  17.473  0.00  0.00    +0.000 A 
ATOM      6  O   UNL     1       3.908   2.625  17.576  0.00  0.00    +0.000 OA
ATOM      7  N   UNL     1       5.013   4.387  16.585  0.00  0.00    +0.000 N 
ATOM      8  C   UNL     1       5.771   3.513  15.698  0.00  0.00    +0.000 C 
ATOM      9  C   UNL     1       5.198   5.749  16.447  0.00  0.00    +0.000 A 
ATOM     10  O   UNL     1       5.986   6.223  15.624  0.00  0.00    +0.000 OA
ATOM     11  C   UNL     1       2.430   4.098  19.353  0.00  0.00    +0.000 C 
ATOM     12  N   UNL     1       1.851   5.210  20.175  0.00  0.00    +0.000 N 
ATOM     13  C   UNL     1       2.047   6.533  19.899  0.00  0.00    +0.000 C 
ATOM     14  N   UNL     1       2.832   6.961  18.972  0.00  0.00    +0.000 NA
ATOM     15  H   UNL     1       1.097   4.936  20.801  0.00  0.00    +0.000 HD
ENDROOT
BRANCH  13  16
ATOM     16  C   UNL     1       1.320   7.520  20.754  0.00  0.00    +0.000 A 
ATOM     17  C   UNL     1      -0.081   7.507  20.800  0.00  0.00    +0.000 A 
ATOM     18  C   UNL     1      -0.756   8.394  21.641  0.00  0.00    +0.000 A 
ATOM     19  C   UNL     1      -0.029   9.295  22.417  0.00  0.00    +0.000 A 
ATOM     20 CL   UNL     1      -0.861  10.388  23.452  0.00  0.00    +0.000 Cl
ATOM     21  C   UNL     1       1.363   9.321  22.364  0.00  0.00    +0.000 A 
ATOM     22  C   UNL     1       2.043   8.427  21.531  0.00  0.00    +0.000 A 
ENDBRANCH  13  16
BRANCH  11  23
ATOM     23  C   UNL     1       1.275   3.347  18.656  0.00  0.00    +0.000 C 
ATOM     24  F   UNL     1       0.753   4.008  17.596  0.00  0.00    +0.000 F 
ATOM     25  F   UNL     1       1.570   2.107  18.237  0.00  0.00    +0.000 F 
ATOM     26  F   UNL     1       0.237   3.187  19.532  0.00  0.00    +0.000 F 
ENDBRANCH  11  23
BRANCH  11  27
ATOM     27  C   UNL     1       3.142   3.129  20.329  0.00  0.00    +0.000 C 
ATOM     28  F   UNL     1       2.718   3.284  21.605  0.00  0.00    +0.000 F 
ATOM     29  F   UNL     1       2.834   1.833  20.007  0.00  0.00    +0.000 F 
ATOM     30  F   UNL     1       4.486   3.156  20.354  0.00  0.00    +0.000 F 
ENDBRANCH  11  27
TORSDOF 3
ENDMDL
MODEL 7
REMARK VINA RESULT:      -7.1      2.565      4.378
REMARK  Name = 
REMARK  5 active torsions:
REMARK  status: ('A' for Active; 'I' for Inactive)
REMARK    1  A    between atoms: C_1  and  N_2
REMARK    2  A    between atoms: N_7  and  C_8
REMARK    3  A    between atoms: C_11  and  C_12
REMARK    4  A    between atoms: C_11  and  C_16
REMARK    5  A    between atoms: C_21  and  C_22
REMARK                            x       y       z     vdW  Elec       q    Type
REMARK                         _______ _______ _______ _____ _____    ______ ____
ROOT
ATOM      1  C   UNL     1       0.750   3.928  19.812  0.00  0.00    +0.000 C 
ATOM      2  N   UNL     1       2.024   3.790  19.116  0.00  0.00    +0.000 N 
ATOM      3  C   UNL     1       2.723   4.899  18.675  0.00  0.00    +0.000 A 
ATOM      4  C   UNL     1       3.886   4.752  18.033  0.00  0.00    +0.000 A 
ATOM      5  C   UNL     1       4.429   3.401  17.842  0.00  0.00    +0.000 A 
ATOM      6  O   UNL     1       5.535   3.304  17.309  0.00  0.00    +0.000 OA
ATOM      7  N   UNL     1       3.683   2.341  18.284  0.00  0.00    +0.000 N 
ATOM      8  C   UNL     1       4.199   0.989  18.110  0.00  0.00    +0.000 C 
ATOM      9  C   UNL     1       2.473   2.482  18.936  0.00  0.00    +0.000 A 
ATOM     10  O   UNL     1       1.831   1.510  19.342  0.00  0.00    +0.000 OA
ATOM     11  C   UNL     1       4.715   5.911  17.504  0.00  0.00    +0.000 C 
ATOM     12  N   UNL     1       3.921   7.160  17.746  0.00  0.00    +0.000 N 
ATOM     13  C   UNL     1       2.764   7.189  18.471  0.00  0.00    +0.000 C 
ATOM     14  N   UNL     1       2.182   6.136  18.932  0.00  0.00    +0.000 NA
ATOM     15  H   UNL     1       4.415   8.028  17.558  0.00  0.00    +0.000 HD
ENDROOT
BRANCH  13  16
ATOM     16  C   UNL     1       2.144   8.528  18.706  0.00  0.00    +0.000 A 
ATOM     17  C   UNL     1       1.389   8.757  19.866  0.00  0.00    +0.000 A 
ATOM     18  C   UNL     1       0.858  10.025  20.108  0.00  0.00    +0.000 A 
ATOM     19  C   UNL     1       1.071  11.049  19.188  0.00  0.00    +0.000 A 
ATOM     20 CL   UNL     1       0.414  12.610  19.488  0.00  0.00    +0.000 Cl
ATOM     21  C   UNL     1       1.808  10.823  18.028  0.00  0.00    +0.000 A 
ATOM     22  C   UNL     1       2.351   9.558  17.786  0.00  0.00    +0.000 A 
ENDBRANCH  13  16
BRANCH  11  23
ATOM     23  C   UNL     1       6.067   6.037  18.238  0.00  0.00    +0.000 C 
ATOM     24  F   UNL     1       5.987   5.824  19.573  0.00  0.00    +0.000 F 
ATOM     25  F   UNL     1       7.046   5.245  17.774  0.00  0.00    +0.000 F 
ATOM     26  F   UNL     1       6.547   7.310  18.102  0.00  0.00    +0.000 F 
ENDBRANCH  11  23
BRANCH  11  27
ATOM     27  C   UNL     1       4.977   5.822  15.981  0.00  0.00    +0.000 C 
ATOM     28  F   UNL     1       4.643   6.964  15.335  0.00  0.00    +0.000 F 
ATOM     29  F   UNL     1       6.318   5.662  15.747  0.00  0.00    +0.000 F 
ATOM     30  F   UNL     1       4.400   4.808  15.313  0.00  0.00    +0.000 F 
ENDBRANCH  11  27
TORSDOF 3
ENDMDL
MODEL 8
REMARK VINA RESULT:      -6.8      6.234      8.804
REMARK  Name = 
REMARK  5 active torsions:
REMARK  status: ('A' for Active; 'I' for Inactive)
REMARK    1  A    between atoms: C_1  and  N_2
REMARK    2  A    between atoms: N_7  and  C_8
REMARK    3  A    between atoms: C_11  and  C_12
REMARK    4  A    between atoms: C_11  and  C_16
REMARK    5  A    between atoms: C_21  and  C_22
REMARK                            x       y       z     vdW  Elec       q    Type
REMARK                         _______ _______ _______ _____ _____    ______ ____
ROOT
ATOM      1  C   UNL     1       3.332  13.640  18.149  0.00  0.00    +0.000 C 
ATOM      2  N   UNL     1       1.961  13.805  18.616  0.00  0.00    +0.000 N 
ATOM      3  C   UNL     1       1.187  12.714  18.966  0.00  0.00    +0.000 A 
ATOM      4  C   UNL     1      -0.069  12.885  19.386  0.00  0.00    +0.000 A 
ATOM      5  C   UNL     1      -0.600  14.249  19.511  0.00  0.00    +0.000 A 
ATOM      6  O   UNL     1      -1.737  14.376  19.966  0.00  0.00    +0.000 OA
ATOM      7  N   UNL     1       0.206  15.289  19.132  0.00  0.00    +0.000 N 
ATOM      8  C   UNL     1      -0.293  16.652  19.247  0.00  0.00    +0.000 C 
ATOM      9  C   UNL     1       1.503  15.121  18.683  0.00  0.00    +0.000 A 
ATOM     10  O   UNL     1       2.215  16.078  18.367  0.00  0.00    +0.000 OA
ATOM     11  C   UNL     1      -0.995  11.745  19.780  0.00  0.00    +0.000 C 
ATOM     12  N   UNL     1      -0.260  10.470  19.492  0.00  0.00    +0.000 N 
ATOM     13  C   UNL     1       1.053  10.423  19.118  0.00  0.00    +0.000 C 
ATOM     14  N   UNL     1       1.764  11.469  18.874  0.00  0.00    +0.000 NA
ATOM     15  H   UNL     1      -0.714   9.625  19.831  0.00  0.00    +0.000 HD
ENDROOT
BRANCH  13  16
ATOM     16  C   UNL     1       1.667   9.070  18.965  0.00  0.00    +0.000 A 
ATOM     17  C   UNL     1       2.288   8.715  17.759  0.00  0.00    +0.000 A 
ATOM     18  C   UNL     1       2.907   7.470  17.638  0.00  0.00    +0.000 A 
ATOM     19  C   UNL     1       2.892   6.585  18.714  0.00  0.00    +0.000 A 
ATOM     20 CL   UNL     1       3.656   5.051  18.563  0.00  0.00    +0.000 Cl
ATOM     21  C   UNL     1       2.264   6.928  19.909  0.00  0.00    +0.000 A 
ATOM     22  C   UNL     1       1.651   8.177  20.039  0.00  0.00    +0.000 A 
ENDBRANCH  13  16
BRANCH  11  23
ATOM     23  C   UNL     1      -1.349  11.781  21.283  0.00  0.00    +0.000 C 
ATOM     24  F   UNL     1      -0.523  12.560  22.021  0.00  0.00    +0.000 F 
ATOM     25  F   UNL     1      -2.604  12.164  21.565  0.00  0.00    +0.000 F 
ATOM     26  F   UNL     1      -1.234  10.526  21.812  0.00  0.00    +0.000 F 
ENDBRANCH  11  23
BRANCH  11  27
ATOM     27  C   UNL     1      -2.305  11.716  18.956  0.00  0.00    +0.000 C 
ATOM     28  F   UNL     1      -2.140  12.225  17.713  0.00  0.00    +0.000 F 
ATOM     29  F   UNL     1      -2.703  10.419  18.759  0.00  0.00    +0.000 F 
ATOM     30  F   UNL     1      -3.383  12.317  19.489  0.00  0.00    +0.000 F 
ENDBRANCH  11  27
TORSDOF 3
ENDMDL
