MODEL 1
REMARK VINA RESULT:      -7.1      0.000      0.000
REMARK  Name = 
REMARK  8 active torsions:
REMARK  status: ('A' for Active; 'I' for Inactive)
REMARK    1  A    between atoms: C_1  and  C_2
REMARK    2  A    between atoms: C_2  and  O_4
REMARK    3  A    between atoms: O_4  and  C_5
REMARK    4  A    between atoms: C_5  and  C_6
REMARK    5  A    between atoms: C_7  and  C_8
REMARK    6  A    between atoms: C_8  and  O_10
REMARK    7  A    between atoms: C_14  and  N_15
REMARK    8  A    between atoms: N_15  and  O_16
REMARK                            x       y       z     vdW  Elec       q    Type
REMARK                         _______ _______ _______ _____ _____    ______ ____
ROOT
ATOM      1  C   UNL     1       4.412   6.307  17.099  0.00  0.00    +0.000 C 
ATOM      2  C   UNL     1       4.359   4.964  16.874  0.00  0.00    +0.000 C 
ATOM      3  N   UNL     1       3.312   4.222  17.370  0.00  0.00    +0.000 N 
ATOM      4  C   UNL     1       3.282   3.038  18.029  0.00  0.00    +0.000 C 
ATOM      5  O   UNL     1       4.129   2.185  18.145  0.00  0.00    +0.000 OA
ATOM      6  C   UNL     1       1.862   3.328  18.561  0.00  0.00    +0.000 C 
ATOM      7  C   UNL     1       2.122   4.765  18.017  0.00  0.00    +0.000 C 
ATOM      8  S   UNL     1       2.632   6.017  19.221  0.00  0.00    +0.000 S 
ATOM      9  C   UNL     1       3.409   7.053  17.965  0.00  0.00    +0.000 C 
ENDROOT
BRANCH   6  10
ATOM     10  N   UNL     1       1.622   3.172  19.993  0.00  0.00    +0.000 N 
ATOM     11  C   UNL     1       2.480   2.826  21.003  0.00  0.00    +0.000 C 
ATOM     12  O   UNL     1       2.112   2.604  22.150  0.00  0.00    +0.000 OA
BRANCH  10  13
ATOM     13  O   UNL     1       0.244   3.194  20.312  0.00  0.00    +0.000 OA
ATOM     14  H   UNL     1       0.070   4.158  20.386  0.00  0.00    +0.000 HD
ENDBRANCH  10  13
ENDBRANCH   6  10
BRANCH   2  15
ATOM     15  C   UNL     1       5.380   4.268  15.995  0.00  0.00    +0.000 C 
ATOM     16  O   UNL     1       5.251   4.145  14.785  0.00  0.00    +0.000 OA
BRANCH  15  17
ATOM     17  O   UNL     1       6.425   3.682  16.614  0.00  0.00    +0.000 OA
ATOM     18  H   UNL     1       6.871   4.186  17.329  0.00  0.00    +0.000 HD
ENDBRANCH  15  17
ENDBRANCH   2  15
BRANCH   1  19
ATOM     19  C   UNL     1       5.478   7.271  16.598  0.00  0.00    +0.000 C 
BRANCH  19  20
ATOM     20  O   UNL     1       6.750   6.596  16.652  0.00  0.00    +0.000 OA
BRANCH  20  22
ATOM     21  C   UNL     1       7.970   8.195  17.859  0.00  0.00    +0.000 C 
ATOM     22  C   UNL     1       7.488   6.779  17.780  0.00  0.00    +0.000 C 
ATOM     23  O   UNL     1       7.695   5.935  18.640  0.00  0.00    +0.000 OA
ENDBRANCH  20  22
ENDBRANCH  19  20
ENDBRANCH   1  19
TORSDOF 7
ENDMDL
MODEL 2
REMARK VINA RESULT:      -6.6      0.950      1.196
REMARK  Name = 
REMARK  8 active torsions:
REMARK  status: ('A' for Active; 'I' for Inactive)
REMARK    1  A    between atoms: C_1  and  C_2
REMARK    2  A    between atoms: C_2  and  O_4
REMARK    3  A    between atoms: O_4  and  C_5
REMARK    4  A    between atoms: C_5  and  C_6
REMARK    5  A    between atoms: C_7  and  C_8
REMARK    6  A    between atoms: C_8  and  O_10
REMARK    7  A    between atoms: C_14  and  N_15
REMARK    8  A    between atoms: N_15  and  O_16
REMARK                            x       y       z     vdW  Elec       q    Type
REMARK                         _______ _______ _______ _____ _____    ______ ____
ROOT
ATOM      1  C   UNL     1       4.633   5.982  16.981  0.00  0.00    +0.000 C 
ATOM      2  C   UNL     1       4.454   4.674  16.642  0.00  0.00    +0.000 C 
ATOM      3  N   UNL     1       3.470   3.932  17.253  0.00  0.00    +0.000 N 
ATOM      4  C   UNL     1       3.485   2.687  17.789  0.00  0.00    +0.000 C 
ATOM      5  O   UNL     1       4.282   1.789  17.661  0.00  0.00    +0.000 OA
ATOM      6  C   UNL     1       2.209   2.983  18.606  0.00  0.00    +0.000 C 
ATOM      7  C   UNL     1       2.456   4.456  18.162  0.00  0.00    +0.000 C 
ATOM      8  S   UNL     1       3.257   5.549  19.363  0.00  0.00    +0.000 S 
ATOM      9  C   UNL     1       3.856   6.677  18.088  0.00  0.00    +0.000 C 
ENDROOT
BRANCH   6  10
ATOM     10  N   UNL     1       2.225   2.686  20.035  0.00  0.00    +0.000 N 
ATOM     11  C   UNL     1       1.250   2.843  20.985  0.00  0.00    +0.000 C 
ATOM     12  O   UNL     1       1.445   2.671  22.181  0.00  0.00    +0.000 OA
BRANCH  10  13
ATOM     13  O   UNL     1       3.524   2.381  20.506  0.00  0.00    +0.000 OA
ATOM     14  H   UNL     1       3.329   1.788  21.265  0.00  0.00    +0.000 HD
ENDBRANCH  10  13
ENDBRANCH   6  10
BRANCH   2  15
ATOM     15  C   UNL     1       5.249   4.030  15.524  0.00  0.00    +0.000 C 
ATOM     16  O   UNL     1       5.062   4.275  14.340  0.00  0.00    +0.000 OA
BRANCH  15  17
ATOM     17  O   UNL     1       6.136   3.076  15.872  0.00  0.00    +0.000 OA
ATOM     18  H   UNL     1       7.079   3.228  15.647  0.00  0.00    +0.000 HD
ENDBRANCH  15  17
ENDBRANCH   2  15
BRANCH   1  19
ATOM     19  C   UNL     1       5.649   6.945  16.383  0.00  0.00    +0.000 C 
BRANCH  19  20
ATOM     20  O   UNL     1       6.966   6.473  16.727  0.00  0.00    +0.000 OA
BRANCH  20  22
ATOM     21  C   UNL     1       7.832   6.161  18.884  0.00  0.00    +0.000 C 
ATOM     22  C   UNL     1       7.592   7.112  17.752  0.00  0.00    +0.000 C 
ATOM     23  O   UNL     1       7.958   8.278  17.746  0.00  0.00    +0.000 OA
ENDBRANCH  20  22
ENDBRANCH  19  20
ENDBRANCH   1  19
TORSDOF 7
ENDMDL
MODEL 3
REMARK VINA RESULT:      -6.4      1.128      1.436
REMARK  Name = 
REMARK  8 active torsions:
REMARK  status: ('A' for Active; 'I' for Inactive)
REMARK    1  A    between atoms: C_1  and  C_2
REMARK    2  A    between atoms: C_2  and  O_4
REMARK    3  A    between atoms: O_4  and  C_5
REMARK    4  A    between atoms: C_5  and  C_6
REMARK    5  A    between atoms: C_7  and  C_8
REMARK    6  A    between atoms: C_8  and  O_10
REMARK    7  A    between atoms: C_14  and  N_15
REMARK    8  A    between atoms: N_15  and  O_16
REMARK                            x       y       z     vdW  Elec       q    Type
REMARK                         _______ _______ _______ _____ _____    ______ ____
ROOT
ATOM      1  C   UNL     1       4.391   5.942  17.386  0.00  0.00    +0.000 C 
ATOM      2  C   UNL     1       4.845   4.694  17.695  0.00  0.00    +0.000 C 
ATOM      3  N   UNL     1       3.962   3.719  18.096  0.00  0.00    +0.000 N 
ATOM      4  C   UNL     1       4.006   2.832  19.120  0.00  0.00    +0.000 C 
ATOM      5  O   UNL     1       4.933   2.478  19.809  0.00  0.00    +0.000 OA
ATOM      6  C   UNL     1       2.482   2.605  19.039  0.00  0.00    +0.000 C 
ATOM      7  C   UNL     1       2.507   3.838  18.087  0.00  0.00    +0.000 C 
ATOM      8  S   UNL     1       2.048   5.436  18.804  0.00  0.00    +0.000 S 
ATOM      9  C   UNL     1       2.941   6.371  17.545  0.00  0.00    +0.000 C 
ENDROOT
BRANCH   6  10
ATOM     10  N   UNL     1       1.707   2.709  20.273  0.00  0.00    +0.000 N 
ATOM     11  C   UNL     1       2.104   2.605  21.580  0.00  0.00    +0.000 C 
ATOM     12  O   UNL     1       1.320   2.585  22.520  0.00  0.00    +0.000 OA
BRANCH  10  13
ATOM     13  O   UNL     1       0.313   2.719  20.033  0.00  0.00    +0.000 OA
ATOM     14  H   UNL     1       0.115   3.681  20.035  0.00  0.00    +0.000 HD
ENDBRANCH  10  13
ENDBRANCH   6  10
BRANCH   2  15
ATOM     15  C   UNL     1       6.301   4.314  17.511  0.00  0.00    +0.000 C 
ATOM     16  O   UNL     1       7.119   4.330  18.420  0.00  0.00    +0.000 OA
BRANCH  15  17
ATOM     17  O   UNL     1       6.709   4.040  16.255  0.00  0.00    +0.000 OA
ATOM     18  H   UNL     1       6.530   3.141  15.904  0.00  0.00    +0.000 HD
ENDBRANCH  15  17
ENDBRANCH   2  15
BRANCH   1  19
ATOM     19  C   UNL     1       5.226   7.118  16.900  0.00  0.00    +0.000 C 
BRANCH  19  20
ATOM     20  O   UNL     1       6.298   7.323  17.841  0.00  0.00    +0.000 OA
BRANCH  20  22
ATOM     21  C   UNL     1       8.166   8.725  18.043  0.00  0.00    +0.000 C 
ATOM     22  C   UNL     1       7.526   7.582  17.317  0.00  0.00    +0.000 C 
ATOM     23  O   UNL     1       8.064   6.952  16.419  0.00  0.00    +0.000 OA
ENDBRANCH  20  22
ENDBRANCH  19  20
ENDBRANCH   1  19
TORSDOF 7
ENDMDL
MODEL 4
REMARK VINA RESULT:      -6.2      0.777      1.164
REMARK  Name = 
REMARK  8 active torsions:
REMARK  status: ('A' for Active; 'I' for Inactive)
REMARK    1  A    between atoms: C_1  and  C_2
REMARK    2  A    between atoms: C_2  and  O_4
REMARK    3  A    between atoms: O_4  and  C_5
REMARK    4  A    between atoms: C_5  and  C_6
REMARK    5  A    between atoms: C_7  and  C_8
REMARK    6  A    between atoms: C_8  and  O_10
REMARK    7  A    between atoms: C_14  and  N_15
REMARK    8  A    between atoms: N_15  and  O_16
REMARK                            x       y       z     vdW  Elec       q    Type
REMARK                         _______ _______ _______ _____ _____    ______ ____
ROOT
ATOM      1  C   UNL     1       4.724   6.052  17.050  0.00  0.00    +0.000 C 
ATOM      2  C   UNL     1       4.517   4.758  16.675  0.00  0.00    +0.000 C 
ATOM      3  N   UNL     1       3.515   4.021  17.263  0.00  0.00    +0.000 N 
ATOM      4  C   UNL     1       3.501   2.762  17.765  0.00  0.00    +0.000 C 
ATOM      5  O   UNL     1       4.279   1.850  17.614  0.00  0.00    +0.000 OA
ATOM      6  C   UNL     1       2.229   3.063  18.585  0.00  0.00    +0.000 C 
ATOM      7  C   UNL     1       2.510   4.542  18.183  0.00  0.00    +0.000 C 
ATOM      8  S   UNL     1       3.331   5.584  19.415  0.00  0.00    +0.000 S 
ATOM      9  C   UNL     1       3.958   6.733  18.174  0.00  0.00    +0.000 C 
ENDROOT
BRANCH   6  10
ATOM     10  N   UNL     1       2.235   2.727  20.006  0.00  0.00    +0.000 N 
ATOM     11  C   UNL     1       1.259   2.875  20.956  0.00  0.00    +0.000 C 
ATOM     12  O   UNL     1       1.445   2.668  22.148  0.00  0.00    +0.000 OA
BRANCH  10  13
ATOM     13  O   UNL     1       3.526   2.386  20.473  0.00  0.00    +0.000 OA
ATOM     14  H   UNL     1       4.022   2.278  19.632  0.00  0.00    +0.000 HD
ENDBRANCH  10  13
ENDBRANCH   6  10
BRANCH   2  15
ATOM     15  C   UNL     1       5.302   4.128  15.541  0.00  0.00    +0.000 C 
ATOM     16  O   UNL     1       6.318   3.469  15.714  0.00  0.00    +0.000 OA
BRANCH  15  17
ATOM     17  O   UNL     1       4.893   4.400  14.286  0.00  0.00    +0.000 OA
ATOM     18  H   UNL     1       4.502   3.666  13.765  0.00  0.00    +0.000 HD
ENDBRANCH  15  17
ENDBRANCH   2  15
BRANCH   1  19
ATOM     19  C   UNL     1       5.762   7.008  16.481  0.00  0.00    +0.000 C 
BRANCH  19  20
ATOM     20  O   UNL     1       7.068   6.493  16.807  0.00  0.00    +0.000 OA
BRANCH  20  22
ATOM     21  C   UNL     1       7.851   8.511  17.709  0.00  0.00    +0.000 C 
ATOM     22  C   UNL     1       7.681   7.034  17.893  0.00  0.00    +0.000 C 
ATOM     23  O   UNL     1       8.008   6.427  18.902  0.00  0.00    +0.000 OA
ENDBRANCH  20  22
ENDBRANCH  19  20
ENDBRANCH   1  19
TORSDOF 7
ENDMDL
MODEL 5
REMARK VINA RESULT:      -6.2      1.293      1.499
REMARK  Name = 
REMARK  8 active torsions:
REMARK  status: ('A' for Active; 'I' for Inactive)
REMARK    1  A    between atoms: C_1  and  C_2
REMARK    2  A    between atoms: C_2  and  O_4
REMARK    3  A    between atoms: O_4  and  C_5
REMARK    4  A    between atoms: C_5  and  C_6
REMARK    5  A    between atoms: C_7  and  C_8
REMARK    6  A    between atoms: C_8  and  O_10
REMARK    7  A    between atoms: C_14  and  N_15
REMARK    8  A    between atoms: N_15  and  O_16
REMARK                            x       y       z     vdW  Elec       q    Type
REMARK                         _______ _______ _______ _____ _____    ______ ____
ROOT
ATOM      1  C   UNL     1       4.298   5.919  17.812  0.00  0.00    +0.000 C 
ATOM      2  C   UNL     1       4.673   4.610  17.766  0.00  0.00    +0.000 C 
ATOM      3  N   UNL     1       3.843   3.636  18.272  0.00  0.00    +0.000 N 
ATOM      4  C   UNL     1       4.089   2.576  19.080  0.00  0.00    +0.000 C 
ATOM      5  O   UNL     1       5.132   2.043  19.376  0.00  0.00    +0.000 OA
ATOM      6  C   UNL     1       2.596   2.467  19.454  0.00  0.00    +0.000 C 
ATOM      7  C   UNL     1       2.478   3.848  18.743  0.00  0.00    +0.000 C 
ATOM      8  S   UNL     1       2.449   5.315  19.805  0.00  0.00    +0.000 S 
ATOM      9  C   UNL     1       3.024   6.404  18.487  0.00  0.00    +0.000 C 
ENDROOT
BRANCH   6  10
ATOM     10  N   UNL     1       2.247   2.393  20.870  0.00  0.00    +0.000 N 
ATOM     11  C   UNL     1       1.046   2.587  21.498  0.00  0.00    +0.000 C 
ATOM     12  O   UNL     1       0.923   2.620  22.716  0.00  0.00    +0.000 OA
BRANCH  10  13
ATOM     13  O   UNL     1       3.389   2.302  21.700  0.00  0.00    +0.000 OA
ATOM     14  H   UNL     1       3.969   1.704  21.180  0.00  0.00    +0.000 HD
ENDBRANCH  10  13
ENDBRANCH   6  10
BRANCH   2  15
ATOM     15  C   UNL     1       5.950   4.177  17.073  0.00  0.00    +0.000 C 
ATOM     16  O   UNL     1       5.985   3.786  15.914  0.00  0.00    +0.000 OA
BRANCH  15  17
ATOM     17  O   UNL     1       7.071   4.141  17.820  0.00  0.00    +0.000 OA
ATOM     18  H   UNL     1       7.298   4.942  18.339  0.00  0.00    +0.000 HD
ENDBRANCH  15  17
ENDBRANCH   2  15
BRANCH   1  19
ATOM     19  C   UNL     1       5.080   7.108  17.273  0.00  0.00    +0.000 C 
BRANCH  19  20
ATOM     20  O   UNL     1       6.333   7.175  17.980  0.00  0.00    +0.000 OA
BRANCH  20  22
ATOM     21  C   UNL     1       8.006   8.801  17.743  0.00  0.00    +0.000 C 
ATOM     22  C   UNL     1       7.428   7.511  17.247  0.00  0.00    +0.000 C 
ATOM     23  O   UNL     1       7.913   6.844  16.345  0.00  0.00    +0.000 OA
ENDBRANCH  20  22
ENDBRANCH  19  20
ENDBRANCH   1  19
TORSDOF 7
ENDMDL
MODEL 6
REMARK VINA RESULT:      -6.1      2.091      2.979
REMARK  Name = 
REMARK  8 active torsions:
REMARK  status: ('A' for Active; 'I' for Inactive)
REMARK    1  A    between atoms: C_1  and  C_2
REMARK    2  A    between atoms: C_2  and  O_4
REMARK    3  A    between atoms: O_4  and  C_5
REMARK    4  A    between atoms: C_5  and  C_6
REMARK    5  A    between atoms: C_7  and  C_8
REMARK    6  A    between atoms: C_8  and  O_10
REMARK    7  A    between atoms: C_14  and  N_15
REMARK    8  A    between atoms: N_15  and  O_16
REMARK                            x       y       z     vdW  Elec       q    Type
REMARK                         _______ _______ _______ _____ _____    ______ ____
ROOT
ATOM      1  C   UNL     1       6.669   6.783  17.600  0.00  0.00    +0.000 C 
ATOM      2  C   UNL     1       6.646   5.473  17.975  0.00  0.00    +0.000 C 
ATOM      3  N   UNL     1       5.518   4.715  17.766  0.00  0.00    +0.000 N 
ATOM      4  C   UNL     1       4.850   3.856  18.574  0.00  0.00    +0.000 C 
ATOM      5  O   UNL     1       5.190   3.325  19.604  0.00  0.00    +0.000 OA
ATOM      6  C   UNL     1       3.584   3.958  17.697  0.00  0.00    +0.000 C 
ATOM      7  C   UNL     1       4.339   5.140  17.020  0.00  0.00    +0.000 C 
ATOM      8  S   UNL     1       3.885   6.811  17.549  0.00  0.00    +0.000 S 
ATOM      9  C   UNL     1       5.463   7.514  17.029  0.00  0.00    +0.000 C 
ENDROOT
BRANCH   6  10
ATOM     10  N   UNL     1       2.313   4.244  18.358  0.00  0.00    +0.000 N 
ATOM     11  C   UNL     1       2.005   4.323  19.690  0.00  0.00    +0.000 C 
ATOM     12  O   UNL     1       0.861   4.446  20.108  0.00  0.00    +0.000 OA
BRANCH  10  13
ATOM     13  O   UNL     1       1.224   4.235  17.455  0.00  0.00    +0.000 OA
ATOM     14  H   UNL     1       0.974   5.185  17.431  0.00  0.00    +0.000 HD
ENDBRANCH  10  13
ENDBRANCH   6  10
BRANCH   2  15
ATOM     15  C   UNL     1       7.879   4.789  18.532  0.00  0.00    +0.000 C 
ATOM     16  O   UNL     1       8.352   5.047  19.630  0.00  0.00    +0.000 OA
BRANCH  15  17
ATOM     17  O   UNL     1       8.522   3.926  17.719  0.00  0.00    +0.000 OA
ATOM     18  H   UNL     1       8.298   3.948  16.764  0.00  0.00    +0.000 HD
ENDBRANCH  15  17
ENDBRANCH   2  15
BRANCH   1  19
ATOM     19  C   UNL     1       7.840   7.746  17.731  0.00  0.00    +0.000 C 
BRANCH  19  20
ATOM     20  O   UNL     1       7.335   9.086  17.567  0.00  0.00    +0.000 OA
BRANCH  20  22
ATOM     21  C   UNL     1       9.101   9.599  19.022  0.00  0.00    +0.000 C 
ATOM     22  C   UNL     1       8.146  10.097  17.981  0.00  0.00    +0.000 C 
ATOM     23  O   UNL     1       8.144  11.237  17.541  0.00  0.00    +0.000 OA
ENDBRANCH  20  22
ENDBRANCH  19  20
ENDBRANCH   1  19
TORSDOF 7
ENDMDL
MODEL 7
REMARK VINA RESULT:      -6.0      2.336      3.898
REMARK  Name = 
REMARK  8 active torsions:
REMARK  status: ('A' for Active; 'I' for Inactive)
REMARK    1  A    between atoms: C_1  and  C_2
REMARK    2  A    between atoms: C_2  and  O_4
REMARK    3  A    between atoms: O_4  and  C_5
REMARK    4  A    between atoms: C_5  and  C_6
REMARK    5  A    between atoms: C_7  and  C_8
REMARK    6  A    between atoms: C_8  and  O_10
REMARK    7  A    between atoms: C_14  and  N_15
REMARK    8  A    between atoms: N_15  and  O_16
REMARK                            x       y       z     vdW  Elec       q    Type
REMARK                         _______ _______ _______ _____ _____    ______ ____
ROOT
ATOM      1  C   UNL     1       5.405   4.254  15.866  0.00  0.00    +0.000 C 
ATOM      2  C   UNL     1       6.013   4.378  17.080  0.00  0.00    +0.000 C 
ATOM      3  N   UNL     1       5.380   3.931  18.216  0.00  0.00    +0.000 N 
ATOM      4  C   UNL     1       5.209   4.503  19.434  0.00  0.00    +0.000 C 
ATOM      5  O   UNL     1       5.769   5.444  19.943  0.00  0.00    +0.000 OA
ATOM      6  C   UNL     1       4.040   3.549  19.758  0.00  0.00    +0.000 C 
ATOM      7  C   UNL     1       4.134   3.173  18.249  0.00  0.00    +0.000 C 
ATOM      8  S   UNL     1       2.944   3.958  17.134  0.00  0.00    +0.000 S 
ATOM      9  C   UNL     1       3.993   3.721  15.685  0.00  0.00    +0.000 C 
ENDROOT
BRANCH   6  10
ATOM     10  N   UNL     1       2.792   4.133  20.241  0.00  0.00    +0.000 N 
ATOM     11  C   UNL     1       1.527   3.609  20.290  0.00  0.00    +0.000 C 
ATOM     12  O   UNL     1       0.541   4.262  20.604  0.00  0.00    +0.000 OA
BRANCH  10  13
ATOM     13  O   UNL     1       2.913   5.518  20.504  0.00  0.00    +0.000 OA
ATOM     14  H   UNL     1       2.744   5.907  19.618  0.00  0.00    +0.000 HD
ENDBRANCH  10  13
ENDBRANCH   6  10
BRANCH   2  15
ATOM     15  C   UNL     1       7.428   4.908  17.206  0.00  0.00    +0.000 C 
ATOM     16  O   UNL     1       7.756   6.034  16.859  0.00  0.00    +0.000 OA
BRANCH  15  17
ATOM     17  O   UNL     1       8.370   4.046  17.637  0.00  0.00    +0.000 OA
ATOM     18  H   UNL     1       8.683   3.361  17.006  0.00  0.00    +0.000 HD
ENDBRANCH  15  17
ENDBRANCH   2  15
BRANCH   1  19
ATOM     19  C   UNL     1       5.977   4.667  14.517  0.00  0.00    +0.000 C 
BRANCH  19  20
ATOM     20  O   UNL     1       6.250   3.469  13.764  0.00  0.00    +0.000 OA
BRANCH  20  22
ATOM     21  C   UNL     1       5.039   3.115  11.787  0.00  0.00    +0.000 C 
ATOM     22  C   UNL     1       6.310   3.602  12.411  0.00  0.00    +0.000 C 
ATOM     23  O   UNL     1       7.238   4.092  11.785  0.00  0.00    +0.000 OA
ENDBRANCH  20  22
ENDBRANCH  19  20
ENDBRANCH   1  19
TORSDOF 7
ENDMDL
MODEL 8
REMARK VINA RESULT:      -6.0      2.335      3.968
REMARK  Name = 
REMARK  8 active torsions:
REMARK  status: ('A' for Active; 'I' for Inactive)
REMARK    1  A    between atoms: C_1  and  C_2
REMARK    2  A    between atoms: C_2  and  O_4
REMARK    3  A    between atoms: O_4  and  C_5
REMARK    4  A    between atoms: C_5  and  C_6
REMARK    5  A    between atoms: C_7  and  C_8
REMARK    6  A    between atoms: C_8  and  O_10
REMARK    7  A    between atoms: C_14  and  N_15
REMARK    8  A    between atoms: N_15  and  O_16
REMARK                            x       y       z     vdW  Elec       q    Type
REMARK                         _______ _______ _______ _____ _____    ______ ____
ROOT
ATOM      1  C   UNL     1       5.205   4.234  15.799  0.00  0.00    +0.000 C 
ATOM      2  C   UNL     1       5.898   4.379  16.964  0.00  0.00    +0.000 C 
ATOM      3  N   UNL     1       5.349   3.952  18.151  0.00  0.00    +0.000 N 
ATOM      4  C   UNL     1       5.265   4.546  19.367  0.00  0.00    +0.000 C 
ATOM      5  O   UNL     1       5.860   5.495  19.817  0.00  0.00    +0.000 OA
ATOM      6  C   UNL     1       4.122   3.599  19.791  0.00  0.00    +0.000 C 
ATOM      7  C   UNL     1       4.108   3.196  18.287  0.00  0.00    +0.000 C 
ATOM      8  S   UNL     1       2.841   3.962  17.246  0.00  0.00    +0.000 S 
ATOM      9  C   UNL     1       3.783   3.699  15.730  0.00  0.00    +0.000 C 
ENDROOT
BRANCH   6  10
ATOM     10  N   UNL     1       2.912   4.193  20.353  0.00  0.00    +0.000 N 
ATOM     11  C   UNL     1       2.439   5.476  20.279  0.00  0.00    +0.000 C 
ATOM     12  O   UNL     1       1.467   5.870  20.911  0.00  0.00    +0.000 OA
BRANCH  10  13
ATOM     13  O   UNL     1       2.264   3.330  21.268  0.00  0.00    +0.000 OA
ATOM     14  H   UNL     1       2.663   3.606  22.122  0.00  0.00    +0.000 HD
ENDBRANCH  10  13
ENDBRANCH   6  10
BRANCH   2  15
ATOM     15  C   UNL     1       7.318   4.910  16.978  0.00  0.00    +0.000 C 
ATOM     16  O   UNL     1       8.279   4.245  17.339  0.00  0.00    +0.000 OA
BRANCH  15  17
ATOM     17  O   UNL     1       7.490   6.209  16.664  0.00  0.00    +0.000 OA
ATOM     18  H   UNL     1       7.415   6.867  17.389  0.00  0.00    +0.000 HD
ENDBRANCH  15  17
ENDBRANCH   2  15
BRANCH   1  19
ATOM     19  C   UNL     1       5.678   4.622  14.406  0.00  0.00    +0.000 C 
BRANCH  19  20
ATOM     20  O   UNL     1       6.094   3.421  13.726  0.00  0.00    +0.000 OA
BRANCH  20  22
ATOM     21  C   UNL     1       4.876   3.128  11.744  0.00  0.00    +0.000 C 
ATOM     22  C   UNL     1       6.187   3.491  12.371  0.00  0.00    +0.000 C 
ATOM     23  O   UNL     1       7.173   3.844  11.742  0.00  0.00    +0.000 OA
ENDBRANCH  20  22
ENDBRANCH  19  20
ENDBRANCH   1  19
TORSDOF 7
ENDMDL
MODEL 9
REMARK VINA RESULT:      -5.8      2.851      5.860
REMARK  Name = 
REMARK  8 active torsions:
REMARK  status: ('A' for Active; 'I' for Inactive)
REMARK    1  A    between atoms: C_1  and  C_2
REMARK    2  A    between atoms: C_2  and  O_4
REMARK    3  A    between atoms: O_4  and  C_5
REMARK    4  A    between atoms: C_5  and  C_6
REMARK    5  A    between atoms: C_7  and  C_8
REMARK    6  A    between atoms: C_8  and  O_10
REMARK    7  A    between atoms: C_14  and  N_15
REMARK    8  A    between atoms: N_15  and  O_16
REMARK                            x       y       z     vdW  Elec       q    Type
REMARK                         _______ _______ _______ _____ _____    ______ ____
ROOT
ATOM      1  C   UNL     1       2.185   6.015  20.194  0.00  0.00    +0.000 C 
ATOM      2  C   UNL     1       2.604   4.720  20.280  0.00  0.00    +0.000 C 
ATOM      3  N   UNL     1       3.780   4.335  19.680  0.00  0.00    +0.000 N 
ATOM      4  C   UNL     1       4.085   3.266  18.903  0.00  0.00    +0.000 C 
ATOM      5  O   UNL     1       3.488   2.231  18.727  0.00  0.00    +0.000 OA
ATOM      6  C   UNL     1       5.345   3.974  18.360  0.00  0.00    +0.000 C 
ATOM      7  C   UNL     1       4.746   5.233  19.055  0.00  0.00    +0.000 C 
ATOM      8  S   UNL     1       3.856   6.405  18.000  0.00  0.00    +0.000 S 
ATOM      9  C   UNL     1       2.905   7.078  19.378  0.00  0.00    +0.000 C 
ENDROOT
BRANCH   6  10
ATOM     10  N   UNL     1       5.537   4.016  16.913  0.00  0.00    +0.000 N 
ATOM     11  C   UNL     1       6.605   4.449  16.173  0.00  0.00    +0.000 C 
ATOM     12  O   UNL     1       6.580   4.549  14.953  0.00  0.00    +0.000 OA
BRANCH  10  13
ATOM     13  O   UNL     1       4.342   3.748  16.204  0.00  0.00    +0.000 OA
ATOM     14  H   UNL     1       4.687   3.427  15.343  0.00  0.00    +0.000 HD
ENDBRANCH  10  13
ENDBRANCH   6  10
BRANCH   2  15
ATOM     15  C   UNL     1       1.854   3.700  21.114  0.00  0.00    +0.000 C 
ATOM     16  O   UNL     1       2.208   3.360  22.234  0.00  0.00    +0.000 OA
BRANCH  15  17
ATOM     17  O   UNL     1       0.805   3.084  20.534  0.00  0.00    +0.000 OA
ATOM     18  H   UNL     1       0.930   2.157  20.235  0.00  0.00    +0.000 HD
ENDBRANCH  15  17
ENDBRANCH   2  15
BRANCH   1  19
ATOM     19  C   UNL     1       0.933   6.608  20.822  0.00  0.00    +0.000 C 
BRANCH  19  20
ATOM     20  O   UNL     1       1.135   8.028  20.964  0.00  0.00    +0.000 OA
BRANCH  20  22
ATOM     21  C   UNL     1       0.306  10.199  21.276  0.00  0.00    +0.000 C 
ATOM     22  C   UNL     1       0.116   8.734  21.524  0.00  0.00    +0.000 C 
ATOM     23  O   UNL     1      -0.847   8.256  22.105  0.00  0.00    +0.000 OA
ENDBRANCH  20  22
ENDBRANCH  19  20
ENDBRANCH   1  19
TORSDOF 7
ENDMDL
