MODEL 1
REMARK VINA RESULT:      -7.7      0.000      0.000
REMARK  Name = 
REMARK  7 active torsions:
REMARK  status: ('A' for Active; 'I' for Inactive)
REMARK    1  A    between atoms: C_1  and  O_2
REMARK    2  A    between atoms: O_2  and  C_3
REMARK    3  A    between atoms: C_6  and  N_7
REMARK    4  A    between atoms: C_11  and  N_12
REMARK    5  A    between atoms: N_12  and  C_13
REMARK    6  A    between atoms: C_13  and  C_14
REMARK    7  A    between atoms: C_19  and  C_20
REMARK                            x       y       z     vdW  Elec       q    Type
REMARK                         _______ _______ _______ _____ _____    ______ ____
ROOT
ATOM      1  C   UNL     1       4.514   5.751  18.248  0.00  0.00    +0.000 A 
ATOM      2  C   UNL     1       4.516   6.627  17.149  0.00  0.00    +0.000 A 
ATOM      3  C   UNL     1       5.247   6.327  16.004  0.00  0.00    +0.000 A 
ATOM      4  C   UNL     1       6.005   5.156  15.974  0.00  0.00    +0.000 A 
ATOM      5  C   UNL     1       6.082   4.322  17.101  0.00  0.00    +0.000 A 
ATOM      6  C   UNL     1       5.366   4.623  18.275  0.00  0.00    +0.000 A 
ENDROOT
BRANCH   4   7
ATOM      7  N   UNL     1       6.708   4.776  14.743  0.00  0.00    +0.000 N 
ATOM      8  O   UNL     1       7.695   5.450  14.412  0.00  0.00    +0.000 OA
ATOM      9  O   UNL     1       6.271   3.812  14.100  0.00  0.00    +0.000 OA
ENDBRANCH   4   7
BRANCH   1  11
ATOM     10  C   UNL     1       2.582   6.862  19.051  0.00  0.00    +0.000 C 
ATOM     11  O   UNL     1       3.669   5.969  19.308  0.00  0.00    +0.000 OA
ENDBRANCH   1  11
BRANCH   6  12
ATOM     12  N   UNL     1       5.443   3.696  19.325  0.00  0.00    +0.000 N 
ATOM     13  H   UNL     1       5.274   4.118  20.233  0.00  0.00    +0.000 HD
BRANCH  12  14
ATOM     14  C   UNL     1       4.717   2.429  19.244  0.00  0.00    +0.000 C 
BRANCH  14  15
ATOM     15  C   UNL     1       3.287   2.661  19.697  0.00  0.00    +0.000 A 
ATOM     16  C   UNL     1       3.044   2.712  21.083  0.00  0.00    +0.000 A 
ATOM     17  C   UNL     1       1.758   2.914  21.587  0.00  0.00    +0.000 A 
ATOM     18  C   UNL     1       0.693   3.076  20.713  0.00  0.00    +0.000 A 
ATOM     19  C   UNL     1       0.916   3.054  19.334  0.00  0.00    +0.000 A 
ATOM     20  C   UNL     1       2.209   2.866  18.809  0.00  0.00    +0.000 A 
ATOM     21  C   UNL     1       2.388   2.890  17.316  0.00  0.00    +0.000 C 
ENDBRANCH  14  15
ENDBRANCH  12  14
ENDBRANCH   6  12
TORSDOF 5
ENDMDL
MODEL 2
REMARK VINA RESULT:      -7.3      2.090      3.523
REMARK  Name = 
REMARK  7 active torsions:
REMARK  status: ('A' for Active; 'I' for Inactive)
REMARK    1  A    between atoms: C_1  and  O_2
REMARK    2  A    between atoms: O_2  and  C_3
REMARK    3  A    between atoms: C_6  and  N_7
REMARK    4  A    between atoms: C_11  and  N_12
REMARK    5  A    between atoms: N_12  and  C_13
REMARK    6  A    between atoms: C_13  and  C_14
REMARK    7  A    between atoms: C_19  and  C_20
REMARK                            x       y       z     vdW  Elec       q    Type
REMARK                         _______ _______ _______ _____ _____    ______ ____
ROOT
ATOM      1  C   UNL     1       5.831   4.344  15.676  0.00  0.00    +0.000 A 
ATOM      2  C   UNL     1       6.793   5.359  15.533  0.00  0.00    +0.000 A 
ATOM      3  C   UNL     1       7.389   5.934  16.650  0.00  0.00    +0.000 A 
ATOM      4  C   UNL     1       6.994   5.511  17.920  0.00  0.00    +0.000 A 
ATOM      5  C   UNL     1       5.969   4.564  18.074  0.00  0.00    +0.000 A 
ATOM      6  C   UNL     1       5.341   3.988  16.954  0.00  0.00    +0.000 A 
ENDROOT
BRANCH   4   7
ATOM      7  N   UNL     1       7.676   6.039  19.108  0.00  0.00    +0.000 N 
ATOM      8  O   UNL     1       8.372   7.056  18.967  0.00  0.00    +0.000 OA
ATOM      9  O   UNL     1       7.527   5.434  20.178  0.00  0.00    +0.000 OA
ENDBRANCH   4   7
BRANCH   1  11
ATOM     10  C   UNL     1       6.154   3.809  13.392  0.00  0.00    +0.000 C 
ATOM     11  O   UNL     1       5.365   3.670  14.575  0.00  0.00    +0.000 OA
ENDBRANCH   1  11
BRANCH   6  12
ATOM     12  N   UNL     1       4.379   2.998  17.201  0.00  0.00    +0.000 N 
ATOM     13  H   UNL     1       4.550   2.493  18.066  0.00  0.00    +0.000 HD
BRANCH  12  14
ATOM     14  C   UNL     1       2.954   3.312  17.104  0.00  0.00    +0.000 C 
BRANCH  14  15
ATOM     15  C   UNL     1       2.410   3.529  18.504  0.00  0.00    +0.000 A 
ATOM     16  C   UNL     1       2.141   2.386  19.281  0.00  0.00    +0.000 A 
ATOM     17  C   UNL     1       1.632   2.494  20.577  0.00  0.00    +0.000 A 
ATOM     18  C   UNL     1       1.390   3.746  21.121  0.00  0.00    +0.000 A 
ATOM     19  C   UNL     1       1.674   4.894  20.376  0.00  0.00    +0.000 A 
ATOM     20  C   UNL     1       2.201   4.804  19.073  0.00  0.00    +0.000 A 
ATOM     21  C   UNL     1       2.520   6.077  18.338  0.00  0.00    +0.000 C 
ENDBRANCH  14  15
ENDBRANCH  12  14
ENDBRANCH   6  12
TORSDOF 5
ENDMDL
MODEL 3
REMARK VINA RESULT:      -7.2      1.387      2.056
REMARK  Name = 
REMARK  7 active torsions:
REMARK  status: ('A' for Active; 'I' for Inactive)
REMARK    1  A    between atoms: C_1  and  O_2
REMARK    2  A    between atoms: O_2  and  C_3
REMARK    3  A    between atoms: C_6  and  N_7
REMARK    4  A    between atoms: C_11  and  N_12
REMARK    5  A    between atoms: N_12  and  C_13
REMARK    6  A    between atoms: C_13  and  C_14
REMARK    7  A    between atoms: C_19  and  C_20
REMARK                            x       y       z     vdW  Elec       q    Type
REMARK                         _______ _______ _______ _____ _____    ______ ____
ROOT
ATOM      1  C   UNL     1       3.516   5.619  17.725  0.00  0.00    +0.000 A 
ATOM      2  C   UNL     1       4.555   6.544  17.923  0.00  0.00    +0.000 A 
ATOM      3  C   UNL     1       5.823   6.309  17.400  0.00  0.00    +0.000 A 
ATOM      4  C   UNL     1       6.057   5.123  16.702  0.00  0.00    +0.000 A 
ATOM      5  C   UNL     1       5.050   4.153  16.579  0.00  0.00    +0.000 A 
ATOM      6  C   UNL     1       3.768   4.366  17.121  0.00  0.00    +0.000 A 
ENDROOT
BRANCH   4   7
ATOM      7  N   UNL     1       7.360   4.900  16.065  0.00  0.00    +0.000 N 
ATOM      8  O   UNL     1       8.188   4.207  16.675  0.00  0.00    +0.000 OA
ATOM      9  O   UNL     1       7.562   5.424  14.961  0.00  0.00    +0.000 OA
ENDBRANCH   4   7
BRANCH   1  11
ATOM     10  C   UNL     1       2.114   6.746  19.266  0.00  0.00    +0.000 C 
ATOM     11  O   UNL     1       2.232   5.927  18.101  0.00  0.00    +0.000 OA
ENDBRANCH   1  11
BRANCH   6  12
ATOM     12  N   UNL     1       2.804   3.375  16.886  0.00  0.00    +0.000 N 
ATOM     13  H   UNL     1       2.716   3.139  15.902  0.00  0.00    +0.000 HD
BRANCH  12  14
ATOM     14  C   UNL     1       2.805   2.144  17.675  0.00  0.00    +0.000 C 
BRANCH  14  15
ATOM     15  C   UNL     1       2.376   2.476  19.092  0.00  0.00    +0.000 A 
ATOM     16  C   UNL     1       1.025   2.814  19.300  0.00  0.00    +0.000 A 
ATOM     17  C   UNL     1       0.546   3.140  20.571  0.00  0.00    +0.000 A 
ATOM     18  C   UNL     1       1.409   3.128  21.657  0.00  0.00    +0.000 A 
ATOM     19  C   UNL     1       2.748   2.772  21.476  0.00  0.00    +0.000 A 
ATOM     20  C   UNL     1       3.244   2.425  20.204  0.00  0.00    +0.000 A 
ATOM     21  C   UNL     1       4.685   2.015  20.083  0.00  0.00    +0.000 C 
ENDBRANCH  14  15
ENDBRANCH  12  14
ENDBRANCH   6  12
TORSDOF 5
ENDMDL
MODEL 4
REMARK VINA RESULT:      -7.1      1.197      1.972
REMARK  Name = 
REMARK  7 active torsions:
REMARK  status: ('A' for Active; 'I' for Inactive)
REMARK    1  A    between atoms: C_1  and  O_2
REMARK    2  A    between atoms: O_2  and  C_3
REMARK    3  A    between atoms: C_6  and  N_7
REMARK    4  A    between atoms: C_11  and  N_12
REMARK    5  A    between atoms: N_12  and  C_13
REMARK    6  A    between atoms: C_13  and  C_14
REMARK    7  A    between atoms: C_19  and  C_20
REMARK                            x       y       z     vdW  Elec       q    Type
REMARK                         _______ _______ _______ _____ _____    ______ ____
ROOT
ATOM      1  C   UNL     1       3.957   5.726  17.452  0.00  0.00    +0.000 A 
ATOM      2  C   UNL     1       5.005   6.641  17.252  0.00  0.00    +0.000 A 
ATOM      3  C   UNL     1       5.993   6.392  16.305  0.00  0.00    +0.000 A 
ATOM      4  C   UNL     1       5.945   5.203  15.575  0.00  0.00    +0.000 A 
ATOM      5  C   UNL     1       4.955   4.242  15.833  0.00  0.00    +0.000 A 
ATOM      6  C   UNL     1       3.961   4.469  16.804  0.00  0.00    +0.000 A 
ENDROOT
BRANCH   4   7
ATOM      7  N   UNL     1       6.925   4.965  14.508  0.00  0.00    +0.000 N 
ATOM      8  O   UNL     1       6.655   4.100  13.661  0.00  0.00    +0.000 OA
ATOM      9  O   UNL     1       7.967   5.634  14.520  0.00  0.00    +0.000 OA
ENDBRANCH   4   7
BRANCH   1  11
ATOM     10  C   UNL     1       3.211   6.146  19.660  0.00  0.00    +0.000 C 
ATOM     11  O   UNL     1       2.901   6.048  18.269  0.00  0.00    +0.000 OA
ENDBRANCH   1  11
BRANCH   6  12
ATOM     12  N   UNL     1       2.968   3.488  16.942  0.00  0.00    +0.000 N 
ATOM     13  H   UNL     1       2.580   3.195  16.050  0.00  0.00    +0.000 HD
BRANCH  12  14
ATOM     14  C   UNL     1       3.210   2.307  17.770  0.00  0.00    +0.000 C 
BRANCH  14  15
ATOM     15  C   UNL     1       2.603   2.544  19.141  0.00  0.00    +0.000 A 
ATOM     16  C   UNL     1       1.236   2.876  19.198  0.00  0.00    +0.000 A 
ATOM     17  C   UNL     1       0.600   3.118  20.417  0.00  0.00    +0.000 A 
ATOM     18  C   UNL     1       1.317   3.026  21.600  0.00  0.00    +0.000 A 
ATOM     19  C   UNL     1       2.669   2.673  21.567  0.00  0.00    +0.000 A 
ATOM     20  C   UNL     1       3.324   2.411  20.348  0.00  0.00    +0.000 A 
ATOM     21  C   UNL     1       4.769   2.000  20.383  0.00  0.00    +0.000 C 
ENDBRANCH  14  15
ENDBRANCH  12  14
ENDBRANCH   6  12
TORSDOF 5
ENDMDL
MODEL 5
REMARK VINA RESULT:      -6.9      1.710      2.932
REMARK  Name = 
REMARK  7 active torsions:
REMARK  status: ('A' for Active; 'I' for Inactive)
REMARK    1  A    between atoms: C_1  and  O_2
REMARK    2  A    between atoms: O_2  and  C_3
REMARK    3  A    between atoms: C_6  and  N_7
REMARK    4  A    between atoms: C_11  and  N_12
REMARK    5  A    between atoms: N_12  and  C_13
REMARK    6  A    between atoms: C_13  and  C_14
REMARK    7  A    between atoms: C_19  and  C_20
REMARK                            x       y       z     vdW  Elec       q    Type
REMARK                         _______ _______ _______ _____ _____    ______ ____
ROOT
ATOM      1  C   UNL     1       6.578   5.155  18.458  0.00  0.00    +0.000 A 
ATOM      2  C   UNL     1       7.615   4.543  17.734  0.00  0.00    +0.000 A 
ATOM      3  C   UNL     1       7.522   4.388  16.355  0.00  0.00    +0.000 A 
ATOM      4  C   UNL     1       6.366   4.821  15.703  0.00  0.00    +0.000 A 
ATOM      5  C   UNL     1       5.288   5.349  16.430  0.00  0.00    +0.000 A 
ATOM      6  C   UNL     1       5.358   5.493  17.828  0.00  0.00    +0.000 A 
ENDROOT
BRANCH   4   7
ATOM      7  N   UNL     1       6.287   4.751  14.239  0.00  0.00    +0.000 N 
ATOM      8  O   UNL     1       5.319   4.155  13.742  0.00  0.00    +0.000 OA
ATOM      9  O   UNL     1       7.195   5.281  13.584  0.00  0.00    +0.000 OA
ENDBRANCH   4   7
BRANCH   1  11
ATOM     10  C   UNL     1       8.096   5.595  20.222  0.00  0.00    +0.000 C 
ATOM     11  O   UNL     1       6.742   5.451  19.789  0.00  0.00    +0.000 OA
ENDBRANCH   1  11
BRANCH   6  12
ATOM     12  N   UNL     1       4.263   6.097  18.464  0.00  0.00    +0.000 N 
ATOM     13  H   UNL     1       4.437   7.070  18.700  0.00  0.00    +0.000 HD
BRANCH  12  14
ATOM     14  C   UNL     1       2.922   5.975  17.897  0.00  0.00    +0.000 C 
BRANCH  14  15
ATOM     15  C   UNL     1       2.231   4.786  18.540  0.00  0.00    +0.000 A 
ATOM     16  C   UNL     1       2.198   3.582  17.812  0.00  0.00    +0.000 A 
ATOM     17  C   UNL     1       1.577   2.441  18.325  0.00  0.00    +0.000 A 
ATOM     18  C   UNL     1       0.985   2.483  19.578  0.00  0.00    +0.000 A 
ATOM     19  C   UNL     1       1.028   3.662  20.328  0.00  0.00    +0.000 A 
ATOM     20  C   UNL     1       1.662   4.817  19.832  0.00  0.00    +0.000 A 
ATOM     21  C   UNL     1       1.707   6.042  20.703  0.00  0.00    +0.000 C 
ENDBRANCH  14  15
ENDBRANCH  12  14
ENDBRANCH   6  12
TORSDOF 5
ENDMDL
MODEL 6
REMARK VINA RESULT:      -6.9      2.129      3.679
REMARK  Name = 
REMARK  7 active torsions:
REMARK  status: ('A' for Active; 'I' for Inactive)
REMARK    1  A    between atoms: C_1  and  O_2
REMARK    2  A    between atoms: O_2  and  C_3
REMARK    3  A    between atoms: C_6  and  N_7
REMARK    4  A    between atoms: C_11  and  N_12
REMARK    5  A    between atoms: N_12  and  C_13
REMARK    6  A    between atoms: C_13  and  C_14
REMARK    7  A    between atoms: C_19  and  C_20
REMARK                            x       y       z     vdW  Elec       q    Type
REMARK                         _______ _______ _______ _____ _____    ______ ____
ROOT
ATOM      1  C   UNL     1       5.689   4.581  15.753  0.00  0.00    +0.000 A 
ATOM      2  C   UNL     1       6.663   5.585  15.618  0.00  0.00    +0.000 A 
ATOM      3  C   UNL     1       7.333   6.077  16.733  0.00  0.00    +0.000 A 
ATOM      4  C   UNL     1       7.000   5.582  17.995  0.00  0.00    +0.000 A 
ATOM      5  C   UNL     1       5.964   4.647  18.148  0.00  0.00    +0.000 A 
ATOM      6  C   UNL     1       5.262   4.155  17.032  0.00  0.00    +0.000 A 
ENDROOT
BRANCH   4   7
ATOM      7  N   UNL     1       7.758   6.022  19.173  0.00  0.00    +0.000 N 
ATOM      8  O   UNL     1       8.473   7.028  19.054  0.00  0.00    +0.000 OA
ATOM      9  O   UNL     1       7.648   5.358  20.213  0.00  0.00    +0.000 OA
ENDBRANCH   4   7
BRANCH   1  11
ATOM     10  C   UNL     1       6.049   3.793  13.549  0.00  0.00    +0.000 C 
ATOM     11  O   UNL     1       5.148   3.986  14.640  0.00  0.00    +0.000 OA
ENDBRANCH   1  11
BRANCH   6  12
ATOM     12  N   UNL     1       4.293   3.169  17.271  0.00  0.00    +0.000 N 
ATOM     13  H   UNL     1       4.450   2.670  18.142  0.00  0.00    +0.000 HD
BRANCH  12  14
ATOM     14  C   UNL     1       2.872   3.487  17.150  0.00  0.00    +0.000 C 
BRANCH  14  15
ATOM     15  C   UNL     1       2.437   4.239  18.395  0.00  0.00    +0.000 A 
ATOM     16  C   UNL     1       2.576   5.640  18.390  0.00  0.00    +0.000 A 
ATOM     17  C   UNL     1       2.207   6.409  19.495  0.00  0.00    +0.000 A 
ATOM     18  C   UNL     1       1.687   5.792  20.622  0.00  0.00    +0.000 A 
ATOM     19  C   UNL     1       1.517   4.405  20.639  0.00  0.00    +0.000 A 
ATOM     20  C   UNL     1       1.870   3.615  19.527  0.00  0.00    +0.000 A 
ATOM     21  C   UNL     1       1.627   2.133  19.594  0.00  0.00    +0.000 C 
ENDBRANCH  14  15
ENDBRANCH  12  14
ENDBRANCH   6  12
TORSDOF 5
ENDMDL
MODEL 7
REMARK VINA RESULT:      -6.9      2.024      2.858
REMARK  Name = 
REMARK  7 active torsions:
REMARK  status: ('A' for Active; 'I' for Inactive)
REMARK    1  A    between atoms: C_1  and  O_2
REMARK    2  A    between atoms: O_2  and  C_3
REMARK    3  A    between atoms: C_6  and  N_7
REMARK    4  A    between atoms: C_11  and  N_12
REMARK    5  A    between atoms: N_12  and  C_13
REMARK    6  A    between atoms: C_13  and  C_14
REMARK    7  A    between atoms: C_19  and  C_20
REMARK                            x       y       z     vdW  Elec       q    Type
REMARK                         _______ _______ _______ _____ _____    ______ ____
ROOT
ATOM      1  C   UNL     1       6.390   4.828  16.754  0.00  0.00    +0.000 A 
ATOM      2  C   UNL     1       7.291   5.305  15.786  0.00  0.00    +0.000 A 
ATOM      3  C   UNL     1       7.173   4.917  14.455  0.00  0.00    +0.000 A 
ATOM      4  C   UNL     1       6.165   4.019  14.100  0.00  0.00    +0.000 A 
ATOM      5  C   UNL     1       5.321   3.466  15.075  0.00  0.00    +0.000 A 
ATOM      6  C   UNL     1       5.440   3.833  16.429  0.00  0.00    +0.000 A 
ENDROOT
BRANCH   4   7
ATOM      7  N   UNL     1       5.968   3.670  12.688  0.00  0.00    +0.000 N 
ATOM      8  O   UNL     1       4.804   3.496  12.295  0.00  0.00    +0.000 OA
ATOM      9  O   UNL     1       6.973   3.558  11.973  0.00  0.00    +0.000 OA
ENDBRANCH   4   7
BRANCH   1  11
ATOM     10  C   UNL     1       7.472   6.250  18.309  0.00  0.00    +0.000 C 
ATOM     11  O   UNL     1       6.409   5.336  18.029  0.00  0.00    +0.000 OA
ENDBRANCH   1  11
BRANCH   6  12
ATOM     12  N   UNL     1       4.506   3.287  17.323  0.00  0.00    +0.000 N 
ATOM     13  H   UNL     1       4.743   3.468  18.294  0.00  0.00    +0.000 HD
BRANCH  12  14
ATOM     14  C   UNL     1       3.077   3.519  17.127  0.00  0.00    +0.000 C 
BRANCH  14  15
ATOM     15  C   UNL     1       2.518   4.177  18.376  0.00  0.00    +0.000 A 
ATOM     16  C   UNL     1       2.994   5.461  18.702  0.00  0.00    +0.000 A 
ATOM     17  C   UNL     1       2.539   6.136  19.837  0.00  0.00    +0.000 A 
ATOM     18  C   UNL     1       1.595   5.542  20.661  0.00  0.00    +0.000 A 
ATOM     19  C   UNL     1       1.091   4.278  20.341  0.00  0.00    +0.000 A 
ATOM     20  C   UNL     1       1.528   3.589  19.193  0.00  0.00    +0.000 A 
ATOM     21  C   UNL     1       0.919   2.250  18.885  0.00  0.00    +0.000 C 
ENDBRANCH  14  15
ENDBRANCH  12  14
ENDBRANCH   6  12
TORSDOF 5
ENDMDL
MODEL 8
REMARK VINA RESULT:      -6.9      2.633      5.706
REMARK  Name = 
REMARK  7 active torsions:
REMARK  status: ('A' for Active; 'I' for Inactive)
REMARK    1  A    between atoms: C_1  and  O_2
REMARK    2  A    between atoms: O_2  and  C_3
REMARK    3  A    between atoms: C_6  and  N_7
REMARK    4  A    between atoms: C_11  and  N_12
REMARK    5  A    between atoms: N_12  and  C_13
REMARK    6  A    between atoms: C_13  and  C_14
REMARK    7  A    between atoms: C_19  and  C_20
REMARK                            x       y       z     vdW  Elec       q    Type
REMARK                         _______ _______ _______ _____ _____    ______ ____
ROOT
ATOM      1  C   UNL     1       2.612   5.929  18.778  0.00  0.00    +0.000 A 
ATOM      2  C   UNL     1       2.040   6.100  20.050  0.00  0.00    +0.000 A 
ATOM      3  C   UNL     1       2.002   5.047  20.958  0.00  0.00    +0.000 A 
ATOM      4  C   UNL     1       2.513   3.806  20.575  0.00  0.00    +0.000 A 
ATOM      5  C   UNL     1       3.001   3.602  19.275  0.00  0.00    +0.000 A 
ATOM      6  C   UNL     1       3.027   4.651  18.337  0.00  0.00    +0.000 A 
ENDROOT
BRANCH   4   7
ATOM      7  N   UNL     1       2.566   2.709  21.549  0.00  0.00    +0.000 N 
ATOM      8  O   UNL     1       1.542   2.475  22.209  0.00  0.00    +0.000 OA
ATOM      9  O   UNL     1       3.631   2.087  21.663  0.00  0.00    +0.000 OA
ENDBRANCH   4   7
BRANCH   1  11
ATOM     10  C   UNL     1       2.229   8.237  18.409  0.00  0.00    +0.000 C 
ATOM     11  O   UNL     1       2.792   7.008  17.948  0.00  0.00    +0.000 OA
ENDBRANCH   1  11
BRANCH   6  12
ATOM     12  N   UNL     1       3.600   4.377  17.087  0.00  0.00    +0.000 N 
ATOM     13  H   UNL     1       3.491   5.144  16.430  0.00  0.00    +0.000 HD
BRANCH  12  14
ATOM     14  C   UNL     1       4.965   3.861  16.998  0.00  0.00    +0.000 C 
BRANCH  14  15
ATOM     15  C   UNL     1       5.927   4.968  17.391  0.00  0.00    +0.000 A 
ATOM     16  C   UNL     1       6.764   4.738  18.499  0.00  0.00    +0.000 A 
ATOM     17  C   UNL     1       7.674   5.705  18.933  0.00  0.00    +0.000 A 
ATOM     18  C   UNL     1       7.766   6.915  18.263  0.00  0.00    +0.000 A 
ATOM     19  C   UNL     1       6.961   7.154  17.146  0.00  0.00    +0.000 A 
ATOM     20  C   UNL     1       6.048   6.185  16.685  0.00  0.00    +0.000 A 
ATOM     21  C   UNL     1       5.238   6.488  15.456  0.00  0.00    +0.000 C 
ENDBRANCH  14  15
ENDBRANCH  12  14
ENDBRANCH   6  12
TORSDOF 5
ENDMDL
MODEL 9
REMARK VINA RESULT:      -6.8      1.788      2.618
REMARK  Name = 
REMARK  7 active torsions:
REMARK  status: ('A' for Active; 'I' for Inactive)
REMARK    1  A    between atoms: C_1  and  O_2
REMARK    2  A    between atoms: O_2  and  C_3
REMARK    3  A    between atoms: C_6  and  N_7
REMARK    4  A    between atoms: C_11  and  N_12
REMARK    5  A    between atoms: N_12  and  C_13
REMARK    6  A    between atoms: C_13  and  C_14
REMARK    7  A    between atoms: C_19  and  C_20
REMARK                            x       y       z     vdW  Elec       q    Type
REMARK                         _______ _______ _______ _____ _____    ______ ____
ROOT
ATOM      1  C   UNL     1       6.285   4.904  16.886  0.00  0.00    +0.000 A 
ATOM      2  C   UNL     1       7.215   5.503  16.018  0.00  0.00    +0.000 A 
ATOM      3  C   UNL     1       7.268   5.143  14.676  0.00  0.00    +0.000 A 
ATOM      4  C   UNL     1       6.404   4.151  14.209  0.00  0.00    +0.000 A 
ATOM      5  C   UNL     1       5.537   3.482  15.088  0.00  0.00    +0.000 A 
ATOM      6  C   UNL     1       5.487   3.821  16.453  0.00  0.00    +0.000 A 
ENDROOT
BRANCH   4   7
ATOM      7  N   UNL     1       6.381   3.821  12.779  0.00  0.00    +0.000 N 
ATOM      8  O   UNL     1       5.483   3.067  12.376  0.00  0.00    +0.000 OA
ATOM      9  O   UNL     1       7.264   4.307  12.059  0.00  0.00    +0.000 OA
ENDBRANCH   4   7
BRANCH   1  11
ATOM     10  C   UNL     1       7.335   5.722  18.845  0.00  0.00    +0.000 C 
ATOM     11  O   UNL     1       6.127   5.376  18.166  0.00  0.00    +0.000 OA
ENDBRANCH   1  11
BRANCH   6  12
ATOM     12  N   UNL     1       4.538   3.153  17.242  0.00  0.00    +0.000 N 
ATOM     13  H   UNL     1       4.753   3.199  18.234  0.00  0.00    +0.000 HD
BRANCH  12  14
ATOM     14  C   UNL     1       3.111   3.402  17.048  0.00  0.00    +0.000 C 
BRANCH  14  15
ATOM     15  C   UNL     1       2.462   3.582  18.409  0.00  0.00    +0.000 A 
ATOM     16  C   UNL     1       2.135   2.419  19.132  0.00  0.00    +0.000 A 
ATOM     17  C   UNL     1       1.530   2.492  20.388  0.00  0.00    +0.000 A 
ATOM     18  C   UNL     1       1.247   3.730  20.946  0.00  0.00    +0.000 A 
ATOM     19  C   UNL     1       1.587   4.897  20.256  0.00  0.00    +0.000 A 
ATOM     20  C   UNL     1       2.211   4.841  18.995  0.00  0.00    +0.000 A 
ATOM     21  C   UNL     1       2.585   6.133  18.321  0.00  0.00    +0.000 C 
ENDBRANCH  14  15
ENDBRANCH  12  14
ENDBRANCH   6  12
TORSDOF 5
ENDMDL
