MODEL 1
REMARK VINA RESULT:      -8.6      0.000      0.000
REMARK  Name = 
REMARK  10 active torsions:
REMARK  status: ('A' for Active; 'I' for Inactive)
REMARK    1  A    between atoms: C_1  and  C_2
REMARK    2  A    between atoms: C_2  and  C_3
REMARK    3  A    between atoms: C_2  and  N_4
REMARK    4  A    between atoms: C_6  and  C_7
REMARK    5  A    between atoms: N_9  and  C_10
REMARK    6  A    between atoms: C_10  and  C_11
REMARK    7  A    between atoms: N_14  and  C_15
REMARK    8  A    between atoms: C_15  and  C_16
REMARK    9  A    between atoms: C_16  and  C_17
REMARK   10  A    between atoms: C_20  and  N_21
REMARK                            x       y       z     vdW  Elec       q    Type
REMARK                         _______ _______ _______ _____ _____    ______ ____
ROOT
ATOM      1  C   UNL     1       1.546   8.714  20.754  0.00  0.00    +0.000 C 
ENDROOT
BRANCH   1   2
ATOM      2  C   UNL     1       0.013   8.664  20.777  0.00  0.00    +0.000 C 
ATOM      3  C   UNL     1      -0.634   9.800  19.977  0.00  0.00    +0.000 C 
ATOM      4  C   UNL     1      -0.472  11.162  20.652  0.00  0.00    +0.000 C 
ATOM      5  N   UNL     1      -1.000  11.164  22.027  0.00  0.00    +0.000 NA
ATOM      6  C   UNL     1      -0.342  10.128  22.843  0.00  0.00    +0.000 C 
ATOM      7  C   UNL     1      -0.506   8.732  22.223  0.00  0.00    +0.000 C 
BRANCH   5   8
ATOM      8  C   UNL     1      -0.847  12.492  22.665  0.00  0.00    +0.000 C 
BRANCH   8   9
ATOM      9  C   UNL     1      -1.830  13.546  22.115  0.00  0.00    +0.000 C 
BRANCH   9  10
ATOM     10  C   UNL     1      -3.274  13.240  22.441  0.00  0.00    +0.000 A 
ATOM     11  C   UNL     1      -3.705  13.242  23.776  0.00  0.00    +0.000 A 
ATOM     12  C   UNL     1      -5.035  12.955  24.094  0.00  0.00    +0.000 A 
ATOM     13  C   UNL     1      -5.937  12.658  23.066  0.00  0.00    +0.000 A 
ATOM     14  C   UNL     1      -5.525  12.672  21.728  0.00  0.00    +0.000 A 
ATOM     15  C   UNL     1      -4.193  12.961  21.421  0.00  0.00    +0.000 A 
BRANCH  13  16
ATOM     16  N   UNL     1      -7.325  12.309  23.398  0.00  0.00    +0.000 N 
ATOM     17  O   UNL     1      -7.900  12.988  24.261  0.00  0.00    +0.000 OA
ATOM     18  O   UNL     1      -7.837  11.351  22.803  0.00  0.00    +0.000 OA
ENDBRANCH  13  16
ENDBRANCH   9  10
ENDBRANCH   8   9
ENDBRANCH   5   8
ENDBRANCH   1   2
BRANCH   1  21
ATOM     19  C   UNL     1       2.437   7.558  18.782  0.00  0.00    +0.000 C 
ATOM     20  O   UNL     1       2.107   8.483  18.044  0.00  0.00    +0.000 OA
ATOM     21  N   UNL     1       2.157   7.560  20.136  0.00  0.00    +0.000 N 
ATOM     22  H   UNL     1       2.607   6.830  20.680  0.00  0.00    +0.000 HD
BRANCH  19  25
ATOM     23  N   UNL     1       4.679   5.126  17.480  0.00  0.00    +0.000 N 
ATOM     24  N   UNL     1       4.403   6.420  17.780  0.00  0.00    +0.000 NA
ATOM     25  C   UNL     1       3.153   6.371  18.294  0.00  0.00    +0.000 A 
ATOM     26  C   UNL     1       2.643   5.042  18.304  0.00  0.00    +0.000 A 
ATOM     27  C   UNL     1       1.432   4.438  18.697  0.00  0.00    +0.000 A 
ATOM     28  C   UNL     1       1.281   3.056  18.570  0.00  0.00    +0.000 A 
ATOM     29  C   UNL     1       2.317   2.281  18.066  0.00  0.00    +0.000 A 
ATOM     30  C   UNL     1       3.530   2.857  17.663  0.00  0.00    +0.000 A 
ATOM     31  C   UNL     1       3.663   4.249  17.788  0.00  0.00    +0.000 A 
BRANCH  23  33
ATOM     32  C   UNL     1       6.079   5.479  15.475  0.00  0.00    +0.000 C 
ATOM     33  C   UNL     1       5.945   4.789  16.832  0.00  0.00    +0.000 C 
ATOM     34  C   UNL     1       7.146   5.081  17.731  0.00  0.00    +0.000 C 
ENDBRANCH  23  33
ENDBRANCH  19  25
ENDBRANCH   1  21
TORSDOF 8
ENDMDL
MODEL 2
REMARK VINA RESULT:      -8.5      0.576      1.102
REMARK  Name = 
REMARK  10 active torsions:
REMARK  status: ('A' for Active; 'I' for Inactive)
REMARK    1  A    between atoms: C_1  and  C_2
REMARK    2  A    between atoms: C_2  and  C_3
REMARK    3  A    between atoms: C_2  and  N_4
REMARK    4  A    between atoms: C_6  and  C_7
REMARK    5  A    between atoms: N_9  and  C_10
REMARK    6  A    between atoms: C_10  and  C_11
REMARK    7  A    between atoms: N_14  and  C_15
REMARK    8  A    between atoms: C_15  and  C_16
REMARK    9  A    between atoms: C_16  and  C_17
REMARK   10  A    between atoms: C_20  and  N_21
REMARK                            x       y       z     vdW  Elec       q    Type
REMARK                         _______ _______ _______ _____ _____    ______ ____
ROOT
ATOM      1  C   UNL     1       1.338   8.451  21.297  0.00  0.00    +0.000 C 
ENDROOT
BRANCH   1   2
ATOM      2  C   UNL     1      -0.190   8.586  21.237  0.00  0.00    +0.000 C 
ATOM      3  C   UNL     1      -0.655   9.691  20.283  0.00  0.00    +0.000 C 
ATOM      4  C   UNL     1      -0.355  11.092  20.814  0.00  0.00    +0.000 C 
ATOM      5  N   UNL     1      -0.938  11.315  22.149  0.00  0.00    +0.000 NA
ATOM      6  C   UNL     1      -0.450  10.309  23.109  0.00  0.00    +0.000 C 
ATOM      7  C   UNL     1      -0.758   8.880  22.635  0.00  0.00    +0.000 C 
BRANCH   5   8
ATOM      8  C   UNL     1      -0.650  12.680  22.646  0.00  0.00    +0.000 C 
BRANCH   8   9
ATOM      9  C   UNL     1      -1.706  13.718  22.217  0.00  0.00    +0.000 C 
BRANCH   9  10
ATOM     10  C   UNL     1      -3.110  13.345  22.634  0.00  0.00    +0.000 A 
ATOM     11  C   UNL     1      -4.127  13.263  21.671  0.00  0.00    +0.000 A 
ATOM     12  C   UNL     1      -5.431  12.925  22.042  0.00  0.00    +0.000 A 
ATOM     13  C   UNL     1      -5.719  12.675  23.388  0.00  0.00    +0.000 A 
ATOM     14  C   UNL     1      -4.709  12.734  24.357  0.00  0.00    +0.000 A 
ATOM     15  C   UNL     1      -3.408  13.072  23.976  0.00  0.00    +0.000 A 
BRANCH  13  16
ATOM     16  N   UNL     1      -7.097  12.366  23.791  0.00  0.00    +0.000 N 
ATOM     17  O   UNL     1      -7.363  11.191  24.083  0.00  0.00    +0.000 OA
ATOM     18  O   UNL     1      -7.916  13.295  23.805  0.00  0.00    +0.000 OA
ENDBRANCH  13  16
ENDBRANCH   9  10
ENDBRANCH   8   9
ENDBRANCH   5   8
ENDBRANCH   1   2
BRANCH   1  21
ATOM     19  C   UNL     1       2.174   7.474  19.208  0.00  0.00    +0.000 C 
ATOM     20  O   UNL     1       1.960   8.515  18.592  0.00  0.00    +0.000 OA
ATOM     21  N   UNL     1       1.853   7.330  20.545  0.00  0.00    +0.000 N 
ATOM     22  H   UNL     1       2.212   6.495  20.998  0.00  0.00    +0.000 HD
BRANCH  19  25
ATOM     23  N   UNL     1       4.115   5.064  17.457  0.00  0.00    +0.000 N 
ATOM     24  N   UNL     1       3.887   6.358  17.799  0.00  0.00    +0.000 NA
ATOM     25  C   UNL     1       2.787   6.293  18.583  0.00  0.00    +0.000 A 
ATOM     26  C   UNL     1       2.321   4.955  18.722  0.00  0.00    +0.000 A 
ATOM     27  C   UNL     1       1.244   4.335  19.386  0.00  0.00    +0.000 A 
ATOM     28  C   UNL     1       1.098   2.948  19.311  0.00  0.00    +0.000 A 
ATOM     29  C   UNL     1       2.010   2.185  18.592  0.00  0.00    +0.000 A 
ATOM     30  C   UNL     1       3.087   2.778  17.919  0.00  0.00    +0.000 A 
ATOM     31  C   UNL     1       3.215   4.174  17.997  0.00  0.00    +0.000 A 
BRANCH  23  33
ATOM     32  C   UNL     1       5.414   5.845  15.506  0.00  0.00    +0.000 C 
ATOM     33  C   UNL     1       5.209   4.741  16.543  0.00  0.00    +0.000 C 
ATOM     34  C   UNL     1       6.506   4.424  17.287  0.00  0.00    +0.000 C 
ENDBRANCH  23  33
ENDBRANCH  19  25
ENDBRANCH   1  21
TORSDOF 8
ENDMDL
MODEL 3
REMARK VINA RESULT:      -8.2      1.091      2.446
REMARK  Name = 
REMARK  10 active torsions:
REMARK  status: ('A' for Active; 'I' for Inactive)
REMARK    1  A    between atoms: C_1  and  C_2
REMARK    2  A    between atoms: C_2  and  C_3
REMARK    3  A    between atoms: C_2  and  N_4
REMARK    4  A    between atoms: C_6  and  C_7
REMARK    5  A    between atoms: N_9  and  C_10
REMARK    6  A    between atoms: C_10  and  C_11
REMARK    7  A    between atoms: N_14  and  C_15
REMARK    8  A    between atoms: C_15  and  C_16
REMARK    9  A    between atoms: C_16  and  C_17
REMARK   10  A    between atoms: C_20  and  N_21
REMARK                            x       y       z     vdW  Elec       q    Type
REMARK                         _______ _______ _______ _____ _____    ______ ____
ROOT
ATOM      1  C   UNL     1       1.295   8.949  21.146  0.00  0.00    +0.000 C 
ENDROOT
BRANCH   1   2
ATOM      2  C   UNL     1      -0.238   9.013  21.136  0.00  0.00    +0.000 C 
ATOM      3  C   UNL     1      -0.785  10.120  20.230  0.00  0.00    +0.000 C 
ATOM      4  C   UNL     1      -0.535  11.519  20.792  0.00  0.00    +0.000 C 
ATOM      5  N   UNL     1      -1.086  11.676  22.150  0.00  0.00    +0.000 NA
ATOM      6  C   UNL     1      -0.521  10.668  23.065  0.00  0.00    +0.000 C 
ATOM      7  C   UNL     1      -0.775   9.240  22.559  0.00  0.00    +0.000 C 
BRANCH   5   8
ATOM      8  C   UNL     1      -0.846  13.039  22.678  0.00  0.00    +0.000 C 
BRANCH   8   9
ATOM      9  C   UNL     1      -1.905  14.062  22.219  0.00  0.00    +0.000 C 
BRANCH   9  10
ATOM     10  C   UNL     1      -3.324  13.595  22.453  0.00  0.00    +0.000 A 
ATOM     11  C   UNL     1      -3.861  13.613  23.749  0.00  0.00    +0.000 A 
ATOM     12  C   UNL     1      -5.168  13.179  23.982  0.00  0.00    +0.000 A 
ATOM     13  C   UNL     1      -5.940  12.718  22.909  0.00  0.00    +0.000 A 
ATOM     14  C   UNL     1      -5.423  12.713  21.608  0.00  0.00    +0.000 A 
ATOM     15  C   UNL     1      -4.114  13.150  21.385  0.00  0.00    +0.000 A 
BRANCH  13  16
ATOM     16  N   UNL     1      -7.298  12.216  23.155  0.00  0.00    +0.000 N 
ATOM     17  O   UNL     1      -7.916  12.677  24.126  0.00  0.00    +0.000 OA
ATOM     18  O   UNL     1      -7.744  11.354  22.385  0.00  0.00    +0.000 OA
ENDBRANCH  13  16
ENDBRANCH   9  10
ENDBRANCH   8   9
ENDBRANCH   5   8
ENDBRANCH   1   2
BRANCH   1  21
ATOM     19  C   UNL     1       2.198   7.527  19.363  0.00  0.00    +0.000 C 
ATOM     20  O   UNL     1       2.012   8.401  18.520  0.00  0.00    +0.000 OA
ATOM     21  N   UNL     1       1.829   7.688  20.686  0.00  0.00    +0.000 N 
ATOM     22  H   UNL     1       2.166   6.978  21.328  0.00  0.00    +0.000 HD
BRANCH  19  25
ATOM     23  N   UNL     1       3.311   4.162  19.086  0.00  0.00    +0.000 N 
ATOM     24  N   UNL     1       2.540   5.092  19.705  0.00  0.00    +0.000 NA
ATOM     25  C   UNL     1       2.824   6.236  19.043  0.00  0.00    +0.000 A 
ATOM     26  C   UNL     1       3.783   6.021  18.013  0.00  0.00    +0.000 A 
ATOM     27  C   UNL     1       4.429   6.836  17.062  0.00  0.00    +0.000 A 
ATOM     28  C   UNL     1       5.336   6.261  16.169  0.00  0.00    +0.000 A 
ATOM     29  C   UNL     1       5.595   4.897  16.213  0.00  0.00    +0.000 A 
ATOM     30  C   UNL     1       4.969   4.066  17.152  0.00  0.00    +0.000 A 
ATOM     31  C   UNL     1       4.067   4.659  18.049  0.00  0.00    +0.000 A 
BRANCH  23  33
ATOM     32  C   UNL     1       2.890   2.716  21.045  0.00  0.00    +0.000 C 
ATOM     33  C   UNL     1       3.319   2.785  19.580  0.00  0.00    +0.000 C 
ATOM     34  C   UNL     1       2.480   1.855  18.704  0.00  0.00    +0.000 C 
ENDBRANCH  23  33
ENDBRANCH  19  25
ENDBRANCH   1  21
TORSDOF 8
ENDMDL
MODEL 4
REMARK VINA RESULT:      -8.2      1.354      2.746
REMARK  Name = 
REMARK  10 active torsions:
REMARK  status: ('A' for Active; 'I' for Inactive)
REMARK    1  A    between atoms: C_1  and  C_2
REMARK    2  A    between atoms: C_2  and  C_3
REMARK    3  A    between atoms: C_2  and  N_4
REMARK    4  A    between atoms: C_6  and  C_7
REMARK    5  A    between atoms: N_9  and  C_10
REMARK    6  A    between atoms: C_10  and  C_11
REMARK    7  A    between atoms: N_14  and  C_15
REMARK    8  A    between atoms: C_15  and  C_16
REMARK    9  A    between atoms: C_16  and  C_17
REMARK   10  A    between atoms: C_20  and  N_21
REMARK                            x       y       z     vdW  Elec       q    Type
REMARK                         _______ _______ _______ _____ _____    ______ ____
ROOT
ATOM      1  C   UNL     1       1.498   9.831  18.807  0.00  0.00    +0.000 C 
ENDROOT
BRANCH   1   2
ATOM      2  C   UNL     1      -0.017  10.019  18.652  0.00  0.00    +0.000 C 
ATOM      3  C   UNL     1      -0.431  11.491  18.565  0.00  0.00    +0.000 C 
ATOM      4  C   UNL     1      -0.277  12.227  19.896  0.00  0.00    +0.000 C 
ATOM      5  N   UNL     1      -1.025  11.568  20.981  0.00  0.00    +0.000 NA
ATOM      6  C   UNL     1      -0.595  10.168  21.139  0.00  0.00    +0.000 C 
ATOM      7  C   UNL     1      -0.762   9.375  19.834  0.00  0.00    +0.000 C 
BRANCH   5   8
ATOM      8  C   UNL     1      -0.876  12.297  22.262  0.00  0.00    +0.000 C 
BRANCH   8   9
ATOM      9  C   UNL     1      -1.744  13.569  22.340  0.00  0.00    +0.000 C 
BRANCH   9  10
ATOM     10  C   UNL     1      -3.165  13.294  22.777  0.00  0.00    +0.000 A 
ATOM     11  C   UNL     1      -3.418  12.808  24.069  0.00  0.00    +0.000 A 
ATOM     12  C   UNL     1      -4.724  12.543  24.485  0.00  0.00    +0.000 A 
ATOM     13  C   UNL     1      -5.785  12.761  23.598  0.00  0.00    +0.000 A 
ATOM     14  C   UNL     1      -5.548  13.265  22.313  0.00  0.00    +0.000 A 
ATOM     15  C   UNL     1      -4.237  13.528  21.907  0.00  0.00    +0.000 A 
BRANCH  13  16
ATOM     16  N   UNL     1      -7.156  12.440  24.014  0.00  0.00    +0.000 N 
ATOM     17  O   UNL     1      -7.562  11.285  23.819  0.00  0.00    +0.000 OA
ATOM     18  O   UNL     1      -7.831  13.344  24.526  0.00  0.00    +0.000 OA
ENDBRANCH  13  16
ENDBRANCH   9  10
ENDBRANCH   8   9
ENDBRANCH   5   8
ENDBRANCH   1   2
BRANCH   1  21
ATOM     19  C   UNL     1       2.236   7.527  19.218  0.00  0.00    +0.000 C 
ATOM     20  O   UNL     1       2.153   7.678  20.434  0.00  0.00    +0.000 OA
ATOM     21  N   UNL     1       1.978   8.555  18.329  0.00  0.00    +0.000 N 
ATOM     22  H   UNL     1       1.920   8.288  17.351  0.00  0.00    +0.000 HD
BRANCH  19  25
ATOM     23  N   UNL     1       2.616   4.187  18.060  0.00  0.00    +0.000 N 
ATOM     24  N   UNL     1       1.954   5.092  18.826  0.00  0.00    +0.000 NA
ATOM     25  C   UNL     1       2.617   6.249  18.601  0.00  0.00    +0.000 A 
ATOM     26  C   UNL     1       3.703   6.063  17.699  0.00  0.00    +0.000 A 
ATOM     27  C   UNL     1       4.700   6.893  17.149  0.00  0.00    +0.000 A 
ATOM     28  C   UNL     1       5.628   6.353  16.256  0.00  0.00    +0.000 A 
ATOM     29  C   UNL     1       5.566   5.010  15.908  0.00  0.00    +0.000 A 
ATOM     30  C   UNL     1       4.587   4.162  16.443  0.00  0.00    +0.000 A 
ATOM     31  C   UNL     1       3.667   4.717  17.347  0.00  0.00    +0.000 A 
BRANCH  23  33
ATOM     32  C   UNL     1       3.298   1.910  18.732  0.00  0.00    +0.000 C 
ATOM     33  C   UNL     1       2.216   2.781  18.096  0.00  0.00    +0.000 C 
ATOM     34  C   UNL     1       0.864   2.585  18.780  0.00  0.00    +0.000 C 
ENDBRANCH  23  33
ENDBRANCH  19  25
ENDBRANCH   1  21
TORSDOF 8
ENDMDL
MODEL 5
REMARK VINA RESULT:      -8.1      3.080     11.715
REMARK  Name = 
REMARK  10 active torsions:
REMARK  status: ('A' for Active; 'I' for Inactive)
REMARK    1  A    between atoms: C_1  and  C_2
REMARK    2  A    between atoms: C_2  and  C_3
REMARK    3  A    between atoms: C_2  and  N_4
REMARK    4  A    between atoms: C_6  and  C_7
REMARK    5  A    between atoms: N_9  and  C_10
REMARK    6  A    between atoms: C_10  and  C_11
REMARK    7  A    between atoms: N_14  and  C_15
REMARK    8  A    between atoms: C_15  and  C_16
REMARK    9  A    between atoms: C_16  and  C_17
REMARK   10  A    between atoms: C_20  and  N_21
REMARK                            x       y       z     vdW  Elec       q    Type
REMARK                         _______ _______ _______ _____ _____    ______ ____
ROOT
ATOM      1  C   UNL     1      -0.367   9.866  18.161  0.00  0.00    +0.000 C 
ENDROOT
BRANCH   1   2
ATOM      2  C   UNL     1       1.038  10.161  18.703  0.00  0.00    +0.000 C 
ATOM      3  C   UNL     1       2.152   9.589  17.819  0.00  0.00    +0.000 C 
ATOM      4  C   UNL     1       2.232   8.064  17.886  0.00  0.00    +0.000 C 
ATOM      5  N   UNL     1       2.400   7.579  19.267  0.00  0.00    +0.000 NA
ATOM      6  C   UNL     1       1.300   8.052  20.126  0.00  0.00    +0.000 C 
ATOM      7  C   UNL     1       1.199   9.586  20.120  0.00  0.00    +0.000 C 
BRANCH   5   8
ATOM      8  C   UNL     1       2.487   6.100  19.315  0.00  0.00    +0.000 C 
BRANCH   8   9
ATOM      9  C   UNL     1       3.923   5.585  19.537  0.00  0.00    +0.000 C 
BRANCH   9  10
ATOM     10  C   UNL     1       4.687   5.381  18.249  0.00  0.00    +0.000 A 
ATOM     11  C   UNL     1       4.136   4.596  17.225  0.00  0.00    +0.000 A 
ATOM     12  C   UNL     1       4.833   4.394  16.031  0.00  0.00    +0.000 A 
ATOM     13  C   UNL     1       6.094   4.978  15.865  0.00  0.00    +0.000 A 
ATOM     14  C   UNL     1       6.647   5.780  16.871  0.00  0.00    +0.000 A 
ATOM     15  C   UNL     1       5.942   5.977  18.061  0.00  0.00    +0.000 A 
BRANCH  13  16
ATOM     16  N   UNL     1       6.851   4.730  14.632  0.00  0.00    +0.000 N 
ATOM     17  O   UNL     1       7.809   5.477  14.383  0.00  0.00    +0.000 OA
ATOM     18  O   UNL     1       6.485   3.795  13.907  0.00  0.00    +0.000 OA
ENDBRANCH  13  16
ENDBRANCH   9  10
ENDBRANCH   8   9
ENDBRANCH   5   8
ENDBRANCH   1   2
BRANCH   1  21
ATOM     19  C   UNL     1      -2.039  11.612  18.580  0.00  0.00    +0.000 C 
ATOM     20  O   UNL     1      -1.655  12.264  17.612  0.00  0.00    +0.000 OA
ATOM     21  N   UNL     1      -1.429  10.430  18.961  0.00  0.00    +0.000 N 
ATOM     22  H   UNL     1      -1.916   9.891  19.670  0.00  0.00    +0.000 HD
BRANCH  19  25
ATOM     23  N   UNL     1      -4.305  12.748  21.072  0.00  0.00    +0.000 N 
ATOM     24  N   UNL     1      -3.035  12.460  20.690  0.00  0.00    +0.000 NA
ATOM     25  C   UNL     1      -3.174  12.026  19.416  0.00  0.00    +0.000 A 
ATOM     26  C   UNL     1      -4.537  12.034  19.006  0.00  0.00    +0.000 A 
ATOM     27  C   UNL     1      -5.231  11.679  17.832  0.00  0.00    +0.000 A 
ATOM     28  C   UNL     1      -6.617  11.836  17.780  0.00  0.00    +0.000 A 
ATOM     29  C   UNL     1      -7.307  12.343  18.873  0.00  0.00    +0.000 A 
ATOM     30  C   UNL     1      -6.642  12.700  20.054  0.00  0.00    +0.000 A 
ATOM     31  C   UNL     1      -5.249  12.528  20.095  0.00  0.00    +0.000 A 
BRANCH  23  33
ATOM     32  C   UNL     1      -3.554  12.599  23.421  0.00  0.00    +0.000 C 
ATOM     33  C   UNL     1      -4.564  13.194  22.440  0.00  0.00    +0.000 C 
ATOM     34  C   UNL     1      -4.620  14.717  22.548  0.00  0.00    +0.000 C 
ENDBRANCH  23  33
ENDBRANCH  19  25
ENDBRANCH   1  21
TORSDOF 8
ENDMDL
MODEL 6
REMARK VINA RESULT:      -8.1      3.837     10.594
REMARK  Name = 
REMARK  10 active torsions:
REMARK  status: ('A' for Active; 'I' for Inactive)
REMARK    1  A    between atoms: C_1  and  C_2
REMARK    2  A    between atoms: C_2  and  C_3
REMARK    3  A    between atoms: C_2  and  N_4
REMARK    4  A    between atoms: C_6  and  C_7
REMARK    5  A    between atoms: N_9  and  C_10
REMARK    6  A    between atoms: C_10  and  C_11
REMARK    7  A    between atoms: N_14  and  C_15
REMARK    8  A    between atoms: C_15  and  C_16
REMARK    9  A    between atoms: C_16  and  C_17
REMARK   10  A    between atoms: C_20  and  N_21
REMARK                            x       y       z     vdW  Elec       q    Type
REMARK                         _______ _______ _______ _____ _____    ______ ____
ROOT
ATOM      1  C   UNL     1       2.257   6.080  20.744  0.00  0.00    +0.000 C 
ENDROOT
BRANCH   1   2
ATOM      2  C   UNL     1       1.536   4.767  21.080  0.00  0.00    +0.000 C 
ATOM      3  C   UNL     1       2.501   3.621  21.402  0.00  0.00    +0.000 C 
ATOM      4  C   UNL     1       3.254   3.122  20.170  0.00  0.00    +0.000 C 
ATOM      5  N   UNL     1       2.338   2.708  19.092  0.00  0.00    +0.000 NA
ATOM      6  C   UNL     1       1.445   3.815  18.709  0.00  0.00    +0.000 C 
ATOM      7  C   UNL     1       0.639   4.333  19.910  0.00  0.00    +0.000 C 
BRANCH   5   8
ATOM      8  C   UNL     1       3.081   2.215  17.909  0.00  0.00    +0.000 C 
BRANCH   8   9
ATOM      9  C   UNL     1       3.207   3.269  16.790  0.00  0.00    +0.000 C 
BRANCH   9  10
ATOM     10  C   UNL     1       4.363   4.222  16.999  0.00  0.00    +0.000 A 
ATOM     11  C   UNL     1       5.646   3.875  16.549  0.00  0.00    +0.000 A 
ATOM     12  C   UNL     1       6.724   4.742  16.740  0.00  0.00    +0.000 A 
ATOM     13  C   UNL     1       6.516   5.962  17.392  0.00  0.00    +0.000 A 
ATOM     14  C   UNL     1       5.237   6.330  17.828  0.00  0.00    +0.000 A 
ATOM     15  C   UNL     1       4.165   5.456  17.632  0.00  0.00    +0.000 A 
BRANCH  13  16
ATOM     16  N   UNL     1       7.655   6.856  17.637  0.00  0.00    +0.000 N 
ATOM     17  O   UNL     1       8.204   6.800  18.747  0.00  0.00    +0.000 OA
ATOM     18  O   UNL     1       7.995   7.623  16.725  0.00  0.00    +0.000 OA
ENDBRANCH  13  16
ENDBRANCH   9  10
ENDBRANCH   8   9
ENDBRANCH   5   8
ENDBRANCH   1   2
BRANCH   1  21
ATOM     19  C   UNL     1       1.470   8.242  19.892  0.00  0.00    +0.000 C 
ATOM     20  O   UNL     1       2.279   8.214  18.968  0.00  0.00    +0.000 OA
ATOM     21  N   UNL     1       1.417   7.250  20.854  0.00  0.00    +0.000 N 
ATOM     22  H   UNL     1       0.617   7.284  21.479  0.00  0.00    +0.000 HD
BRANCH  19  25
ATOM     23  N   UNL     1      -0.630  10.917  20.927  0.00  0.00    +0.000 N 
ATOM     24  N   UNL     1       0.345  10.017  21.213  0.00  0.00    +0.000 NA
ATOM     25  C   UNL     1       0.493   9.327  20.060  0.00  0.00    +0.000 A 
ATOM     26  C   UNL     1      -0.400   9.791  19.053  0.00  0.00    +0.000 A 
ATOM     27  C   UNL     1      -0.676   9.434  17.719  0.00  0.00    +0.000 A 
ATOM     28  C   UNL     1      -1.645  10.142  17.004  0.00  0.00    +0.000 A 
ATOM     29  C   UNL     1      -2.327  11.194  17.602  0.00  0.00    +0.000 A 
ATOM     30  C   UNL     1      -2.075  11.567  18.929  0.00  0.00    +0.000 A 
ATOM     31  C   UNL     1      -1.104  10.840  19.637  0.00  0.00    +0.000 A 
BRANCH  23  33
ATOM     32  C   UNL     1      -1.122  11.127  23.339  0.00  0.00    +0.000 C 
ATOM     33  C   UNL     1      -1.115  11.815  21.974  0.00  0.00    +0.000 C 
ATOM     34  C   UNL     1      -0.336  13.129  22.012  0.00  0.00    +0.000 C 
ENDBRANCH  23  33
ENDBRANCH  19  25
ENDBRANCH   1  21
TORSDOF 8
ENDMDL
MODEL 7
REMARK VINA RESULT:      -8.0      0.739      1.349
REMARK  Name = 
REMARK  10 active torsions:
REMARK  status: ('A' for Active; 'I' for Inactive)
REMARK    1  A    between atoms: C_1  and  C_2
REMARK    2  A    between atoms: C_2  and  C_3
REMARK    3  A    between atoms: C_2  and  N_4
REMARK    4  A    between atoms: C_6  and  C_7
REMARK    5  A    between atoms: N_9  and  C_10
REMARK    6  A    between atoms: C_10  and  C_11
REMARK    7  A    between atoms: N_14  and  C_15
REMARK    8  A    between atoms: C_15  and  C_16
REMARK    9  A    between atoms: C_16  and  C_17
REMARK   10  A    between atoms: C_20  and  N_21
REMARK                            x       y       z     vdW  Elec       q    Type
REMARK                         _______ _______ _______ _____ _____    ______ ____
ROOT
ATOM      1  C   UNL     1       1.599   8.625  20.939  0.00  0.00    +0.000 C 
ENDROOT
BRANCH   1   2
ATOM      2  C   UNL     1       0.065   8.617  20.909  0.00  0.00    +0.000 C 
ATOM      3  C   UNL     1      -0.522   9.740  20.048  0.00  0.00    +0.000 C 
ATOM      4  C   UNL     1      -0.346  11.120  20.680  0.00  0.00    +0.000 C 
ATOM      5  N   UNL     1      -0.921  11.186  22.035  0.00  0.00    +0.000 NA
ATOM      6  C   UNL     1      -0.320  10.163  22.909  0.00  0.00    +0.000 C 
ATOM      7  C   UNL     1      -0.500   8.750  22.332  0.00  0.00    +0.000 C 
BRANCH   5   8
ATOM      8  C   UNL     1      -0.753  12.532  22.631  0.00  0.00    +0.000 C 
BRANCH   8   9
ATOM      9  C   UNL     1      -1.623  13.608  21.951  0.00  0.00    +0.000 C 
BRANCH   9  10
ATOM     10  C   UNL     1      -3.089  13.243  21.899  0.00  0.00    +0.000 A 
ATOM     11  C   UNL     1      -3.693  12.950  20.667  0.00  0.00    +0.000 A 
ATOM     12  C   UNL     1      -5.048  12.616  20.601  0.00  0.00    +0.000 A 
ATOM     13  C   UNL     1      -5.804  12.582  21.778  0.00  0.00    +0.000 A 
ATOM     14  C   UNL     1      -5.209  12.852  23.017  0.00  0.00    +0.000 A 
ATOM     15  C   UNL     1      -3.853  13.184  23.072  0.00  0.00    +0.000 A 
BRANCH  13  16
ATOM     16  N   UNL     1      -7.239  12.278  21.710  0.00  0.00    +0.000 N 
ATOM     17  O   UNL     1      -7.729  11.598  22.623  0.00  0.00    +0.000 OA
ATOM     18  O   UNL     1      -7.875  12.710  20.739  0.00  0.00    +0.000 OA
ENDBRANCH  13  16
ENDBRANCH   9  10
ENDBRANCH   8   9
ENDBRANCH   5   8
ENDBRANCH   1   2
BRANCH   1  21
ATOM     19  C   UNL     1       2.460   7.767  18.807  0.00  0.00    +0.000 C 
ATOM     20  O   UNL     1       2.115   8.786  18.215  0.00  0.00    +0.000 OA
ATOM     21  N   UNL     1       2.203   7.574  20.153  0.00  0.00    +0.000 N 
ATOM     22  H   UNL     1       2.664   6.777  20.580  0.00  0.00    +0.000 HD
BRANCH  19  25
ATOM     23  N   UNL     1       4.650   5.578  17.062  0.00  0.00    +0.000 N 
ATOM     24  N   UNL     1       4.349   6.826  17.501  0.00  0.00    +0.000 NA
ATOM     25  C   UNL     1       3.170   6.665  18.144  0.00  0.00    +0.000 A 
ATOM     26  C   UNL     1       2.729   5.313  18.096  0.00  0.00    +0.000 A 
ATOM     27  C   UNL     1       1.601   4.612  18.567  0.00  0.00    +0.000 A 
ATOM     28  C   UNL     1       1.502   3.237  18.339  0.00  0.00    +0.000 A 
ATOM     29  C   UNL     1       2.509   2.565  17.659  0.00  0.00    +0.000 A 
ATOM     30  C   UNL     1       3.639   3.240  17.176  0.00  0.00    +0.000 A 
ATOM     31  C   UNL     1       3.720   4.623  17.404  0.00  0.00    +0.000 A 
BRANCH  23  33
ATOM     32  C   UNL     1       6.913   4.587  17.024  0.00  0.00    +0.000 C 
ATOM     33  C   UNL     1       5.849   5.366  16.252  0.00  0.00    +0.000 C 
ATOM     34  C   UNL     1       5.528   4.702  14.914  0.00  0.00    +0.000 C 
ENDBRANCH  23  33
ENDBRANCH  19  25
ENDBRANCH   1  21
TORSDOF 8
ENDMDL
MODEL 8
REMARK VINA RESULT:      -8.0      4.472      6.787
REMARK  Name = 
REMARK  10 active torsions:
REMARK  status: ('A' for Active; 'I' for Inactive)
REMARK    1  A    between atoms: C_1  and  C_2
REMARK    2  A    between atoms: C_2  and  C_3
REMARK    3  A    between atoms: C_2  and  N_4
REMARK    4  A    between atoms: C_6  and  C_7
REMARK    5  A    between atoms: N_9  and  C_10
REMARK    6  A    between atoms: C_10  and  C_11
REMARK    7  A    between atoms: N_14  and  C_15
REMARK    8  A    between atoms: C_15  and  C_16
REMARK    9  A    between atoms: C_16  and  C_17
REMARK   10  A    between atoms: C_20  and  N_21
REMARK                            x       y       z     vdW  Elec       q    Type
REMARK                         _______ _______ _______ _____ _____    ______ ____
ROOT
ATOM      1  C   UNL     1       2.715   1.842  18.424  0.00  0.00    +0.000 C 
ENDROOT
BRANCH   1   2
ATOM      2  C   UNL     1       2.589   1.835  19.953  0.00  0.00    +0.000 C 
ATOM      3  C   UNL     1       1.183   2.200  20.440  0.00  0.00    +0.000 C 
ATOM      4  C   UNL     1       0.850   3.676  20.222  0.00  0.00    +0.000 C 
ATOM      5  N   UNL     1       1.838   4.565  20.857  0.00  0.00    +0.000 NA
ATOM      6  C   UNL     1       3.194   4.287  20.353  0.00  0.00    +0.000 C 
ATOM      7  C   UNL     1       3.591   2.820  20.578  0.00  0.00    +0.000 C 
BRANCH   5   8
ATOM      8  C   UNL     1       1.496   5.992  20.648  0.00  0.00    +0.000 C 
BRANCH   8   9
ATOM      9  C   UNL     1       2.339   6.662  19.544  0.00  0.00    +0.000 C 
BRANCH   9  10
ATOM     10  C   UNL     1       1.961   8.106  19.302  0.00  0.00    +0.000 A 
ATOM     11  C   UNL     1       1.162   8.786  20.233  0.00  0.00    +0.000 A 
ATOM     12  C   UNL     1       0.800  10.118  20.020  0.00  0.00    +0.000 A 
ATOM     13  C   UNL     1       1.236  10.771  18.862  0.00  0.00    +0.000 A 
ATOM     14  C   UNL     1       2.050  10.111  17.934  0.00  0.00    +0.000 A 
ATOM     15  C   UNL     1       2.408   8.778  18.156  0.00  0.00    +0.000 A 
BRANCH  13  16
ATOM     16  N   UNL     1       0.819  12.156  18.610  0.00  0.00    +0.000 N 
ATOM     17  O   UNL     1      -0.331  12.481  18.938  0.00  0.00    +0.000 OA
ATOM     18  O   UNL     1       1.638  12.918  18.076  0.00  0.00    +0.000 OA
ENDBRANCH  13  16
ENDBRANCH   9  10
ENDBRANCH   8   9
ENDBRANCH   5   8
ENDBRANCH   1   2
BRANCH   1  21
ATOM     19  C   UNL     1       3.719   3.671  17.134  0.00  0.00    +0.000 C 
ATOM     20  O   UNL     1       2.619   4.043  16.734  0.00  0.00    +0.000 OA
ATOM     21  N   UNL     1       3.872   2.556  17.938  0.00  0.00    +0.000 N 
ATOM     22  H   UNL     1       4.796   2.426  18.340  0.00  0.00    +0.000 HD
BRANCH  19  25
ATOM     23  N   UNL     1       6.734   5.547  16.968  0.00  0.00    +0.000 N 
ATOM     24  N   UNL     1       5.669   5.106  17.683  0.00  0.00    +0.000 NA
ATOM     25  C   UNL     1       4.966   4.370  16.793  0.00  0.00    +0.000 A 
ATOM     26  C   UNL     1       5.589   4.362  15.513  0.00  0.00    +0.000 A 
ATOM     27  C   UNL     1       5.291   3.793  14.259  0.00  0.00    +0.000 A 
ATOM     28  C   UNL     1       6.168   3.990  13.190  0.00  0.00    +0.000 A 
ATOM     29  C   UNL     1       7.326   4.737  13.361  0.00  0.00    +0.000 A 
ATOM     30  C   UNL     1       7.643   5.318  14.597  0.00  0.00    +0.000 A 
ATOM     31  C   UNL     1       6.748   5.118  15.660  0.00  0.00    +0.000 A 
BRANCH  23  33
ATOM     32  C   UNL     1       7.308   7.909  17.409  0.00  0.00    +0.000 C 
ATOM     33  C   UNL     1       7.704   6.445  17.594  0.00  0.00    +0.000 C 
ATOM     34  C   UNL     1       7.932   6.107  19.067  0.00  0.00    +0.000 C 
ENDBRANCH  23  33
ENDBRANCH  19  25
ENDBRANCH   1  21
TORSDOF 8
ENDMDL
MODEL 9
REMARK VINA RESULT:      -7.8      4.189      6.282
REMARK  Name = 
REMARK  10 active torsions:
REMARK  status: ('A' for Active; 'I' for Inactive)
REMARK    1  A    between atoms: C_1  and  C_2
REMARK    2  A    between atoms: C_2  and  C_3
REMARK    3  A    between atoms: C_2  and  N_4
REMARK    4  A    between atoms: C_6  and  C_7
REMARK    5  A    between atoms: N_9  and  C_10
REMARK    6  A    between atoms: C_10  and  C_11
REMARK    7  A    between atoms: N_14  and  C_15
REMARK    8  A    between atoms: C_15  and  C_16
REMARK    9  A    between atoms: C_16  and  C_17
REMARK   10  A    between atoms: C_20  and  N_21
REMARK                            x       y       z     vdW  Elec       q    Type
REMARK                         _______ _______ _______ _____ _____    ______ ____
ROOT
ATOM      1  C   UNL     1       2.357   1.984  18.866  0.00  0.00    +0.000 C 
ENDROOT
BRANCH   1   2
ATOM      2  C   UNL     1       2.032   2.282  20.336  0.00  0.00    +0.000 C 
ATOM      3  C   UNL     1       0.709   3.034  20.515  0.00  0.00    +0.000 C 
ATOM      4  C   UNL     1       0.784   4.482  20.032  0.00  0.00    +0.000 C 
ATOM      5  N   UNL     1       1.869   5.229  20.692  0.00  0.00    +0.000 NA
ATOM      6  C   UNL     1       3.168   4.569  20.475  0.00  0.00    +0.000 C 
ATOM      7  C   UNL     1       3.155   3.117  20.975  0.00  0.00    +0.000 C 
BRANCH   5   8
ATOM      8  C   UNL     1       1.923   6.634  20.224  0.00  0.00    +0.000 C 
BRANCH   8   9
ATOM      9  C   UNL     1       1.268   7.626  21.205  0.00  0.00    +0.000 C 
BRANCH   9  10
ATOM     10  C   UNL     1       1.066   9.003  20.613  0.00  0.00    +0.000 A 
ATOM     11  C   UNL     1       1.201   9.196  19.230  0.00  0.00    +0.000 A 
ATOM     12  C   UNL     1       1.024  10.463  18.669  0.00  0.00    +0.000 A 
ATOM     13  C   UNL     1       0.716  11.545  19.501  0.00  0.00    +0.000 A 
ATOM     14  C   UNL     1       0.559  11.363  20.880  0.00  0.00    +0.000 A 
ATOM     15  C   UNL     1       0.737  10.091  21.432  0.00  0.00    +0.000 A 
BRANCH  13  16
ATOM     16  N   UNL     1       0.575  12.887  18.923  0.00  0.00    +0.000 N 
ATOM     17  O   UNL     1       1.294  13.789  19.377  0.00  0.00    +0.000 OA
ATOM     18  O   UNL     1      -0.260  13.043  18.021  0.00  0.00    +0.000 OA
ENDBRANCH  13  16
ENDBRANCH   9  10
ENDBRANCH   8   9
ENDBRANCH   5   8
ENDBRANCH   1   2
BRANCH   1  21
ATOM     19  C   UNL     1       3.530   3.441  17.280  0.00  0.00    +0.000 C 
ATOM     20  O   UNL     1       2.514   3.586  16.604  0.00  0.00    +0.000 OA
ATOM     21  N   UNL     1       3.563   2.624  18.395  0.00  0.00    +0.000 N 
ATOM     22  H   UNL     1       4.397   2.696  18.970  0.00  0.00    +0.000 HD
BRANCH  19  25
ATOM     23  N   UNL     1       6.605   5.223  17.184  0.00  0.00    +0.000 N 
ATOM     24  N   UNL     1       5.533   4.777  17.886  0.00  0.00    +0.000 NA
ATOM     25  C   UNL     1       4.796   4.117  16.964  0.00  0.00    +0.000 A 
ATOM     26  C   UNL     1       5.406   4.161  15.679  0.00  0.00    +0.000 A 
ATOM     27  C   UNL     1       5.077   3.674  14.398  0.00  0.00    +0.000 A 
ATOM     28  C   UNL     1       5.949   3.903  13.331  0.00  0.00    +0.000 A 
ATOM     29  C   UNL     1       7.134   4.599  13.531  0.00  0.00    +0.000 A 
ATOM     30  C   UNL     1       7.483   5.098  14.793  0.00  0.00    +0.000 A 
ATOM     31  C   UNL     1       6.592   4.868  15.854  0.00  0.00    +0.000 A 
BRANCH  23  33
ATOM     32  C   UNL     1       7.372   7.537  17.584  0.00  0.00    +0.000 C 
ATOM     33  C   UNL     1       7.611   6.051  17.848  0.00  0.00    +0.000 C 
ATOM     34  C   UNL     1       7.702   5.755  19.345  0.00  0.00    +0.000 C 
ENDBRANCH  23  33
ENDBRANCH  19  25
ENDBRANCH   1  21
TORSDOF 8
ENDMDL
