MODEL 1
REMARK VINA RESULT:      -7.9      0.000      0.000
REMARK  Name = 
REMARK  7 active torsions:
REMARK  status: ('A' for Active; 'I' for Inactive)
REMARK    1  A    between atoms: C_1  and  C_2
REMARK    2  A    between atoms: C_7  and  S_8
REMARK    3  A    between atoms: S_8  and  C_11
REMARK    4  A    between atoms: C_11  and  C_12
REMARK    5  A    between atoms: C_12  and  C_13
REMARK    6  A    between atoms: N_15  and  C_16
REMARK    7  A    between atoms: N_15  and  C_17
REMARK                            x       y       z     vdW  Elec       q    Type
REMARK                         _______ _______ _______ _____ _____    ______ ____
ROOT
ATOM      1  S   UNL     1       1.900   4.537  20.737  0.00  0.00    +0.000 S 
ATOM      2  O   UNL     1       0.557   4.434  20.204  0.00  0.00    +0.000 OA
ATOM      3  O   UNL     1       2.309   3.724  21.867  0.00  0.00    +0.000 OA
ENDROOT
BRANCH   1  10
ATOM      4  C   UNL     1       1.764   2.272  18.362  0.00  0.00    +0.000 C 
ATOM      5  C   UNL     1       2.921   3.228  18.427  0.00  0.00    +0.000 A 
ATOM      6  C   UNL     1       3.900   3.128  17.417  0.00  0.00    +0.000 A 
ATOM      7  C   UNL     1       5.018   3.962  17.413  0.00  0.00    +0.000 A 
ATOM      8  C   UNL     1       5.203   4.886  18.439  0.00  0.00    +0.000 A 
ATOM      9  C   UNL     1       4.242   5.016  19.437  0.00  0.00    +0.000 A 
ATOM     10  C   UNL     1       3.086   4.214  19.425  0.00  0.00    +0.000 A 
ATOM     11  O   UNL     1       6.261   5.754  18.490  0.00  0.00    +0.000 OA
ATOM     12  C   UNL     1       7.352   5.379  17.657  0.00  0.00    +0.000 C 
ATOM     13  C   UNL     1       7.043   4.691  16.330  0.00  0.00    +0.000 C 
ATOM     14  O   UNL     1       7.776   4.748  15.346  0.00  0.00    +0.000 OA
ATOM     15  N   UNL     1       5.918   3.910  16.347  0.00  0.00    +0.000 N 
ATOM     16  H   UNL     1       5.727   3.358  15.521  0.00  0.00    +0.000 HD
ENDBRANCH   1  10
BRANCH   1  17
ATOM     17  C   UNL     1       2.169   6.247  21.149  0.00  0.00    +0.000 C 
BRANCH  17  18
ATOM     18  C   UNL     1       1.816   7.195  20.003  0.00  0.00    +0.000 C 
BRANCH  18  19
ATOM     19  C   UNL     1       1.228   8.485  20.562  0.00  0.00    +0.000 C 
ATOM     20  O   UNL     1       0.953   8.559  21.762  0.00  0.00    +0.000 OA
ATOM     21  N   UNL     1       1.048   9.575  19.703  0.00  0.00    +0.000 N 
ATOM     22  C   UNL     1       1.280   9.504  18.264  0.00  0.00    +0.000 C 
BRANCH  21  23
ATOM     23  C   UNL     1       0.618  10.864  20.316  0.00  0.00    +0.000 C 
ATOM     24  C   UNL     1       1.385  12.132  19.882  0.00  0.00    +0.000 C 
ATOM     25  C   UNL     1       0.893  12.795  18.594  0.00  0.00    +0.000 C 
ATOM     26  C   UNL     1      -0.624  12.942  18.530  0.00  0.00    +0.000 C 
ATOM     27  C   UNL     1      -1.354  11.652  18.884  0.00  0.00    +0.000 C 
ATOM     28  C   UNL     1      -0.901  11.101  20.232  0.00  0.00    +0.000 C 
ENDBRANCH  21  23
ENDBRANCH  18  19
ENDBRANCH  17  18
ENDBRANCH   1  17
TORSDOF 5
ENDMDL
MODEL 2
REMARK VINA RESULT:      -7.8      4.851      7.248
REMARK  Name = 
REMARK  7 active torsions:
REMARK  status: ('A' for Active; 'I' for Inactive)
REMARK    1  A    between atoms: C_1  and  C_2
REMARK    2  A    between atoms: C_7  and  S_8
REMARK    3  A    between atoms: S_8  and  C_11
REMARK    4  A    between atoms: C_11  and  C_12
REMARK    5  A    between atoms: C_12  and  C_13
REMARK    6  A    between atoms: N_15  and  C_16
REMARK    7  A    between atoms: N_15  and  C_17
REMARK                            x       y       z     vdW  Elec       q    Type
REMARK                         _______ _______ _______ _____ _____    ______ ____
ROOT
ATOM      1  S   UNL     1       7.523   5.227  18.663  0.00  0.00    +0.000 S 
ATOM      2  O   UNL     1       7.664   5.365  20.099  0.00  0.00    +0.000 OA
ATOM      3  O   UNL     1       8.429   4.378  17.912  0.00  0.00    +0.000 OA
ENDROOT
BRANCH   1  10
ATOM      4  C   UNL     1       6.196   4.587  15.728  0.00  0.00    +0.000 C 
ATOM      5  C   UNL     1       5.392   4.380  16.979  0.00  0.00    +0.000 A 
ATOM      6  C   UNL     1       4.084   3.872  16.833  0.00  0.00    +0.000 A 
ATOM      7  C   UNL     1       3.262   3.669  17.941  0.00  0.00    +0.000 A 
ATOM      8  C   UNL     1       3.712   4.007  19.216  0.00  0.00    +0.000 A 
ATOM      9  C   UNL     1       5.005   4.493  19.388  0.00  0.00    +0.000 A 
ATOM     10  C   UNL     1       5.861   4.655  18.283  0.00  0.00    +0.000 A 
ATOM     11  O   UNL     1       2.973   3.815  20.352  0.00  0.00    +0.000 OA
ATOM     12  C   UNL     1       1.584   3.628  20.109  0.00  0.00    +0.000 C 
ATOM     13  C   UNL     1       1.166   2.890  18.839  0.00  0.00    +0.000 C 
ATOM     14  O   UNL     1       0.120   2.256  18.733  0.00  0.00    +0.000 OA
ATOM     15  N   UNL     1       2.011   3.072  17.776  0.00  0.00    +0.000 N 
ATOM     16  H   UNL     1       1.725   2.682  16.888  0.00  0.00    +0.000 HD
ENDBRANCH   1  10
BRANCH   1  17
ATOM     17  C   UNL     1       7.585   6.864  17.971  0.00  0.00    +0.000 C 
BRANCH  17  18
ATOM     18  C   UNL     1       8.256   7.875  18.902  0.00  0.00    +0.000 C 
BRANCH  18  19
ATOM     19  C   UNL     1       8.542   9.165  18.143  0.00  0.00    +0.000 C 
ATOM     20  O   UNL     1       8.287   9.233  16.938  0.00  0.00    +0.000 OA
ATOM     21  N   UNL     1       9.055  10.263  18.844  0.00  0.00    +0.000 N 
ATOM     22  C   UNL     1       9.449  10.201  20.247  0.00  0.00    +0.000 C 
BRANCH  21  23
ATOM     23  C   UNL     1       9.175  11.551  18.103  0.00  0.00    +0.000 C 
ATOM     24  C   UNL     1       8.725  12.827  18.846  0.00  0.00    +0.000 C 
ATOM     25  C   UNL     1       9.776  13.468  19.756  0.00  0.00    +0.000 C 
ATOM     26  C   UNL     1      11.149  13.587  19.103  0.00  0.00    +0.000 C 
ATOM     27  C   UNL     1      11.603  12.289  18.447  0.00  0.00    +0.000 C 
ATOM     28  C   UNL     1      10.562  11.760  17.467  0.00  0.00    +0.000 C 
ENDBRANCH  21  23
ENDBRANCH  18  19
ENDBRANCH  17  18
ENDBRANCH   1  17
TORSDOF 5
ENDMDL
MODEL 3
REMARK VINA RESULT:      -7.7      1.403      1.846
REMARK  Name = 
REMARK  7 active torsions:
REMARK  status: ('A' for Active; 'I' for Inactive)
REMARK    1  A    between atoms: C_1  and  C_2
REMARK    2  A    between atoms: C_7  and  S_8
REMARK    3  A    between atoms: S_8  and  C_11
REMARK    4  A    between atoms: C_11  and  C_12
REMARK    5  A    between atoms: C_12  and  C_13
REMARK    6  A    between atoms: N_15  and  C_16
REMARK    7  A    between atoms: N_15  and  C_17
REMARK                            x       y       z     vdW  Elec       q    Type
REMARK                         _______ _______ _______ _____ _____    ______ ____
ROOT
ATOM      1  S   UNL     1       2.549   3.191  20.674  0.00  0.00    +0.000 S 
ATOM      2  O   UNL     1       1.273   2.596  20.336  0.00  0.00    +0.000 OA
ATOM      3  O   UNL     1       3.505   2.468  21.493  0.00  0.00    +0.000 OA
ENDROOT
BRANCH   1  10
ATOM      4  C   UNL     1       1.323   3.611  17.657  0.00  0.00    +0.000 C 
ATOM      5  C   UNL     1       2.787   3.826  17.911  0.00  0.00    +0.000 A 
ATOM      6  C   UNL     1       3.580   4.245  16.822  0.00  0.00    +0.000 A 
ATOM      7  C   UNL     1       4.952   4.447  16.966  0.00  0.00    +0.000 A 
ATOM      8  C   UNL     1       5.570   4.197  18.189  0.00  0.00    +0.000 A 
ATOM      9  C   UNL     1       4.807   3.801  19.284  0.00  0.00    +0.000 A 
ATOM     10  C   UNL     1       3.414   3.640  19.164  0.00  0.00    +0.000 A 
ATOM     11  O   UNL     1       6.906   4.396  18.413  0.00  0.00    +0.000 OA
ATOM     12  C   UNL     1       7.681   4.485  17.224  0.00  0.00    +0.000 C 
ATOM     13  C   UNL     1       7.047   5.137  15.997  0.00  0.00    +0.000 C 
ATOM     14  O   UNL     1       7.691   5.700  15.116  0.00  0.00    +0.000 OA
ATOM     15  N   UNL     1       5.693   4.958  15.900  0.00  0.00    +0.000 N 
ATOM     16  H   UNL     1       5.244   5.288  15.055  0.00  0.00    +0.000 HD
ENDBRANCH   1  10
BRANCH   1  17
ATOM     17  C   UNL     1       2.208   4.751  21.457  0.00  0.00    +0.000 C 
BRANCH  17  18
ATOM     18  C   UNL     1       1.106   5.540  20.749  0.00  0.00    +0.000 C 
BRANCH  18  19
ATOM     19  C   UNL     1       1.636   6.907  20.331  0.00  0.00    +0.000 C 
ATOM     20  O   UNL     1       2.653   6.979  19.636  0.00  0.00    +0.000 OA
ATOM     21  N   UNL     1       0.930   8.052  20.714  0.00  0.00    +0.000 N 
ATOM     22  C   UNL     1      -0.226   8.017  21.602  0.00  0.00    +0.000 C 
BRANCH  21  23
ATOM     23  C   UNL     1       1.391   9.357  20.157  0.00  0.00    +0.000 C 
ATOM     24  C   UNL     1       1.168   9.587  18.647  0.00  0.00    +0.000 C 
ATOM     25  C   UNL     1      -0.212  10.119  18.255  0.00  0.00    +0.000 C 
ATOM     26  C   UNL     1      -0.686  11.275  19.130  0.00  0.00    +0.000 C 
ATOM     27  C   UNL     1      -0.530  10.988  20.618  0.00  0.00    +0.000 C 
ATOM     28  C   UNL     1       0.895  10.571  20.964  0.00  0.00    +0.000 C 
ENDBRANCH  21  23
ENDBRANCH  18  19
ENDBRANCH  17  18
ENDBRANCH   1  17
TORSDOF 5
ENDMDL
MODEL 4
REMARK VINA RESULT:      -7.7      1.007      1.479
REMARK  Name = 
REMARK  7 active torsions:
REMARK  status: ('A' for Active; 'I' for Inactive)
REMARK    1  A    between atoms: C_1  and  C_2
REMARK    2  A    between atoms: C_7  and  S_8
REMARK    3  A    between atoms: S_8  and  C_11
REMARK    4  A    between atoms: C_11  and  C_12
REMARK    5  A    between atoms: C_12  and  C_13
REMARK    6  A    between atoms: N_15  and  C_16
REMARK    7  A    between atoms: N_15  and  C_17
REMARK                            x       y       z     vdW  Elec       q    Type
REMARK                         _______ _______ _______ _____ _____    ______ ____
ROOT
ATOM      1  S   UNL     1       2.156   4.102  20.413  0.00  0.00    +0.000 S 
ATOM      2  O   UNL     1       0.804   4.092  19.894  0.00  0.00    +0.000 OA
ATOM      3  O   UNL     1       2.586   3.099  21.370  0.00  0.00    +0.000 OA
ENDROOT
BRANCH   1  10
ATOM      4  C   UNL     1       2.315   1.901  17.980  0.00  0.00    +0.000 C 
ATOM      5  C   UNL     1       3.284   3.047  18.024  0.00  0.00    +0.000 A 
ATOM      6  C   UNL     1       4.218   3.146  16.970  0.00  0.00    +0.000 A 
ATOM      7  C   UNL     1       5.167   4.167  16.944  0.00  0.00    +0.000 A 
ATOM      8  C   UNL     1       5.233   5.087  17.988  0.00  0.00    +0.000 A 
ATOM      9  C   UNL     1       4.312   5.021  19.030  0.00  0.00    +0.000 A 
ATOM     10  C   UNL     1       3.318   4.024  19.042  0.00  0.00    +0.000 A 
ATOM     11  O   UNL     1       6.120   6.129  18.020  0.00  0.00    +0.000 OA
ATOM     12  C   UNL     1       7.220   5.975  17.131  0.00  0.00    +0.000 C 
ATOM     13  C   UNL     1       6.977   5.271  15.798  0.00  0.00    +0.000 C 
ATOM     14  O   UNL     1       7.641   5.480  14.787  0.00  0.00    +0.000 OA
ATOM     15  N   UNL     1       6.011   4.300  15.840  0.00  0.00    +0.000 N 
ATOM     16  H   UNL     1       5.883   3.741  15.007  0.00  0.00    +0.000 HD
ENDBRANCH   1  10
BRANCH   1  17
ATOM     17  C   UNL     1       2.433   5.710  21.122  0.00  0.00    +0.000 C 
BRANCH  17  18
ATOM     18  C   UNL     1       1.186   6.594  21.087  0.00  0.00    +0.000 C 
BRANCH  18  19
ATOM     19  C   UNL     1       1.457   7.836  20.247  0.00  0.00    +0.000 C 
ATOM     20  O   UNL     1       2.291   7.787  19.339  0.00  0.00    +0.000 OA
ATOM     21  N   UNL     1       0.721   8.999  20.500  0.00  0.00    +0.000 N 
ATOM     22  C   UNL     1      -0.212   9.125  21.614  0.00  0.00    +0.000 C 
BRANCH  21  23
ATOM     23  C   UNL     1       0.903  10.141  19.559  0.00  0.00    +0.000 C 
ATOM     24  C   UNL     1       0.244  10.010  18.170  0.00  0.00    +0.000 C 
ATOM     25  C   UNL     1      -1.228  10.424  18.093  0.00  0.00    +0.000 C 
ATOM     26  C   UNL     1      -1.522  11.747  18.791  0.00  0.00    +0.000 C 
ATOM     27  C   UNL     1      -0.928  11.817  20.193  0.00  0.00    +0.000 C 
ATOM     28  C   UNL     1       0.565  11.506  20.188  0.00  0.00    +0.000 C 
ENDBRANCH  21  23
ENDBRANCH  18  19
ENDBRANCH  17  18
ENDBRANCH   1  17
TORSDOF 5
ENDMDL
MODEL 5
REMARK VINA RESULT:      -7.5      3.410      9.396
REMARK  Name = 
REMARK  7 active torsions:
REMARK  status: ('A' for Active; 'I' for Inactive)
REMARK    1  A    between atoms: C_1  and  C_2
REMARK    2  A    between atoms: C_7  and  S_8
REMARK    3  A    between atoms: S_8  and  C_11
REMARK    4  A    between atoms: C_11  and  C_12
REMARK    5  A    between atoms: C_12  and  C_13
REMARK    6  A    between atoms: N_15  and  C_16
REMARK    7  A    between atoms: N_15  and  C_17
REMARK                            x       y       z     vdW  Elec       q    Type
REMARK                         _______ _______ _______ _____ _____    ______ ____
ROOT
ATOM      1  S   UNL     1       0.639  10.697  21.087  0.00  0.00    +0.000 S 
ATOM      2  O   UNL     1       1.585  11.794  21.057  0.00  0.00    +0.000 OA
ATOM      3  O   UNL     1       0.385   9.978  22.322  0.00  0.00    +0.000 OA
ENDROOT
BRANCH   1  10
ATOM      4  C   UNL     1      -1.428  12.814  22.512  0.00  0.00    +0.000 C 
ATOM      5  C   UNL     1      -1.765  12.215  21.177  0.00  0.00    +0.000 A 
ATOM      6  C   UNL     1      -2.968  12.629  20.566  0.00  0.00    +0.000 A 
ATOM      7  C   UNL     1      -3.366  12.107  19.336  0.00  0.00    +0.000 A 
ATOM      8  C   UNL     1      -2.596  11.131  18.708  0.00  0.00    +0.000 A 
ATOM      9  C   UNL     1      -1.397  10.719  19.282  0.00  0.00    +0.000 A 
ATOM     10  C   UNL     1      -0.959  11.274  20.499  0.00  0.00    +0.000 A 
ATOM     11  O   UNL     1      -2.910  10.590  17.490  0.00  0.00    +0.000 OA
ATOM     12  C   UNL     1      -4.264  10.792  17.104  0.00  0.00    +0.000 C 
ATOM     13  C   UNL     1      -4.945  12.094  17.516  0.00  0.00    +0.000 C 
ATOM     14  O   UNL     1      -5.871  12.606  16.891  0.00  0.00    +0.000 OA
ATOM     15  N   UNL     1      -4.507  12.608  18.707  0.00  0.00    +0.000 N 
ATOM     16  H   UNL     1      -4.997  13.417  19.068  0.00  0.00    +0.000 HD
ENDBRANCH   1  10
BRANCH   1  17
ATOM     17  C   UNL     1       1.156   9.526  19.852  0.00  0.00    +0.000 C 
BRANCH  17  18
ATOM     18  C   UNL     1       1.746   8.251  20.455  0.00  0.00    +0.000 C 
BRANCH  18  19
ATOM     19  C   UNL     1       2.259   7.343  19.345  0.00  0.00    +0.000 C 
ATOM     20  O   UNL     1       2.717   7.841  18.313  0.00  0.00    +0.000 OA
ATOM     21  N   UNL     1       2.233   5.957  19.537  0.00  0.00    +0.000 N 
ATOM     22  C   UNL     1       1.625   5.325  20.703  0.00  0.00    +0.000 C 
BRANCH  21  23
ATOM     23  C   UNL     1       2.884   5.110  18.497  0.00  0.00    +0.000 C 
ATOM     24  C   UNL     1       4.077   4.242  18.952  0.00  0.00    +0.000 C 
ATOM     25  C   UNL     1       3.714   2.886  19.561  0.00  0.00    +0.000 C 
ATOM     26  C   UNL     1       2.667   2.122  18.758  0.00  0.00    +0.000 C 
ATOM     27  C   UNL     1       1.464   2.982  18.392  0.00  0.00    +0.000 C 
ATOM     28  C   UNL     1       1.883   4.266  17.686  0.00  0.00    +0.000 C 
ENDBRANCH  21  23
ENDBRANCH  18  19
ENDBRANCH  17  18
ENDBRANCH   1  17
TORSDOF 5
ENDMDL
MODEL 6
REMARK VINA RESULT:      -7.5      4.703      7.139
REMARK  Name = 
REMARK  7 active torsions:
REMARK  status: ('A' for Active; 'I' for Inactive)
REMARK    1  A    between atoms: C_1  and  C_2
REMARK    2  A    between atoms: C_7  and  S_8
REMARK    3  A    between atoms: S_8  and  C_11
REMARK    4  A    between atoms: C_11  and  C_12
REMARK    5  A    between atoms: C_12  and  C_13
REMARK    6  A    between atoms: N_15  and  C_16
REMARK    7  A    between atoms: N_15  and  C_17
REMARK                            x       y       z     vdW  Elec       q    Type
REMARK                         _______ _______ _______ _____ _____    ______ ____
ROOT
ATOM      1  S   UNL     1       6.242   6.370  16.471  0.00  0.00    +0.000 S 
ATOM      2  O   UNL     1       7.486   5.704  16.144  0.00  0.00    +0.000 OA
ATOM      3  O   UNL     1       5.468   7.034  15.438  0.00  0.00    +0.000 OA
ENDROOT
BRANCH   1  10
ATOM      4  C   UNL     1       5.508   3.302  15.559  0.00  0.00    +0.000 C 
ATOM      5  C   UNL     1       4.903   3.882  16.805  0.00  0.00    +0.000 A 
ATOM      6  C   UNL     1       4.056   3.048  17.564  0.00  0.00    +0.000 A 
ATOM      7  C   UNL     1       3.437   3.514  18.723  0.00  0.00    +0.000 A 
ATOM      8  C   UNL     1       3.616   4.835  19.129  0.00  0.00    +0.000 A 
ATOM      9  C   UNL     1       4.462   5.673  18.407  0.00  0.00    +0.000 A 
ATOM     10  C   UNL     1       5.131   5.199  17.262  0.00  0.00    +0.000 A 
ATOM     11  O   UNL     1       3.062   5.356  20.266  0.00  0.00    +0.000 OA
ATOM     12  C   UNL     1       1.979   4.590  20.781  0.00  0.00    +0.000 C 
ATOM     13  C   UNL     1       2.036   3.072  20.633  0.00  0.00    +0.000 C 
ATOM     14  O   UNL     1       1.477   2.292  21.399  0.00  0.00    +0.000 OA
ATOM     15  N   UNL     1       2.685   2.638  19.508  0.00  0.00    +0.000 N 
ATOM     16  H   UNL     1       2.664   1.645  19.317  0.00  0.00    +0.000 HD
ENDBRANCH   1  10
BRANCH   1  17
ATOM     17  C   UNL     1       6.603   7.554  17.749  0.00  0.00    +0.000 C 
BRANCH  17  18
ATOM     18  C   UNL     1       7.515   8.684  17.269  0.00  0.00    +0.000 C 
BRANCH  18  19
ATOM     19  C   UNL     1       8.491   9.065  18.374  0.00  0.00    +0.000 C 
ATOM     20  O   UNL     1       8.923   8.193  19.133  0.00  0.00    +0.000 OA
ATOM     21  N   UNL     1       8.908  10.396  18.480  0.00  0.00    +0.000 N 
ATOM     22  C   UNL     1       8.360  11.472  17.661  0.00  0.00    +0.000 C 
BRANCH  21  23
ATOM     23  C   UNL     1       9.979  10.700  19.472  0.00  0.00    +0.000 C 
ATOM     24  C   UNL     1      11.171  11.545  18.973  0.00  0.00    +0.000 C 
ATOM     25  C   UNL     1      10.968  13.061  19.007  0.00  0.00    +0.000 C 
ATOM     26  C   UNL     1      10.364  13.562  20.315  0.00  0.00    +0.000 C 
ATOM     27  C   UNL     1       9.140  12.761  20.741  0.00  0.00    +0.000 C 
ATOM     28  C   UNL     1       9.437  11.267  20.798  0.00  0.00    +0.000 C 
ENDBRANCH  21  23
ENDBRANCH  18  19
ENDBRANCH  17  18
ENDBRANCH   1  17
TORSDOF 5
ENDMDL
MODEL 7
REMARK VINA RESULT:      -7.4      2.603      7.263
REMARK  Name = 
REMARK  7 active torsions:
REMARK  status: ('A' for Active; 'I' for Inactive)
REMARK    1  A    between atoms: C_1  and  C_2
REMARK    2  A    between atoms: C_7  and  S_8
REMARK    3  A    between atoms: S_8  and  C_11
REMARK    4  A    between atoms: C_11  and  C_12
REMARK    5  A    between atoms: C_12  and  C_13
REMARK    6  A    between atoms: N_15  and  C_16
REMARK    7  A    between atoms: N_15  and  C_17
REMARK                            x       y       z     vdW  Elec       q    Type
REMARK                         _______ _______ _______ _____ _____    ______ ____
ROOT
ATOM      1  S   UNL     1       5.492   6.311  16.748  0.00  0.00    +0.000 S 
ATOM      2  O   UNL     1       5.225   6.714  15.383  0.00  0.00    +0.000 OA
ATOM      3  O   UNL     1       6.726   6.704  17.404  0.00  0.00    +0.000 OA
ENDROOT
BRANCH   1  10
ATOM      4  C   UNL     1       4.576   5.161  19.685  0.00  0.00    +0.000 C 
ATOM      5  C   UNL     1       3.856   6.329  19.075  0.00  0.00    +0.000 A 
ATOM      6  C   UNL     1       2.817   6.915  19.828  0.00  0.00    +0.000 A 
ATOM      7  C   UNL     1       2.083   7.990  19.328  0.00  0.00    +0.000 A 
ATOM      8  C   UNL     1       2.341   8.477  18.048  0.00  0.00    +0.000 A 
ATOM      9  C   UNL     1       3.373   7.928  17.292  0.00  0.00    +0.000 A 
ATOM     10  C   UNL     1       4.153   6.875  17.806  0.00  0.00    +0.000 A 
ATOM     11  O   UNL     1       1.680   9.543  17.500  0.00  0.00    +0.000 OA
ATOM     12  C   UNL     1       0.455   9.857  18.151  0.00  0.00    +0.000 C 
ATOM     13  C   UNL     1       0.368   9.650  19.661  0.00  0.00    +0.000 C 
ATOM     14  O   UNL     1      -0.382  10.288  20.394  0.00  0.00    +0.000 OA
ATOM     15  N   UNL     1       1.130   8.614  20.134  0.00  0.00    +0.000 N 
ATOM     16  H   UNL     1       1.029   8.378  21.113  0.00  0.00    +0.000 HD
ENDBRANCH   1  10
BRANCH   1  17
ATOM     17  C   UNL     1       5.368   4.537  16.803  0.00  0.00    +0.000 C 
BRANCH  17  18
ATOM     18  C   UNL     1       4.055   4.017  16.217  0.00  0.00    +0.000 C 
BRANCH  18  19
ATOM     19  C   UNL     1       3.426   3.010  17.172  0.00  0.00    +0.000 C 
ATOM     20  O   UNL     1       4.030   1.970  17.445  0.00  0.00    +0.000 OA
ATOM     21  N   UNL     1       2.187   3.309  17.751  0.00  0.00    +0.000 N 
ATOM     22  C   UNL     1       1.402   4.485  17.393  0.00  0.00    +0.000 C 
BRANCH  21  23
ATOM     23  C   UNL     1       1.678   2.375  18.796  0.00  0.00    +0.000 C 
ATOM     24  C   UNL     1       2.731   1.706  19.705  0.00  0.00    +0.000 C 
ATOM     25  C   UNL     1       3.175   2.525  20.918  0.00  0.00    +0.000 C 
ATOM     26  C   UNL     1       2.014   3.153  21.682  0.00  0.00    +0.000 C 
ATOM     27  C   UNL     1       1.033   3.877  20.768  0.00  0.00    +0.000 C 
ATOM     28  C   UNL     1       0.540   2.973  19.644  0.00  0.00    +0.000 C 
ENDBRANCH  21  23
ENDBRANCH  18  19
ENDBRANCH  17  18
ENDBRANCH   1  17
TORSDOF 5
ENDMDL
MODEL 8
REMARK VINA RESULT:      -7.4      3.519      8.913
REMARK  Name = 
REMARK  7 active torsions:
REMARK  status: ('A' for Active; 'I' for Inactive)
REMARK    1  A    between atoms: C_1  and  C_2
REMARK    2  A    between atoms: C_7  and  S_8
REMARK    3  A    between atoms: S_8  and  C_11
REMARK    4  A    between atoms: C_11  and  C_12
REMARK    5  A    between atoms: C_12  and  C_13
REMARK    6  A    between atoms: N_15  and  C_16
REMARK    7  A    between atoms: N_15  and  C_17
REMARK                            x       y       z     vdW  Elec       q    Type
REMARK                         _______ _______ _______ _____ _____    ______ ____
ROOT
ATOM      1  S   UNL     1       0.240  10.052  18.771  0.00  0.00    +0.000 S 
ATOM      2  O   UNL     1      -0.095   9.646  20.120  0.00  0.00    +0.000 OA
ATOM      3  O   UNL     1      -0.698   9.840  17.683  0.00  0.00    +0.000 OA
ENDROOT
BRANCH   1  10
ATOM      4  C   UNL     1      -1.739  12.611  19.339  0.00  0.00    +0.000 C 
ATOM      5  C   UNL     1      -0.283  12.834  19.048  0.00  0.00    +0.000 A 
ATOM      6  C   UNL     1       0.186  14.165  19.069  0.00  0.00    +0.000 A 
ATOM      7  C   UNL     1       1.519  14.463  18.789  0.00  0.00    +0.000 A 
ATOM      8  C   UNL     1       2.405  13.445  18.442  0.00  0.00    +0.000 A 
ATOM      9  C   UNL     1       1.971  12.123  18.431  0.00  0.00    +0.000 A 
ATOM     10  C   UNL     1       0.640  11.804  18.760  0.00  0.00    +0.000 A 
ATOM     11  O   UNL     1       3.731  13.658  18.178  0.00  0.00    +0.000 OA
ATOM     12  C   UNL     1       4.050  15.014  17.889  0.00  0.00    +0.000 C 
ATOM     13  C   UNL     1       3.271  16.108  18.616  0.00  0.00    +0.000 C 
ATOM     14  O   UNL     1       3.721  17.228  18.841  0.00  0.00    +0.000 OA
ATOM     15  N   UNL     1       1.977  15.776  18.916  0.00  0.00    +0.000 N 
ATOM     16  H   UNL     1       1.394  16.503  19.310  0.00  0.00    +0.000 HD
ENDBRANCH   1  10
BRANCH   1  17
ATOM     17  C   UNL     1       1.774   9.256  18.351  0.00  0.00    +0.000 C 
BRANCH  17  18
ATOM     18  C   UNL     1       2.070   8.040  19.229  0.00  0.00    +0.000 C 
BRANCH  18  19
ATOM     19  C   UNL     1       2.873   7.014  18.438  0.00  0.00    +0.000 C 
ATOM     20  O   UNL     1       3.538   7.380  17.466  0.00  0.00    +0.000 OA
ATOM     21  N   UNL     1       2.867   5.680  18.859  0.00  0.00    +0.000 N 
ATOM     22  C   UNL     1       2.031   5.190  19.950  0.00  0.00    +0.000 C 
BRANCH  21  23
ATOM     23  C   UNL     1       3.785   4.738  18.156  0.00  0.00    +0.000 C 
ATOM     24  C   UNL     1       4.767   3.935  19.036  0.00  0.00    +0.000 C 
ATOM     25  C   UNL     1       4.209   2.645  19.643  0.00  0.00    +0.000 C 
ATOM     26  C   UNL     1       3.439   1.789  18.643  0.00  0.00    +0.000 C 
ATOM     27  C   UNL     1       2.419   2.593  17.845  0.00  0.00    +0.000 C 
ATOM     28  C   UNL     1       3.058   3.802  17.171  0.00  0.00    +0.000 C 
ENDBRANCH  21  23
ENDBRANCH  18  19
ENDBRANCH  17  18
ENDBRANCH   1  17
TORSDOF 5
ENDMDL
MODEL 9
REMARK VINA RESULT:      -7.3      1.029      1.095
REMARK  Name = 
REMARK  7 active torsions:
REMARK  status: ('A' for Active; 'I' for Inactive)
REMARK    1  A    between atoms: C_1  and  C_2
REMARK    2  A    between atoms: C_7  and  S_8
REMARK    3  A    between atoms: S_8  and  C_11
REMARK    4  A    between atoms: C_11  and  C_12
REMARK    5  A    between atoms: C_12  and  C_13
REMARK    6  A    between atoms: N_15  and  C_16
REMARK    7  A    between atoms: N_15  and  C_17
REMARK                            x       y       z     vdW  Elec       q    Type
REMARK                         _______ _______ _______ _____ _____    ______ ____
ROOT
ATOM      1  S   UNL     1       1.927   5.256  20.401  0.00  0.00    +0.000 S 
ATOM      2  O   UNL     1       0.574   4.924  20.004  0.00  0.00    +0.000 OA
ATOM      3  O   UNL     1       2.503   4.682  21.603  0.00  0.00    +0.000 OA
ENDROOT
BRANCH   1  10
ATOM      4  C   UNL     1       1.778   2.766  18.265  0.00  0.00    +0.000 C 
ATOM      5  C   UNL     1       2.887   3.774  18.171  0.00  0.00    +0.000 A 
ATOM      6  C   UNL     1       3.815   3.620  17.119  0.00  0.00    +0.000 A 
ATOM      7  C   UNL     1       4.886   4.500  16.971  0.00  0.00    +0.000 A 
ATOM      8  C   UNL     1       5.080   5.528  17.892  0.00  0.00    +0.000 A 
ATOM      9  C   UNL     1       4.168   5.711  18.928  0.00  0.00    +0.000 A 
ATOM     10  C   UNL     1       3.055   4.859  19.059  0.00  0.00    +0.000 A 
ATOM     11  O   UNL     1       6.093   6.443  17.798  0.00  0.00    +0.000 OA
ATOM     12  C   UNL     1       7.155   6.039  16.942  0.00  0.00    +0.000 C 
ATOM     13  C   UNL     1       6.811   5.211  15.707  0.00  0.00    +0.000 C 
ATOM     14  O   UNL     1       7.486   5.204  14.681  0.00  0.00    +0.000 OA
ATOM     15  N   UNL     1       5.730   4.385  15.865  0.00  0.00    +0.000 N 
ATOM     16  H   UNL     1       5.523   3.747  15.107  0.00  0.00    +0.000 HD
ENDBRANCH   1  10
BRANCH   1  17
ATOM     17  C   UNL     1       2.014   7.028  20.529  0.00  0.00    +0.000 C 
BRANCH  17  18
ATOM     18  C   UNL     1       0.768   7.637  21.172  0.00  0.00    +0.000 C 
BRANCH  18  19
ATOM     19  C   UNL     1       1.016   9.107  21.489  0.00  0.00    +0.000 C 
ATOM     20  O   UNL     1       1.637   9.414  22.510  0.00  0.00    +0.000 OA
ATOM     21  N   UNL     1       0.564  10.079  20.589  0.00  0.00    +0.000 N 
ATOM     22  C   UNL     1      -0.245   9.766  19.416  0.00  0.00    +0.000 C 
BRANCH  21  23
ATOM     23  C   UNL     1       0.960  11.492  20.854  0.00  0.00    +0.000 C 
ATOM     24  C   UNL     1       1.503  12.299  19.656  0.00  0.00    +0.000 C 
ATOM     25  C   UNL     1       0.446  12.958  18.768  0.00  0.00    +0.000 C 
ATOM     26  C   UNL     1      -0.640  13.683  19.556  0.00  0.00    +0.000 C 
ATOM     27  C   UNL     1      -1.216  12.832  20.681  0.00  0.00    +0.000 C 
ATOM     28  C   UNL     1      -0.121  12.297  21.598  0.00  0.00    +0.000 C 
ENDBRANCH  21  23
ENDBRANCH  18  19
ENDBRANCH  17  18
ENDBRANCH   1  17
TORSDOF 5
ENDMDL
