MODEL 1
REMARK VINA RESULT:      -7.8      0.000      0.000
REMARK  Name = 
REMARK  7 active torsions:
REMARK  status: ('A' for Active; 'I' for Inactive)
REMARK    1  A    between atoms: C_1  and  N_2
REMARK    2  A    between atoms: N_2  and  C_3
REMARK    3  A    between atoms: N_2  and  C_4
REMARK    4  A    between atoms: C_4  and  C_5
REMARK    5  A    between atoms: C_5  and  N_6
REMARK    6  A    between atoms: C_16  and  C_17
REMARK    7  A    between atoms: C_16  and  C_18
REMARK                            x       y       z     vdW  Elec       q    Type
REMARK                         _______ _______ _______ _____ _____    ______ ____
ROOT
ATOM      1  N   UNL     1       7.277   6.696  17.544  0.00  0.00    +0.000 N 
ATOM      2  N   UNL     1       7.697   6.481  16.267  0.00  0.00    +0.000 NA
ATOM      3  C   UNL     1       6.845   5.558  15.795  0.00  0.00    +0.000 A 
ATOM      4  C   UNL     1       5.896   5.194  16.764  0.00  0.00    +0.000 A 
ATOM      5  C   UNL     1       4.837   4.286  16.727  0.00  0.00    +0.000 A 
ATOM      6  C   UNL     1       4.061   4.116  17.868  0.00  0.00    +0.000 A 
ATOM      7  C   UNL     1       4.368   4.864  19.012  0.00  0.00    +0.000 A 
ATOM      8  C   UNL     1       5.425   5.791  19.060  0.00  0.00    +0.000 A 
ATOM      9  C   UNL     1       6.187   5.935  17.897  0.00  0.00    +0.000 A 
ATOM     10  O   UNL     1       3.669   4.751  20.177  0.00  0.00    +0.000 OA
ATOM     11  C   UNL     1       2.557   3.837  20.223  0.00  0.00    +0.000 C 
ATOM     12  C   UNL     1       1.340   4.726  20.469  0.00  0.00    +0.000 C 
ATOM     13  C   UNL     1       2.943   2.809  21.285  0.00  0.00    +0.000 C 
ATOM     14  C   UNL     1       2.244   3.049  18.988  0.00  0.00    +0.000 C 
ATOM     15  C   UNL     1       2.952   3.174  17.867  0.00  0.00    +0.000 C 
ATOM     16  S   UNL     1       4.577   3.404  15.221  0.00  0.00    +0.000 S 
ATOM     17  C   UNL     1       5.853   4.001  14.133  0.00  0.00    +0.000 A 
ATOM     18  C   UNL     1       5.829   3.428  12.858  0.00  0.00    +0.000 A 
ATOM     19  C   UNL     1       6.767   3.805  11.908  0.00  0.00    +0.000 A 
ATOM     20  C   UNL     1       7.734   4.754  12.230  0.00  0.00    +0.000 A 
ATOM     21  C   UNL     1       7.772   5.335  13.499  0.00  0.00    +0.000 A 
ATOM     22  C   UNL     1       6.834   4.965  14.462  0.00  0.00    +0.000 A 
ENDROOT
BRANCH   1  23
ATOM     23  C   UNL     1       8.010   7.628  18.396  0.00  0.00    +0.000 C 
BRANCH  23  24
ATOM     24  C   UNL     1       7.930   9.078  17.894  0.00  0.00    +0.000 C 
BRANCH  24  26
ATOM     25  C   UNL     1       8.817  11.319  17.815  0.00  0.00    +0.000 C 
ATOM     26  N   UNL     1       9.040   9.961  18.331  0.00  0.00    +0.000 NA
ATOM     27  C   UNL     1       9.190  10.013  19.785  0.00  0.00    +0.000 C 
ENDBRANCH  24  26
ENDBRANCH  23  24
ENDBRANCH   1  23
TORSDOF 3
ENDMDL
MODEL 2
REMARK VINA RESULT:      -7.5      3.917      7.932
REMARK  Name = 
REMARK  7 active torsions:
REMARK  status: ('A' for Active; 'I' for Inactive)
REMARK    1  A    between atoms: C_1  and  N_2
REMARK    2  A    between atoms: N_2  and  C_3
REMARK    3  A    between atoms: N_2  and  C_4
REMARK    4  A    between atoms: C_4  and  C_5
REMARK    5  A    between atoms: C_5  and  N_6
REMARK    6  A    between atoms: C_16  and  C_17
REMARK    7  A    between atoms: C_16  and  C_18
REMARK                            x       y       z     vdW  Elec       q    Type
REMARK                         _______ _______ _______ _____ _____    ______ ____
ROOT
ATOM      1  N   UNL     1       2.299   5.070  20.695  0.00  0.00    +0.000 N 
ATOM      2  N   UNL     1       1.534   6.116  21.113  0.00  0.00    +0.000 NA
ATOM      3  C   UNL     1       1.750   7.066  20.191  0.00  0.00    +0.000 A 
ATOM      4  C   UNL     1       2.641   6.626  19.200  0.00  0.00    +0.000 A 
ATOM      5  C   UNL     1       3.152   7.260  18.066  0.00  0.00    +0.000 A 
ATOM      6  C   UNL     1       4.052   6.569  17.262  0.00  0.00    +0.000 A 
ATOM      7  C   UNL     1       4.411   5.262  17.616  0.00  0.00    +0.000 A 
ATOM      8  C   UNL     1       3.895   4.608  18.750  0.00  0.00    +0.000 A 
ATOM      9  C   UNL     1       2.996   5.330  19.538  0.00  0.00    +0.000 A 
ATOM     10  O   UNL     1       5.296   4.519  16.894  0.00  0.00    +0.000 OA
ATOM     11  C   UNL     1       5.867   5.097  15.705  0.00  0.00    +0.000 C 
ATOM     12  C   UNL     1       5.365   4.212  14.567  0.00  0.00    +0.000 C 
ATOM     13  C   UNL     1       7.368   5.153  15.984  0.00  0.00    +0.000 C 
ATOM     14  C   UNL     1       5.468   6.495  15.343  0.00  0.00    +0.000 C 
ATOM     15  C   UNL     1       4.608   7.201  16.075  0.00  0.00    +0.000 C 
ATOM     16  S   UNL     1       2.621   8.913  17.753  0.00  0.00    +0.000 S 
ATOM     17  C   UNL     1       1.507   9.281  19.092  0.00  0.00    +0.000 A 
ATOM     18  C   UNL     1       0.954  10.563  19.037  0.00  0.00    +0.000 A 
ATOM     19  C   UNL     1       0.066  10.981  20.017  0.00  0.00    +0.000 A 
ATOM     20  C   UNL     1      -0.269  10.119  21.059  0.00  0.00    +0.000 A 
ATOM     21  C   UNL     1       0.276   8.835  21.128  0.00  0.00    +0.000 A 
ATOM     22  C   UNL     1       1.168   8.403  20.148  0.00  0.00    +0.000 A 
ENDROOT
BRANCH   1  23
ATOM     23  C   UNL     1       2.350   3.849  21.494  0.00  0.00    +0.000 C 
BRANCH  23  24
ATOM     24  C   UNL     1       1.204   2.879  21.165  0.00  0.00    +0.000 C 
BRANCH  24  26
ATOM     25  C   UNL     1       0.792   2.500  18.820  0.00  0.00    +0.000 C 
ATOM     26  N   UNL     1       1.454   1.969  20.019  0.00  0.00    +0.000 NA
ATOM     27  C   UNL     1       2.878   1.777  19.743  0.00  0.00    +0.000 C 
ENDBRANCH  24  26
ENDBRANCH  23  24
ENDBRANCH   1  23
TORSDOF 3
ENDMDL
MODEL 3
REMARK VINA RESULT:      -7.4      3.914      6.523
REMARK  Name = 
REMARK  7 active torsions:
REMARK  status: ('A' for Active; 'I' for Inactive)
REMARK    1  A    between atoms: C_1  and  N_2
REMARK    2  A    between atoms: N_2  and  C_3
REMARK    3  A    between atoms: N_2  and  C_4
REMARK    4  A    between atoms: C_4  and  C_5
REMARK    5  A    between atoms: C_5  and  N_6
REMARK    6  A    between atoms: C_16  and  C_17
REMARK    7  A    between atoms: C_16  and  C_18
REMARK                            x       y       z     vdW  Elec       q    Type
REMARK                         _______ _______ _______ _____ _____    ______ ____
ROOT
ATOM      1  N   UNL     1       4.192   6.548  17.111  0.00  0.00    +0.000 N 
ATOM      2  N   UNL     1       4.303   5.321  17.692  0.00  0.00    +0.000 NA
ATOM      3  C   UNL     1       3.480   5.387  18.750  0.00  0.00    +0.000 A 
ATOM      4  C   UNL     1       2.855   6.641  18.837  0.00  0.00    +0.000 A 
ATOM      5  C   UNL     1       1.941   7.158  19.756  0.00  0.00    +0.000 A 
ATOM      6  C   UNL     1       1.502   8.468  19.598  0.00  0.00    +0.000 A 
ATOM      7  C   UNL     1       1.990   9.220  18.521  0.00  0.00    +0.000 A 
ATOM      8  C   UNL     1       2.904   8.708  17.582  0.00  0.00    +0.000 A 
ATOM      9  C   UNL     1       3.327   7.390  17.771  0.00  0.00    +0.000 A 
ATOM     10  O   UNL     1       1.625  10.514  18.300  0.00  0.00    +0.000 OA
ATOM     11  C   UNL     1       0.681  11.123  19.201  0.00  0.00    +0.000 C 
ATOM     12  C   UNL     1      -0.536  11.431  18.331  0.00  0.00    +0.000 C 
ATOM     13  C   UNL     1       1.443  12.286  19.834  0.00  0.00    +0.000 C 
ATOM     14  C   UNL     1       0.169  10.301  20.343  0.00  0.00    +0.000 C 
ATOM     15  C   UNL     1       0.553   9.041  20.540  0.00  0.00    +0.000 C 
ATOM     16  S   UNL     1       1.424   6.099  21.069  0.00  0.00    +0.000 S 
ATOM     17  C   UNL     1       2.304   4.578  20.783  0.00  0.00    +0.000 A 
ATOM     18  C   UNL     1       2.033   3.578  21.721  0.00  0.00    +0.000 A 
ATOM     19  C   UNL     1       2.649   2.340  21.616  0.00  0.00    +0.000 A 
ATOM     20  C   UNL     1       3.542   2.098  20.574  0.00  0.00    +0.000 A 
ATOM     21  C   UNL     1       3.824   3.087  19.630  0.00  0.00    +0.000 A 
ATOM     22  C   UNL     1       3.209   4.335  19.724  0.00  0.00    +0.000 A 
ENDROOT
BRANCH   1  23
ATOM     23  C   UNL     1       4.994   6.863  15.932  0.00  0.00    +0.000 C 
BRANCH  23  24
ATOM     24  C   UNL     1       5.966   5.732  15.559  0.00  0.00    +0.000 C 
BRANCH  24  26
ATOM     25  C   UNL     1       7.371   7.002  17.050  0.00  0.00    +0.000 C 
ATOM     26  N   UNL     1       7.289   5.788  16.228  0.00  0.00    +0.000 NA
ATOM     27  C   UNL     1       7.558   4.617  17.063  0.00  0.00    +0.000 C 
ENDBRANCH  24  26
ENDBRANCH  23  24
ENDBRANCH   1  23
TORSDOF 3
ENDMDL
MODEL 4
REMARK VINA RESULT:      -6.8      3.944      6.429
REMARK  Name = 
REMARK  7 active torsions:
REMARK  status: ('A' for Active; 'I' for Inactive)
REMARK    1  A    between atoms: C_1  and  N_2
REMARK    2  A    between atoms: N_2  and  C_3
REMARK    3  A    between atoms: N_2  and  C_4
REMARK    4  A    between atoms: C_4  and  C_5
REMARK    5  A    between atoms: C_5  and  N_6
REMARK    6  A    between atoms: C_16  and  C_17
REMARK    7  A    between atoms: C_16  and  C_18
REMARK                            x       y       z     vdW  Elec       q    Type
REMARK                         _______ _______ _______ _____ _____    ______ ____
ROOT
ATOM      1  N   UNL     1       2.929   4.811  20.360  0.00  0.00    +0.000 N 
ATOM      2  N   UNL     1       3.788   4.240  19.470  0.00  0.00    +0.000 NA
ATOM      3  C   UNL     1       3.938   5.174  18.519  0.00  0.00    +0.000 A 
ATOM      4  C   UNL     1       3.183   6.323  18.804  0.00  0.00    +0.000 A 
ATOM      5  C   UNL     1       3.028   7.525  18.111  0.00  0.00    +0.000 A 
ATOM      6  C   UNL     1       2.182   8.495  18.637  0.00  0.00    +0.000 A 
ATOM      7  C   UNL     1       1.517   8.234  19.842  0.00  0.00    +0.000 A 
ATOM      8  C   UNL     1       1.673   7.031  20.555  0.00  0.00    +0.000 A 
ATOM      9  C   UNL     1       2.528   6.076  20.000  0.00  0.00    +0.000 A 
ATOM     10  O   UNL     1       0.660   9.121  20.419  0.00  0.00    +0.000 OA
ATOM     11  C   UNL     1       0.447  10.389  19.770  0.00  0.00    +0.000 C 
ATOM     12  C   UNL     1       0.976  11.422  20.762  0.00  0.00    +0.000 C 
ATOM     13  C   UNL     1      -1.041  10.401  19.422  0.00  0.00    +0.000 C 
ATOM     14  C   UNL     1       1.168  10.650  18.484  0.00  0.00    +0.000 C 
ATOM     15  C   UNL     1       1.993   9.758  17.938  0.00  0.00    +0.000 C 
ATOM     16  S   UNL     1       3.917   7.709  16.599  0.00  0.00    +0.000 S 
ATOM     17  C   UNL     1       4.806   6.177  16.418  0.00  0.00    +0.000 A 
ATOM     18  C   UNL     1       5.596   6.109  15.267  0.00  0.00    +0.000 A 
ATOM     19  C   UNL     1       6.344   4.971  15.004  0.00  0.00    +0.000 A 
ATOM     20  C   UNL     1       6.304   3.896  15.889  0.00  0.00    +0.000 A 
ATOM     21  C   UNL     1       5.519   3.949  17.043  0.00  0.00    +0.000 A 
ATOM     22  C   UNL     1       4.763   5.088  17.319  0.00  0.00    +0.000 A 
ENDROOT
BRANCH   1  23
ATOM     23  C   UNL     1       2.494   4.053  21.530  0.00  0.00    +0.000 C 
BRANCH  23  24
ATOM     24  C   UNL     1       2.396   2.544  21.254  0.00  0.00    +0.000 C 
BRANCH  24  26
ATOM     25  C   UNL     1       0.396   3.257  20.113  0.00  0.00    +0.000 C 
ATOM     26  N   UNL     1       1.336   2.143  20.296  0.00  0.00    +0.000 NA
ATOM     27  C   UNL     1       1.866   1.736  18.994  0.00  0.00    +0.000 C 
ENDBRANCH  24  26
ENDBRANCH  23  24
ENDBRANCH   1  23
TORSDOF 3
ENDMDL
MODEL 5
REMARK VINA RESULT:      -6.6     10.359     12.699
REMARK  Name = 
REMARK  7 active torsions:
REMARK  status: ('A' for Active; 'I' for Inactive)
REMARK    1  A    between atoms: C_1  and  N_2
REMARK    2  A    between atoms: N_2  and  C_3
REMARK    3  A    between atoms: N_2  and  C_4
REMARK    4  A    between atoms: C_4  and  C_5
REMARK    5  A    between atoms: C_5  and  N_6
REMARK    6  A    between atoms: C_16  and  C_17
REMARK    7  A    between atoms: C_16  and  C_18
REMARK                            x       y       z     vdW  Elec       q    Type
REMARK                         _______ _______ _______ _____ _____    ______ ____
ROOT
ATOM      1  N   UNL     1      -1.744  12.040  21.325  0.00  0.00    +0.000 N 
ATOM      2  N   UNL     1      -1.547  11.518  20.083  0.00  0.00    +0.000 NA
ATOM      3  C   UNL     1      -2.712  11.731  19.453  0.00  0.00    +0.000 A 
ATOM      4  C   UNL     1      -3.635  12.381  20.287  0.00  0.00    +0.000 A 
ATOM      5  C   UNL     1      -4.950  12.795  20.068  0.00  0.00    +0.000 A 
ATOM      6  C   UNL     1      -5.640  13.409  21.108  0.00  0.00    +0.000 A 
ATOM      7  C   UNL     1      -4.991  13.592  22.335  0.00  0.00    +0.000 A 
ATOM      8  C   UNL     1      -3.663  13.189  22.566  0.00  0.00    +0.000 A 
ATOM      9  C   UNL     1      -2.999  12.574  21.502  0.00  0.00    +0.000 A 
ATOM     10  O   UNL     1      -5.596  14.170  23.411  0.00  0.00    +0.000 OA
ATOM     11  C   UNL     1      -6.953  14.630  23.268  0.00  0.00    +0.000 C 
ATOM     12  C   UNL     1      -6.869  16.142  23.465  0.00  0.00    +0.000 C 
ATOM     13  C   UNL     1      -7.751  13.802  24.273  0.00  0.00    +0.000 C 
ATOM     14  C   UNL     1      -7.628  14.427  21.946  0.00  0.00    +0.000 C 
ATOM     15  C   UNL     1      -7.014  13.848  20.915  0.00  0.00    +0.000 C 
ATOM     16  S   UNL     1      -5.643  12.486  18.475  0.00  0.00    +0.000 S 
ATOM     17  C   UNL     1      -4.337  11.677  17.575  0.00  0.00    +0.000 A 
ATOM     18  C   UNL     1      -4.675  11.341  16.260  0.00  0.00    +0.000 A 
ATOM     19  C   UNL     1      -3.749  10.709  15.444  0.00  0.00    +0.000 A 
ATOM     20  C   UNL     1      -2.483  10.406  15.940  0.00  0.00    +0.000 A 
ATOM     21  C   UNL     1      -2.131  10.734  17.251  0.00  0.00    +0.000 A 
ATOM     22  C   UNL     1      -3.052  11.371  18.080  0.00  0.00    +0.000 A 
ENDROOT
BRANCH   1  23
ATOM     23  C   UNL     1      -0.681  11.947  22.322  0.00  0.00    +0.000 C 
BRANCH  23  24
ATOM     24  C   UNL     1      -0.711  10.621  23.098  0.00  0.00    +0.000 C 
BRANCH  24  26
ATOM     25  C   UNL     1      -0.565   8.521  21.923  0.00  0.00    +0.000 C 
ATOM     26  N   UNL     1       0.211   9.572  22.595  0.00  0.00    +0.000 NA
ATOM     27  C   UNL     1       1.222  10.094  21.674  0.00  0.00    +0.000 C 
ENDBRANCH  24  26
ENDBRANCH  23  24
ENDBRANCH   1  23
TORSDOF 3
ENDMDL
MODEL 6
REMARK VINA RESULT:      -6.3     10.404     12.421
REMARK  Name = 
REMARK  7 active torsions:
REMARK  status: ('A' for Active; 'I' for Inactive)
REMARK    1  A    between atoms: C_1  and  N_2
REMARK    2  A    between atoms: N_2  and  C_3
REMARK    3  A    between atoms: N_2  and  C_4
REMARK    4  A    between atoms: C_4  and  C_5
REMARK    5  A    between atoms: C_5  and  N_6
REMARK    6  A    between atoms: C_16  and  C_17
REMARK    7  A    between atoms: C_16  and  C_18
REMARK                            x       y       z     vdW  Elec       q    Type
REMARK                         _______ _______ _______ _____ _____    ______ ____
ROOT
ATOM      1  N   UNL     1      -1.545  12.303  21.084  0.00  0.00    +0.000 N 
ATOM      2  N   UNL     1      -1.376  11.761  19.847  0.00  0.00    +0.000 NA
ATOM      3  C   UNL     1      -2.595  11.836  19.290  0.00  0.00    +0.000 A 
ATOM      4  C   UNL     1      -3.524  12.419  20.166  0.00  0.00    +0.000 A 
ATOM      5  C   UNL     1      -4.886  12.692  20.025  0.00  0.00    +0.000 A 
ATOM      6  C   UNL     1      -5.567  13.269  21.091  0.00  0.00    +0.000 A 
ATOM      7  C   UNL     1      -4.862  13.557  22.267  0.00  0.00    +0.000 A 
ATOM      8  C   UNL     1      -3.488  13.297  22.420  0.00  0.00    +0.000 A 
ATOM      9  C   UNL     1      -2.834  12.715  21.331  0.00  0.00    +0.000 A 
ATOM     10  O   UNL     1      -5.453  14.109  23.365  0.00  0.00    +0.000 OA
ATOM     11  C   UNL     1      -6.856  14.426  23.300  0.00  0.00    +0.000 C 
ATOM     12  C   UNL     1      -6.914  15.944  23.450  0.00  0.00    +0.000 C 
ATOM     13  C   UNL     1      -7.500  13.557  24.379  0.00  0.00    +0.000 C 
ATOM     14  C   UNL     1      -7.590  14.112  22.033  0.00  0.00    +0.000 C 
ATOM     15  C   UNL     1      -6.988  13.562  20.980  0.00  0.00    +0.000 C 
ATOM     16  S   UNL     1      -5.644  12.262  18.491  0.00  0.00    +0.000 S 
ATOM     17  C   UNL     1      -4.323  11.557  17.527  0.00  0.00    +0.000 A 
ATOM     18  C   UNL     1      -4.708  11.145  16.248  0.00  0.00    +0.000 A 
ATOM     19  C   UNL     1      -3.776  10.581  15.389  0.00  0.00    +0.000 A 
ATOM     20  C   UNL     1      -2.457  10.423  15.807  0.00  0.00    +0.000 A 
ATOM     21  C   UNL     1      -2.057  10.828  17.082  0.00  0.00    +0.000 A 
ATOM     22  C   UNL     1      -2.984  11.398  17.954  0.00  0.00    +0.000 A 
ENDROOT
BRANCH   1  23
ATOM     23  C   UNL     1      -0.417  12.351  22.010  0.00  0.00    +0.000 C 
BRANCH  23  24
ATOM     24  C   UNL     1       0.907  11.929  21.352  0.00  0.00    +0.000 C 
BRANCH  24  26
ATOM     25  C   UNL     1       2.088  13.117  19.619  0.00  0.00    +0.000 C 
ATOM     26  N   UNL     1       1.853  13.035  21.067  0.00  0.00    +0.000 NA
ATOM     27  C   UNL     1       1.381  14.331  21.556  0.00  0.00    +0.000 C 
ENDBRANCH  24  26
ENDBRANCH  23  24
ENDBRANCH   1  23
TORSDOF 3
ENDMDL
MODEL 7
REMARK VINA RESULT:      -6.3      8.624     10.921
REMARK  Name = 
REMARK  7 active torsions:
REMARK  status: ('A' for Active; 'I' for Inactive)
REMARK    1  A    between atoms: C_1  and  N_2
REMARK    2  A    between atoms: N_2  and  C_3
REMARK    3  A    between atoms: N_2  and  C_4
REMARK    4  A    between atoms: C_4  and  C_5
REMARK    5  A    between atoms: C_5  and  N_6
REMARK    6  A    between atoms: C_16  and  C_17
REMARK    7  A    between atoms: C_16  and  C_18
REMARK                            x       y       z     vdW  Elec       q    Type
REMARK                         _______ _______ _______ _____ _____    ______ ____
ROOT
ATOM      1  N   UNL     1       0.026  10.314  20.072  0.00  0.00    +0.000 N 
ATOM      2  N   UNL     1      -0.358   9.964  18.813  0.00  0.00    +0.000 NA
ATOM      3  C   UNL     1      -1.525  10.602  18.640  0.00  0.00    +0.000 A 
ATOM      4  C   UNL     1      -1.876  11.347  19.777  0.00  0.00    +0.000 A 
ATOM      5  C   UNL     1      -2.983  12.151  20.052  0.00  0.00    +0.000 A 
ATOM      6  C   UNL     1      -3.073  12.763  21.298  0.00  0.00    +0.000 A 
ATOM      7  C   UNL     1      -2.049  12.551  22.231  0.00  0.00    +0.000 A 
ATOM      8  C   UNL     1      -0.923  11.752  21.963  0.00  0.00    +0.000 A 
ATOM      9  C   UNL     1      -0.864  11.150  20.703  0.00  0.00    +0.000 A 
ATOM     10  O   UNL     1      -2.064  13.099  23.479  0.00  0.00    +0.000 OA
ATOM     11  C   UNL     1      -3.170  13.947  23.842  0.00  0.00    +0.000 C 
ATOM     12  C   UNL     1      -2.542  15.318  24.077  0.00  0.00    +0.000 C 
ATOM     13  C   UNL     1      -3.836  13.233  25.017  0.00  0.00    +0.000 C 
ATOM     14  C   UNL     1      -4.253  14.161  22.829  0.00  0.00    +0.000 C 
ATOM     15  C   UNL     1      -4.216  13.604  21.620  0.00  0.00    +0.000 C 
ATOM     16  S   UNL     1      -4.200  12.315  18.785  0.00  0.00    +0.000 S 
ATOM     17  C   UNL     1      -3.581  11.320  17.445  0.00  0.00    +0.000 A 
ATOM     18  C   UNL     1      -4.404  11.312  16.315  0.00  0.00    +0.000 A 
ATOM     19  C   UNL     1      -4.039  10.580  15.195  0.00  0.00    +0.000 A 
ATOM     20  C   UNL     1      -2.853   9.850  15.202  0.00  0.00    +0.000 A 
ATOM     21  C   UNL     1      -2.021   9.847  16.324  0.00  0.00    +0.000 A 
ATOM     22  C   UNL     1      -2.376  10.581  17.455  0.00  0.00    +0.000 A 
ENDROOT
BRANCH   1  23
ATOM     23  C   UNL     1       1.257   9.760  20.630  0.00  0.00    +0.000 C 
BRANCH  23  24
ATOM     24  C   UNL     1       1.147   8.257  20.931  0.00  0.00    +0.000 C 
BRANCH  24  26
ATOM     25  C   UNL     1       1.795   5.990  20.428  0.00  0.00    +0.000 C 
ATOM     26  N   UNL     1       2.166   7.403  20.273  0.00  0.00    +0.000 NA
ATOM     27  C   UNL     1       2.335   7.707  18.851  0.00  0.00    +0.000 C 
ENDBRANCH  24  26
ENDBRANCH  23  24
ENDBRANCH   1  23
TORSDOF 3
ENDMDL
MODEL 8
REMARK VINA RESULT:      -6.2      3.811      7.701
REMARK  Name = 
REMARK  7 active torsions:
REMARK  status: ('A' for Active; 'I' for Inactive)
REMARK    1  A    between atoms: C_1  and  N_2
REMARK    2  A    between atoms: N_2  and  C_3
REMARK    3  A    between atoms: N_2  and  C_4
REMARK    4  A    between atoms: C_4  and  C_5
REMARK    5  A    between atoms: C_5  and  N_6
REMARK    6  A    between atoms: C_16  and  C_17
REMARK    7  A    between atoms: C_16  and  C_18
REMARK                            x       y       z     vdW  Elec       q    Type
REMARK                         _______ _______ _______ _____ _____    ______ ____
ROOT
ATOM      1  N   UNL     1       2.419   3.846  20.092  0.00  0.00    +0.000 N 
ATOM      2  N   UNL     1       1.705   4.809  20.739  0.00  0.00    +0.000 NA
ATOM      3  C   UNL     1       1.951   5.924  20.035  0.00  0.00    +0.000 A 
ATOM      4  C   UNL     1       2.811   5.670  18.954  0.00  0.00    +0.000 A 
ATOM      5  C   UNL     1       3.336   6.509  17.971  0.00  0.00    +0.000 A 
ATOM      6  C   UNL     1       4.194   5.970  17.019  0.00  0.00    +0.000 A 
ATOM      7  C   UNL     1       4.500   4.604  17.080  0.00  0.00    +0.000 A 
ATOM      8  C   UNL     1       3.970   3.744  18.060  0.00  0.00    +0.000 A 
ATOM      9  C   UNL     1       3.112   4.319  19.002  0.00  0.00    +0.000 A 
ATOM     10  O   UNL     1       5.343   3.996  16.198  0.00  0.00    +0.000 OA
ATOM     11  C   UNL     1       5.924   4.791  15.148  0.00  0.00    +0.000 C 
ATOM     12  C   UNL     1       5.370   4.190  13.859  0.00  0.00    +0.000 C 
ATOM     13  C   UNL     1       7.430   4.726  15.401  0.00  0.00    +0.000 C 
ATOM     14  C   UNL     1       5.583   6.249  15.099  0.00  0.00    +0.000 C 
ATOM     15  C   UNL     1       4.764   6.817  15.983  0.00  0.00    +0.000 C 
ATOM     16  S   UNL     1       2.873   8.211  18.026  0.00  0.00    +0.000 S 
ATOM     17  C   UNL     1       1.793   8.330  19.436  0.00  0.00    +0.000 A 
ATOM     18  C   UNL     1       1.296   9.616  19.666  0.00  0.00    +0.000 A 
ATOM     19  C   UNL     1       0.439   9.851  20.731  0.00  0.00    +0.000 A 
ATOM     20  C   UNL     1       0.079   8.801  21.573  0.00  0.00    +0.000 A 
ATOM     21  C   UNL     1       0.568   7.511  21.357  0.00  0.00    +0.000 A 
ATOM     22  C   UNL     1       1.428   7.262  20.289  0.00  0.00    +0.000 A 
ENDROOT
BRANCH   1  23
ATOM     23  C   UNL     1       2.425   2.482  20.613  0.00  0.00    +0.000 C 
BRANCH  23  24
ATOM     24  C   UNL     1       3.618   2.209  21.543  0.00  0.00    +0.000 C 
BRANCH  24  26
ATOM     25  C   UNL     1       5.612   0.879  21.798  0.00  0.00    +0.000 C 
ATOM     26  N   UNL     1       4.847   1.722  20.870  0.00  0.00    +0.000 NA
ATOM     27  C   UNL     1       4.569   0.969  19.646  0.00  0.00    +0.000 C 
ENDBRANCH  24  26
ENDBRANCH  23  24
ENDBRANCH   1  23
TORSDOF 3
ENDMDL
MODEL 9
REMARK VINA RESULT:      -6.2     10.342     12.948
REMARK  Name = 
REMARK  7 active torsions:
REMARK  status: ('A' for Active; 'I' for Inactive)
REMARK    1  A    between atoms: C_1  and  N_2
REMARK    2  A    between atoms: N_2  and  C_3
REMARK    3  A    between atoms: N_2  and  C_4
REMARK    4  A    between atoms: C_4  and  C_5
REMARK    5  A    between atoms: C_5  and  N_6
REMARK    6  A    between atoms: C_16  and  C_17
REMARK    7  A    between atoms: C_16  and  C_18
REMARK                            x       y       z     vdW  Elec       q    Type
REMARK                         _______ _______ _______ _____ _____    ______ ____
ROOT
ATOM      1  N   UNL     1      -4.434  12.361  19.310  0.00  0.00    +0.000 N 
ATOM      2  N   UNL     1      -3.644  11.519  18.589  0.00  0.00    +0.000 NA
ATOM      3  C   UNL     1      -2.444  11.612  19.182  0.00  0.00    +0.000 A 
ATOM      4  C   UNL     1      -2.475  12.502  20.267  0.00  0.00    +0.000 A 
ATOM      5  C   UNL     1      -1.482  12.910  21.159  0.00  0.00    +0.000 A 
ATOM      6  C   UNL     1      -1.807  13.838  22.142  0.00  0.00    +0.000 A 
ATOM      7  C   UNL     1      -3.117  14.330  22.203  0.00  0.00    +0.000 A 
ATOM      8  C   UNL     1      -4.130  13.919  21.317  0.00  0.00    +0.000 A 
ATOM      9  C   UNL     1      -3.771  12.987  20.340  0.00  0.00    +0.000 A 
ATOM     10  O   UNL     1      -3.517  15.252  23.123  0.00  0.00    +0.000 OA
ATOM     11  C   UNL     1      -2.555  15.722  24.085  0.00  0.00    +0.000 C 
ATOM     12  C   UNL     1      -3.102  15.261  25.434  0.00  0.00    +0.000 C 
ATOM     13  C   UNL     1      -2.436  17.221  23.814  0.00  0.00    +0.000 C 
ATOM     14  C   UNL     1      -1.160  15.183  24.004  0.00  0.00    +0.000 C 
ATOM     15  C   UNL     1      -0.795  14.289  23.086  0.00  0.00    +0.000 C 
ATOM     16  S   UNL     1       0.127  12.216  20.953  0.00  0.00    +0.000 S 
ATOM     17  C   UNL     1      -0.037  11.125  19.557  0.00  0.00    +0.000 A 
ATOM     18  C   UNL     1       1.141  10.453  19.217  0.00  0.00    +0.000 A 
ATOM     19  C   UNL     1       1.154   9.569  18.149  0.00  0.00    +0.000 A 
ATOM     20  C   UNL     1      -0.010   9.353  17.415  0.00  0.00    +0.000 A 
ATOM     21  C   UNL     1      -1.194  10.017  17.741  0.00  0.00    +0.000 A 
ATOM     22  C   UNL     1      -1.221  10.908  18.813  0.00  0.00    +0.000 A 
ENDROOT
BRANCH   1  23
ATOM     23  C   UNL     1      -5.828  12.555  18.919  0.00  0.00    +0.000 C 
BRANCH  23  24
ATOM     24  C   UNL     1      -6.685  11.298  19.142  0.00  0.00    +0.000 C 
BRANCH  24  26
ATOM     25  C   UNL     1      -7.584  12.007  21.264  0.00  0.00    +0.000 C 
ATOM     26  N   UNL     1      -6.892  10.918  20.562  0.00  0.00    +0.000 NA
ATOM     27  C   UNL     1      -7.656   9.679  20.716  0.00  0.00    +0.000 C 
ENDBRANCH  24  26
ENDBRANCH  23  24
ENDBRANCH   1  23
TORSDOF 3
ENDMDL
