MODEL 1
REMARK VINA RESULT:      -6.3      0.000      0.000
REMARK  Name = 
REMARK  9 active torsions:
REMARK  status: ('A' for Active; 'I' for Inactive)
REMARK    1  A    between atoms: C_1  and  S_2
REMARK    2  A    between atoms: S_2  and  C_3
REMARK    3  A    between atoms: C_3  and  C_4
REMARK    4  A    between atoms: C_4  and  C_5
REMARK    5  A    between atoms: C_5  and  N_6
REMARK    6  A    between atoms: C_5  and  C_7
REMARK    7  A    between atoms: C_13  and  C_14
REMARK    8  A    between atoms: N_16  and  C_17
REMARK    9  A    between atoms: C_20  and  N_21
REMARK                            x       y       z     vdW  Elec       q    Type
REMARK                         _______ _______ _______ _____ _____    ______ ____
ROOT
ATOM      1  C   UNL     1       4.240   4.795  18.579  0.00  0.00    +0.000 C 
ATOM      2  O   UNL     1       4.222   6.026  18.599  0.00  0.00    +0.000 OA
ATOM      3  N   UNL     1       3.521   4.049  19.499  0.00  0.00    +0.000 N 
ATOM      4  C   UNL     1       3.619   2.614  19.683  0.00  0.00    +0.000 C 
ATOM      5  C   UNL     1       2.401   2.303  20.520  0.00  0.00    +0.000 C 
ATOM      6  C   UNL     1       2.364   3.475  21.497  0.00  0.00    +0.000 C 
ATOM      7  C   UNL     1       2.931   4.667  20.692  0.00  0.00    +0.000 C 
ENDROOT
BRANCH   7   8
ATOM      8  C   UNL     1       1.783   5.679  20.497  0.00  0.00    +0.000 C 
ATOM      9  O   UNL     1       0.609   5.327  20.489  0.00  0.00    +0.000 OA
ATOM     10  N   UNL     1       2.247   7.001  20.480  0.00  0.00    +0.000 N 
ATOM     11  H   UNL     1       3.228   7.138  20.287  0.00  0.00    +0.000 HD
BRANCH  10  12
ATOM     12  C   UNL     1       1.455   8.170  20.551  0.00  0.00    +0.000 A 
ATOM     13  C   UNL     1       0.852   8.610  21.729  0.00  0.00    +0.000 A 
ATOM     14  C   UNL     1       0.073   9.772  21.752  0.00  0.00    +0.000 A 
ATOM     15  C   UNL     1      -0.100  10.513  20.580  0.00  0.00    +0.000 A 
ATOM     16  C   UNL     1       0.520  10.107  19.393  0.00  0.00    +0.000 A 
ATOM     17  C   UNL     1       1.306   8.944  19.384  0.00  0.00    +0.000 A 
BRANCH  15  18
ATOM     18  N   UNL     1      -0.936  11.722  20.603  0.00  0.00    +0.000 N 
ATOM     19  O   UNL     1      -1.607  11.942  21.622  0.00  0.00    +0.000 OA
ATOM     20  O   UNL     1      -0.918  12.452  19.602  0.00  0.00    +0.000 OA
ENDBRANCH  15  18
ENDBRANCH  10  12
ENDBRANCH   7   8
BRANCH   1  21
ATOM     21  C   UNL     1       5.026   3.992  17.501  0.00  0.00    +0.000 C 
BRANCH  21  22
ATOM     22  N   UNL     1       4.125   3.645  16.373  0.00  0.00    +0.000 NA
ATOM     23  H   UNL     1       3.456   2.942  16.697  0.00  0.00    +0.000 HD
ATOM     24  H   UNL     1       4.662   3.170  15.648  0.00  0.00    +0.000 HD
ENDBRANCH  21  22
BRANCH  21  25
ATOM     25  C   UNL     1       6.234   4.746  16.922  0.00  0.00    +0.000 C 
BRANCH  25  26
ATOM     26  C   UNL     1       7.530   4.649  17.731  0.00  0.00    +0.000 C 
BRANCH  26  28
ATOM     27  C   UNL     1       7.670   7.423  17.774  0.00  0.00    +0.000 C 
ATOM     28  S   UNL     1       7.827   6.017  18.903  0.00  0.00    +0.000 S 
ENDBRANCH  26  28
ENDBRANCH  25  26
ENDBRANCH  21  25
ENDBRANCH   1  21
TORSDOF 8
ENDMDL
MODEL 2
REMARK VINA RESULT:      -6.2      0.787      1.323
REMARK  Name = 
REMARK  9 active torsions:
REMARK  status: ('A' for Active; 'I' for Inactive)
REMARK    1  A    between atoms: C_1  and  S_2
REMARK    2  A    between atoms: S_2  and  C_3
REMARK    3  A    between atoms: C_3  and  C_4
REMARK    4  A    between atoms: C_4  and  C_5
REMARK    5  A    between atoms: C_5  and  N_6
REMARK    6  A    between atoms: C_5  and  C_7
REMARK    7  A    between atoms: C_13  and  C_14
REMARK    8  A    between atoms: N_16  and  C_17
REMARK    9  A    between atoms: C_20  and  N_21
REMARK                            x       y       z     vdW  Elec       q    Type
REMARK                         _______ _______ _______ _____ _____    ______ ____
ROOT
ATOM      1  C   UNL     1       4.529   4.892  18.006  0.00  0.00    +0.000 C 
ATOM      2  O   UNL     1       4.511   6.100  18.242  0.00  0.00    +0.000 OA
ATOM      3  N   UNL     1       3.802   3.997  18.775  0.00  0.00    +0.000 N 
ATOM      4  C   UNL     1       3.899   2.552  18.705  0.00  0.00    +0.000 C 
ATOM      5  C   UNL     1       2.674   2.101  19.465  0.00  0.00    +0.000 C 
ATOM      6  C   UNL     1       2.631   3.083  20.632  0.00  0.00    +0.000 C 
ATOM      7  C   UNL     1       3.205   4.397  20.054  0.00  0.00    +0.000 C 
ENDROOT
BRANCH   7   8
ATOM      8  C   UNL     1       2.058   5.429  20.032  0.00  0.00    +0.000 C 
ATOM      9  O   UNL     1       0.882   5.087  20.071  0.00  0.00    +0.000 OA
ATOM     10  N   UNL     1       2.535   6.745  20.106  0.00  0.00    +0.000 N 
ATOM     11  H   UNL     1       3.504   6.893  19.861  0.00  0.00    +0.000 HD
BRANCH  10  12
ATOM     12  C   UNL     1       1.764   7.906  20.339  0.00  0.00    +0.000 A 
ATOM     13  C   UNL     1       1.434   8.815  19.334  0.00  0.00    +0.000 A 
ATOM     14  C   UNL     1       0.671   9.954  19.612  0.00  0.00    +0.000 A 
ATOM     15  C   UNL     1       0.221  10.186  20.915  0.00  0.00    +0.000 A 
ATOM     16  C   UNL     1       0.514   9.271  21.933  0.00  0.00    +0.000 A 
ATOM     17  C   UNL     1       1.274   8.127  21.640  0.00  0.00    +0.000 A 
BRANCH  15  18
ATOM     18  N   UNL     1      -0.563  11.394  21.207  0.00  0.00    +0.000 N 
ATOM     19  O   UNL     1      -1.526  11.651  20.470  0.00  0.00    +0.000 OA
ATOM     20  O   UNL     1      -0.216  12.083  22.177  0.00  0.00    +0.000 OA
ENDBRANCH  15  18
ENDBRANCH  10  12
ENDBRANCH   7   8
BRANCH   1  21
ATOM     21  C   UNL     1       5.322   4.290  16.808  0.00  0.00    +0.000 C 
BRANCH  21  22
ATOM     22  N   UNL     1       4.752   4.780  15.528  0.00  0.00    +0.000 NA
ATOM     23  H   UNL     1       4.593   5.787  15.608  0.00  0.00    +0.000 HD
ATOM     24  H   UNL     1       3.821   4.385  15.402  0.00  0.00    +0.000 HD
ENDBRANCH  21  22
BRANCH  21  25
ATOM     25  C   UNL     1       6.820   4.635  16.819  0.00  0.00    +0.000 C 
BRANCH  25  26
ATOM     26  C   UNL     1       7.489   4.653  18.195  0.00  0.00    +0.000 C 
BRANCH  26  28
ATOM     27  C   UNL     1       7.518   7.307  17.374  0.00  0.00    +0.000 C 
ATOM     28  S   UNL     1       7.981   6.302  18.807  0.00  0.00    +0.000 S 
ENDBRANCH  26  28
ENDBRANCH  25  26
ENDBRANCH  21  25
ENDBRANCH   1  21
TORSDOF 8
ENDMDL
MODEL 3
REMARK VINA RESULT:      -6.2      4.532      9.324
REMARK  Name = 
REMARK  9 active torsions:
REMARK  status: ('A' for Active; 'I' for Inactive)
REMARK    1  A    between atoms: C_1  and  S_2
REMARK    2  A    between atoms: S_2  and  C_3
REMARK    3  A    between atoms: C_3  and  C_4
REMARK    4  A    between atoms: C_4  and  C_5
REMARK    5  A    between atoms: C_5  and  N_6
REMARK    6  A    between atoms: C_5  and  C_7
REMARK    7  A    between atoms: C_13  and  C_14
REMARK    8  A    between atoms: N_16  and  C_17
REMARK    9  A    between atoms: C_20  and  N_21
REMARK                            x       y       z     vdW  Elec       q    Type
REMARK                         _______ _______ _______ _____ _____    ______ ____
ROOT
ATOM      1  C   UNL     1      -1.535  10.822  17.975  0.00  0.00    +0.000 C 
ATOM      2  O   UNL     1      -1.521   9.597  18.092  0.00  0.00    +0.000 OA
ATOM      3  N   UNL     1      -0.450  11.595  18.357  0.00  0.00    +0.000 N 
ATOM      4  C   UNL     1      -0.432  13.042  18.439  0.00  0.00    +0.000 C 
ATOM      5  C   UNL     1       1.043  13.350  18.543  0.00  0.00    +0.000 C 
ATOM      6  C   UNL     1       1.545  12.250  19.475  0.00  0.00    +0.000 C 
ATOM      7  C   UNL     1       0.644  11.034  19.158  0.00  0.00    +0.000 C 
ENDROOT
BRANCH   7   8
ATOM      8  C   UNL     1       1.539   9.954  18.516  0.00  0.00    +0.000 C 
ATOM      9  O   UNL     1       2.314  10.218  17.604  0.00  0.00    +0.000 OA
ATOM     10  N   UNL     1       1.447   8.728  19.190  0.00  0.00    +0.000 N 
ATOM     11  H   UNL     1       0.636   8.589  19.775  0.00  0.00    +0.000 HD
BRANCH  10  12
ATOM     12  C   UNL     1       2.291   7.609  19.015  0.00  0.00    +0.000 A 
ATOM     13  C   UNL     1       3.186   7.488  17.952  0.00  0.00    +0.000 A 
ATOM     14  C   UNL     1       4.001   6.359  17.817  0.00  0.00    +0.000 A 
ATOM     15  C   UNL     1       3.928   5.335  18.766  0.00  0.00    +0.000 A 
ATOM     16  C   UNL     1       3.059   5.448  19.857  0.00  0.00    +0.000 A 
ATOM     17  C   UNL     1       2.253   6.590  19.987  0.00  0.00    +0.000 A 
BRANCH  15  18
ATOM     18  N   UNL     1       4.771   4.141  18.610  0.00  0.00    +0.000 N 
ATOM     19  O   UNL     1       5.991   4.268  18.783  0.00  0.00    +0.000 OA
ATOM     20  O   UNL     1       4.208   3.076  18.317  0.00  0.00    +0.000 OA
ENDBRANCH  15  18
ENDBRANCH  10  12
ENDBRANCH   7   8
BRANCH   1  21
ATOM     21  C   UNL     1      -2.743  11.585  17.353  0.00  0.00    +0.000 C 
BRANCH  21  22
ATOM     22  N   UNL     1      -2.654  11.549  15.871  0.00  0.00    +0.000 NA
ATOM     23  H   UNL     1      -3.090  10.685  15.542  0.00  0.00    +0.000 HD
ATOM     24  H   UNL     1      -1.676  11.460  15.596  0.00  0.00    +0.000 HD
ENDBRANCH  21  22
BRANCH  21  25
ATOM     25  C   UNL     1      -4.112  11.016  17.756  0.00  0.00    +0.000 C 
BRANCH  25  26
ATOM     26  C   UNL     1      -5.330  11.728  17.164  0.00  0.00    +0.000 C 
BRANCH  26  28
ATOM     27  C   UNL     1      -6.719  10.165  18.993  0.00  0.00    +0.000 C 
ATOM     28  S   UNL     1      -6.793  11.816  18.253  0.00  0.00    +0.000 S 
ENDBRANCH  26  28
ENDBRANCH  25  26
ENDBRANCH  21  25
ENDBRANCH   1  21
TORSDOF 8
ENDMDL
MODEL 4
REMARK VINA RESULT:      -6.1      1.721      2.124
REMARK  Name = 
REMARK  9 active torsions:
REMARK  status: ('A' for Active; 'I' for Inactive)
REMARK    1  A    between atoms: C_1  and  S_2
REMARK    2  A    between atoms: S_2  and  C_3
REMARK    3  A    between atoms: C_3  and  C_4
REMARK    4  A    between atoms: C_4  and  C_5
REMARK    5  A    between atoms: C_5  and  N_6
REMARK    6  A    between atoms: C_5  and  C_7
REMARK    7  A    between atoms: C_13  and  C_14
REMARK    8  A    between atoms: N_16  and  C_17
REMARK    9  A    between atoms: C_20  and  N_21
REMARK                            x       y       z     vdW  Elec       q    Type
REMARK                         _______ _______ _______ _____ _____    ______ ____
ROOT
ATOM      1  C   UNL     1       4.247   6.183  17.503  0.00  0.00    +0.000 C 
ATOM      2  O   UNL     1       4.652   7.315  17.769  0.00  0.00    +0.000 OA
ATOM      3  N   UNL     1       3.260   5.574  18.262  0.00  0.00    +0.000 N 
ATOM      4  C   UNL     1       2.848   4.188  18.155  0.00  0.00    +0.000 C 
ATOM      5  C   UNL     1       1.548   4.169  18.925  0.00  0.00    +0.000 C 
ATOM      6  C   UNL     1       1.858   5.071  20.117  0.00  0.00    +0.000 C 
ATOM      7  C   UNL     1       2.848   6.120  19.561  0.00  0.00    +0.000 C 
ENDROOT
BRANCH   7   8
ATOM      8  C   UNL     1       2.132   7.486  19.584  0.00  0.00    +0.000 C 
ATOM      9  O   UNL     1       1.780   8.047  18.552  0.00  0.00    +0.000 OA
ATOM     10  N   UNL     1       1.829   7.897  20.889  0.00  0.00    +0.000 N 
ATOM     11  H   UNL     1       2.347   7.460  21.637  0.00  0.00    +0.000 HD
BRANCH  10  12
ATOM     12  C   UNL     1       0.983   8.968  21.257  0.00  0.00    +0.000 A 
ATOM     13  C   UNL     1       0.826  10.115  20.480  0.00  0.00    +0.000 A 
ATOM     14  C   UNL     1      -0.020  11.153  20.886  0.00  0.00    +0.000 A 
ATOM     15  C   UNL     1      -0.729  11.041  22.085  0.00  0.00    +0.000 A 
ATOM     16  C   UNL     1      -0.610   9.885  22.866  0.00  0.00    +0.000 A 
ATOM     17  C   UNL     1       0.235   8.846  22.444  0.00  0.00    +0.000 A 
BRANCH  15  18
ATOM     18  N   UNL     1      -1.601  12.141  22.518  0.00  0.00    +0.000 N 
ATOM     19  O   UNL     1      -2.474  11.890  23.361  0.00  0.00    +0.000 OA
ATOM     20  O   UNL     1      -1.407  13.258  22.017  0.00  0.00    +0.000 OA
ENDBRANCH  15  18
ENDBRANCH  10  12
ENDBRANCH   7   8
BRANCH   1  21
ATOM     21  C   UNL     1       4.773   5.378  16.278  0.00  0.00    +0.000 C 
BRANCH  21  22
ATOM     22  N   UNL     1       5.382   6.303  15.289  0.00  0.00    +0.000 NA
ATOM     23  H   UNL     1       4.632   6.745  14.754  0.00  0.00    +0.000 HD
ATOM     24  H   UNL     1       5.901   5.762  14.599  0.00  0.00    +0.000 HD
ENDBRANCH  21  22
BRANCH  21  25
ATOM     25  C   UNL     1       5.823   4.316  16.638  0.00  0.00    +0.000 C 
BRANCH  25  26
ATOM     26  C   UNL     1       7.246   4.834  16.858  0.00  0.00    +0.000 C 
BRANCH  26  28
ATOM     27  C   UNL     1       7.952   7.140  18.238  0.00  0.00    +0.000 C 
ATOM     28  S   UNL     1       7.625   5.388  18.556  0.00  0.00    +0.000 S 
ENDBRANCH  26  28
ENDBRANCH  25  26
ENDBRANCH  21  25
ENDBRANCH   1  21
TORSDOF 8
ENDMDL
MODEL 5
REMARK VINA RESULT:      -5.9      3.859      8.887
REMARK  Name = 
REMARK  9 active torsions:
REMARK  status: ('A' for Active; 'I' for Inactive)
REMARK    1  A    between atoms: C_1  and  S_2
REMARK    2  A    between atoms: S_2  and  C_3
REMARK    3  A    between atoms: C_3  and  C_4
REMARK    4  A    between atoms: C_4  and  C_5
REMARK    5  A    between atoms: C_5  and  N_6
REMARK    6  A    between atoms: C_5  and  C_7
REMARK    7  A    between atoms: C_13  and  C_14
REMARK    8  A    between atoms: N_16  and  C_17
REMARK    9  A    between atoms: C_20  and  N_21
REMARK                            x       y       z     vdW  Elec       q    Type
REMARK                         _______ _______ _______ _____ _____    ______ ____
ROOT
ATOM      1  C   UNL     1      -0.763  10.300  18.441  0.00  0.00    +0.000 C 
ATOM      2  O   UNL     1      -0.619   9.605  17.435  0.00  0.00    +0.000 OA
ATOM      3  N   UNL     1      -0.078  10.021  19.613  0.00  0.00    +0.000 N 
ATOM      4  C   UNL     1      -0.313  10.652  20.898  0.00  0.00    +0.000 C 
ATOM      5  C   UNL     1       0.908  10.251  21.692  0.00  0.00    +0.000 C 
ATOM      6  C   UNL     1       1.113   8.798  21.270  0.00  0.00    +0.000 C 
ATOM      7  C   UNL     1       0.630   8.750  19.802  0.00  0.00    +0.000 C 
ENDROOT
BRANCH   7   8
ATOM      8  C   UNL     1       1.864   8.465  18.921  0.00  0.00    +0.000 C 
ATOM      9  O   UNL     1       2.440   9.358  18.310  0.00  0.00    +0.000 OA
ATOM     10  N   UNL     1       2.293   7.135  19.033  0.00  0.00    +0.000 N 
ATOM     11  H   UNL     1       1.624   6.469  19.392  0.00  0.00    +0.000 HD
BRANCH  10  12
ATOM     12  C   UNL     1       3.510   6.602  18.554  0.00  0.00    +0.000 A 
ATOM     13  C   UNL     1       4.074   6.970  17.332  0.00  0.00    +0.000 A 
ATOM     14  C   UNL     1       5.280   6.413  16.896  0.00  0.00    +0.000 A 
ATOM     15  C   UNL     1       5.942   5.478  17.697  0.00  0.00    +0.000 A 
ATOM     16  C   UNL     1       5.410   5.116  18.940  0.00  0.00    +0.000 A 
ATOM     17  C   UNL     1       4.203   5.689  19.371  0.00  0.00    +0.000 A 
BRANCH  15  18
ATOM     18  N   UNL     1       7.199   4.880  17.226  0.00  0.00    +0.000 N 
ATOM     19  O   UNL     1       7.938   4.349  18.067  0.00  0.00    +0.000 OA
ATOM     20  O   UNL     1       7.443   4.939  16.012  0.00  0.00    +0.000 OA
ENDBRANCH  15  18
ENDBRANCH  10  12
ENDBRANCH   7   8
BRANCH   1  21
ATOM     21  C   UNL     1      -1.680  11.559  18.459  0.00  0.00    +0.000 C 
BRANCH  21  22
ATOM     22  N   UNL     1      -1.245  12.515  17.408  0.00  0.00    +0.000 NA
ATOM     23  H   UNL     1      -1.347  13.465  17.772  0.00  0.00    +0.000 HD
ATOM     24  H   UNL     1      -1.895  12.471  16.624  0.00  0.00    +0.000 HD
ENDBRANCH  21  22
BRANCH  21  25
ATOM     25  C   UNL     1      -3.166  11.249  18.225  0.00  0.00    +0.000 C 
BRANCH  25  26
ATOM     26  C   UNL     1      -4.158  12.108  19.014  0.00  0.00    +0.000 C 
BRANCH  26  28
ATOM     27  C   UNL     1      -4.970  13.763  21.092  0.00  0.00    +0.000 C 
ATOM     28  S   UNL     1      -3.501  12.857  20.545  0.00  0.00    +0.000 S 
ENDBRANCH  26  28
ENDBRANCH  25  26
ENDBRANCH  21  25
ENDBRANCH   1  21
TORSDOF 8
ENDMDL
MODEL 6
REMARK VINA RESULT:      -5.9      1.278      1.912
REMARK  Name = 
REMARK  9 active torsions:
REMARK  status: ('A' for Active; 'I' for Inactive)
REMARK    1  A    between atoms: C_1  and  S_2
REMARK    2  A    between atoms: S_2  and  C_3
REMARK    3  A    between atoms: C_3  and  C_4
REMARK    4  A    between atoms: C_4  and  C_5
REMARK    5  A    between atoms: C_5  and  N_6
REMARK    6  A    between atoms: C_5  and  C_7
REMARK    7  A    between atoms: C_13  and  C_14
REMARK    8  A    between atoms: N_16  and  C_17
REMARK    9  A    between atoms: C_20  and  N_21
REMARK                            x       y       z     vdW  Elec       q    Type
REMARK                         _______ _______ _______ _____ _____    ______ ____
ROOT
ATOM      1  C   UNL     1       4.108   4.843  18.764  0.00  0.00    +0.000 C 
ATOM      2  O   UNL     1       4.124   6.073  18.784  0.00  0.00    +0.000 OA
ATOM      3  N   UNL     1       3.348   4.117  19.668  0.00  0.00    +0.000 N 
ATOM      4  C   UNL     1       3.403   2.680  19.854  0.00  0.00    +0.000 C 
ATOM      5  C   UNL     1       2.158   2.403  20.664  0.00  0.00    +0.000 C 
ATOM      6  C   UNL     1       2.132   3.577  21.640  0.00  0.00    +0.000 C 
ATOM      7  C   UNL     1       2.750   4.752  20.848  0.00  0.00    +0.000 C 
ENDROOT
BRANCH   7   8
ATOM      8  C   UNL     1       1.635   5.795  20.628  0.00  0.00    +0.000 C 
ATOM      9  O   UNL     1       0.460   5.467  20.512  0.00  0.00    +0.000 OA
ATOM     10  N   UNL     1       2.118   7.107  20.723  0.00  0.00    +0.000 N 
ATOM     11  H   UNL     1       3.114   7.236  20.613  0.00  0.00    +0.000 HD
BRANCH  10  12
ATOM     12  C   UNL     1       1.341   8.285  20.805  0.00  0.00    +0.000 A 
ATOM     13  C   UNL     1       1.088   9.107  19.707  0.00  0.00    +0.000 A 
ATOM     14  C   UNL     1       0.315  10.266  19.835  0.00  0.00    +0.000 A 
ATOM     15  C   UNL     1      -0.223  10.606  21.080  0.00  0.00    +0.000 A 
ATOM     16  C   UNL     1      -0.008   9.779  22.189  0.00  0.00    +0.000 A 
ATOM     17  C   UNL     1       0.762   8.614  22.046  0.00  0.00    +0.000 A 
BRANCH  15  18
ATOM     18  N   UNL     1      -1.017  11.835  21.215  0.00  0.00    +0.000 N 
ATOM     19  O   UNL     1      -1.631  12.014  22.277  0.00  0.00    +0.000 OA
ATOM     20  O   UNL     1      -1.024  12.623  20.258  0.00  0.00    +0.000 OA
ENDBRANCH  15  18
ENDBRANCH  10  12
ENDBRANCH   7   8
BRANCH   1  21
ATOM     21  C   UNL     1       4.895   4.017  17.703  0.00  0.00    +0.000 C 
BRANCH  21  22
ATOM     22  N   UNL     1       3.988   3.626  16.594  0.00  0.00    +0.000 NA
ATOM     23  H   UNL     1       4.529   3.103  15.902  0.00  0.00    +0.000 HD
ATOM     24  H   UNL     1       3.683   4.464  16.099  0.00  0.00    +0.000 HD
ENDBRANCH  21  22
BRANCH  21  25
ATOM     25  C   UNL     1       6.088   4.768  17.092  0.00  0.00    +0.000 C 
BRANCH  25  26
ATOM     26  C   UNL     1       5.874   5.324  15.682  0.00  0.00    +0.000 C 
BRANCH  26  28
ATOM     27  C   UNL     1       6.013   3.778  13.378  0.00  0.00    +0.000 C 
ATOM     28  S   UNL     1       7.090   4.782  14.432  0.00  0.00    +0.000 S 
ENDBRANCH  26  28
ENDBRANCH  25  26
ENDBRANCH  21  25
ENDBRANCH   1  21
TORSDOF 8
ENDMDL
MODEL 7
REMARK VINA RESULT:      -5.9      2.194      2.484
REMARK  Name = 
REMARK  9 active torsions:
REMARK  status: ('A' for Active; 'I' for Inactive)
REMARK    1  A    between atoms: C_1  and  S_2
REMARK    2  A    between atoms: S_2  and  C_3
REMARK    3  A    between atoms: C_3  and  C_4
REMARK    4  A    between atoms: C_4  and  C_5
REMARK    5  A    between atoms: C_5  and  N_6
REMARK    6  A    between atoms: C_5  and  C_7
REMARK    7  A    between atoms: C_13  and  C_14
REMARK    8  A    between atoms: N_16  and  C_17
REMARK    9  A    between atoms: C_20  and  N_21
REMARK                            x       y       z     vdW  Elec       q    Type
REMARK                         _______ _______ _______ _____ _____    ______ ____
ROOT
ATOM      1  C   UNL     1       4.643   5.263  17.627  0.00  0.00    +0.000 C 
ATOM      2  O   UNL     1       4.990   6.151  18.406  0.00  0.00    +0.000 OA
ATOM      3  N   UNL     1       3.740   4.283  18.008  0.00  0.00    +0.000 N 
ATOM      4  C   UNL     1       3.410   3.096  17.243  0.00  0.00    +0.000 C 
ATOM      5  C   UNL     1       2.159   2.598  17.927  0.00  0.00    +0.000 C 
ATOM      6  C   UNL     1       2.477   2.828  19.403  0.00  0.00    +0.000 C 
ATOM      7  C   UNL     1       3.368   4.092  19.414  0.00  0.00    +0.000 C 
ENDROOT
BRANCH   7   8
ATOM      8  C   UNL     1       2.569   5.210  20.116  0.00  0.00    +0.000 C 
ATOM      9  O   UNL     1       2.311   5.163  21.313  0.00  0.00    +0.000 OA
ATOM     10  N   UNL     1       2.325   6.295  19.263  0.00  0.00    +0.000 N 
ATOM     11  H   UNL     1       2.403   6.122  18.271  0.00  0.00    +0.000 HD
BRANCH  10  12
ATOM     12  C   UNL     1       1.833   7.565  19.639  0.00  0.00    +0.000 A 
ATOM     13  C   UNL     1       1.441   7.874  20.941  0.00  0.00    +0.000 A 
ATOM     14  C   UNL     1       0.955   9.145  21.267  0.00  0.00    +0.000 A 
ATOM     15  C   UNL     1       0.868  10.129  20.277  0.00  0.00    +0.000 A 
ATOM     16  C   UNL     1       1.285   9.850  18.970  0.00  0.00    +0.000 A 
ATOM     17  C   UNL     1       1.778   8.573  18.657  0.00  0.00    +0.000 A 
BRANCH  15  18
ATOM     18  N   UNL     1       0.339  11.456  20.619  0.00  0.00    +0.000 N 
ATOM     19  O   UNL     1       0.648  11.937  21.719  0.00  0.00    +0.000 OA
ATOM     20  O   UNL     1      -0.384  12.018  19.783  0.00  0.00    +0.000 OA
ENDBRANCH  15  18
ENDBRANCH  10  12
ENDBRANCH   7   8
BRANCH   1  21
ATOM     21  C   UNL     1       5.149   5.202  16.155  0.00  0.00    +0.000 C 
BRANCH  21  22
ATOM     22  N   UNL     1       5.225   6.574  15.590  0.00  0.00    +0.000 NA
ATOM     23  H   UNL     1       5.160   7.245  16.358  0.00  0.00    +0.000 HD
ATOM     24  H   UNL     1       4.393   6.751  15.027  0.00  0.00    +0.000 HD
ENDBRANCH  21  22
BRANCH  21  25
ATOM     25  C   UNL     1       6.533   4.554  16.001  0.00  0.00    +0.000 C 
BRANCH  25  26
ATOM     26  C   UNL     1       7.154   4.633  14.604  0.00  0.00    +0.000 C 
BRANCH  26  28
ATOM     27  C   UNL     1       7.202   4.290  11.848  0.00  0.00    +0.000 C 
ATOM     28  S   UNL     1       6.229   3.773  13.285  0.00  0.00    +0.000 S 
ENDBRANCH  26  28
ENDBRANCH  25  26
ENDBRANCH  21  25
ENDBRANCH   1  21
TORSDOF 8
ENDMDL
MODEL 8
REMARK VINA RESULT:      -5.9      4.639      9.364
REMARK  Name = 
REMARK  9 active torsions:
REMARK  status: ('A' for Active; 'I' for Inactive)
REMARK    1  A    between atoms: C_1  and  S_2
REMARK    2  A    between atoms: S_2  and  C_3
REMARK    3  A    between atoms: C_3  and  C_4
REMARK    4  A    between atoms: C_4  and  C_5
REMARK    5  A    between atoms: C_5  and  N_6
REMARK    6  A    between atoms: C_5  and  C_7
REMARK    7  A    between atoms: C_13  and  C_14
REMARK    8  A    between atoms: N_16  and  C_17
REMARK    9  A    between atoms: C_20  and  N_21
REMARK                            x       y       z     vdW  Elec       q    Type
REMARK                         _______ _______ _______ _____ _____    ______ ____
ROOT
ATOM      1  C   UNL     1      -1.624  10.804  17.881  0.00  0.00    +0.000 C 
ATOM      2  O   UNL     1      -1.515   9.580  17.944  0.00  0.00    +0.000 OA
ATOM      3  N   UNL     1      -0.628  11.642  18.358  0.00  0.00    +0.000 N 
ATOM      4  C   UNL     1      -0.734  13.080  18.504  0.00  0.00    +0.000 C 
ATOM      5  C   UNL     1       0.703  13.499  18.706  0.00  0.00    +0.000 C 
ATOM      6  C   UNL     1       1.242  12.400  19.618  0.00  0.00    +0.000 C 
ATOM      7  C   UNL     1       0.463  11.132  19.196  0.00  0.00    +0.000 C 
ENDROOT
BRANCH   7   8
ATOM      8  C   UNL     1       1.478  10.159  18.561  0.00  0.00    +0.000 C 
ATOM      9  O   UNL     1       2.349  10.548  17.791  0.00  0.00    +0.000 OA
ATOM     10  N   UNL     1       1.356   8.862  19.079  0.00  0.00    +0.000 N 
ATOM     11  H   UNL     1       0.486   8.634  19.537  0.00  0.00    +0.000 HD
BRANCH  10  12
ATOM     12  C   UNL     1       2.264   7.795  18.894  0.00  0.00    +0.000 A 
ATOM     13  C   UNL     1       2.392   6.739  19.796  0.00  0.00    +0.000 A 
ATOM     14  C   UNL     1       3.308   5.705  19.573  0.00  0.00    +0.000 A 
ATOM     15  C   UNL     1       4.104   5.720  18.425  0.00  0.00    +0.000 A 
ATOM     16  C   UNL     1       3.972   6.755  17.491  0.00  0.00    +0.000 A 
ATOM     17  C   UNL     1       3.043   7.782  17.721  0.00  0.00    +0.000 A 
BRANCH  15  18
ATOM     18  N   UNL     1       5.079   4.643  18.204  0.00  0.00    +0.000 N 
ATOM     19  O   UNL     1       5.553   4.079  19.201  0.00  0.00    +0.000 OA
ATOM     20  O   UNL     1       5.368   4.361  17.032  0.00  0.00    +0.000 OA
ENDBRANCH  15  18
ENDBRANCH  10  12
ENDBRANCH   7   8
BRANCH   1  21
ATOM     21  C   UNL     1      -2.854  11.497  17.223  0.00  0.00    +0.000 C 
BRANCH  21  22
ATOM     22  N   UNL     1      -2.819  11.298  15.752  0.00  0.00    +0.000 NA
ATOM     23  H   UNL     1      -3.268  12.101  15.306  0.00  0.00    +0.000 HD
ATOM     24  H   UNL     1      -3.412  10.506  15.507  0.00  0.00    +0.000 HD
ENDBRANCH  21  22
BRANCH  21  25
ATOM     25  C   UNL     1      -4.207  10.979  17.736  0.00  0.00    +0.000 C 
BRANCH  25  26
ATOM     26  C   UNL     1      -5.081  12.004  18.461  0.00  0.00    +0.000 C 
BRANCH  26  28
ATOM     27  C   UNL     1      -6.792  13.660  17.030  0.00  0.00    +0.000 C 
ATOM     28  S   UNL     1      -6.821  12.079  17.912  0.00  0.00    +0.000 S 
ENDBRANCH  26  28
ENDBRANCH  25  26
ENDBRANCH  21  25
ENDBRANCH   1  21
TORSDOF 8
ENDMDL
MODEL 9
REMARK VINA RESULT:      -5.9      0.886      1.371
REMARK  Name = 
REMARK  9 active torsions:
REMARK  status: ('A' for Active; 'I' for Inactive)
REMARK    1  A    between atoms: C_1  and  S_2
REMARK    2  A    between atoms: S_2  and  C_3
REMARK    3  A    between atoms: C_3  and  C_4
REMARK    4  A    between atoms: C_4  and  C_5
REMARK    5  A    between atoms: C_5  and  N_6
REMARK    6  A    between atoms: C_5  and  C_7
REMARK    7  A    between atoms: C_13  and  C_14
REMARK    8  A    between atoms: N_16  and  C_17
REMARK    9  A    between atoms: C_20  and  N_21
REMARK                            x       y       z     vdW  Elec       q    Type
REMARK                         _______ _______ _______ _____ _____    ______ ____
ROOT
ATOM      1  C   UNL     1       3.695   4.744  18.354  0.00  0.00    +0.000 C 
ATOM      2  O   UNL     1       3.751   5.972  18.297  0.00  0.00    +0.000 OA
ATOM      3  N   UNL     1       3.090   4.099  19.422  0.00  0.00    +0.000 N 
ATOM      4  C   UNL     1       3.134   2.673  19.680  0.00  0.00    +0.000 C 
ATOM      5  C   UNL     1       2.050   2.491  20.716  0.00  0.00    +0.000 C 
ATOM      6  C   UNL     1       2.238   3.714  21.609  0.00  0.00    +0.000 C 
ATOM      7  C   UNL     1       2.737   4.820  20.650  0.00  0.00    +0.000 C 
ENDROOT
BRANCH   7   8
ATOM      8  C   UNL     1       1.633   5.894  20.573  0.00  0.00    +0.000 C 
ATOM      9  O   UNL     1       0.443   5.600  20.608  0.00  0.00    +0.000 OA
ATOM     10  N   UNL     1       2.161   7.192  20.604  0.00  0.00    +0.000 N 
ATOM     11  H   UNL     1       3.137   7.293  20.367  0.00  0.00    +0.000 HD
BRANCH  10  12
ATOM     12  C   UNL     1       1.434   8.391  20.782  0.00  0.00    +0.000 A 
ATOM     13  C   UNL     1       1.100   9.242  19.729  0.00  0.00    +0.000 A 
ATOM     14  C   UNL     1       0.381  10.421  19.953  0.00  0.00    +0.000 A 
ATOM     15  C   UNL     1      -0.020  10.753  21.250  0.00  0.00    +0.000 A 
ATOM     16  C   UNL     1       0.278   9.898  22.318  0.00  0.00    +0.000 A 
ATOM     17  C   UNL     1       0.992   8.713  22.080  0.00  0.00    +0.000 A 
BRANCH  15  18
ATOM     18  N   UNL     1      -0.757  12.002  21.485  0.00  0.00    +0.000 N 
ATOM     19  O   UNL     1      -0.099  13.030  21.699  0.00  0.00    +0.000 OA
ATOM     20  O   UNL     1      -1.995  11.954  21.451  0.00  0.00    +0.000 OA
ENDBRANCH  15  18
ENDBRANCH  10  12
ENDBRANCH   7   8
BRANCH   1  21
ATOM     21  C   UNL     1       4.249   3.832  17.220  0.00  0.00    +0.000 C 
BRANCH  21  22
ATOM     22  N   UNL     1       3.126   3.169  16.510  0.00  0.00    +0.000 NA
ATOM     23  H   UNL     1       3.510   2.448  15.896  0.00  0.00    +0.000 HD
ATOM     24  H   UNL     1       2.690   3.837  15.875  0.00  0.00    +0.000 HD
ENDBRANCH  21  22
BRANCH  21  25
ATOM     25  C   UNL     1       5.089   4.582  16.174  0.00  0.00    +0.000 C 
BRANCH  25  26
ATOM     26  C   UNL     1       6.590   4.286  16.188  0.00  0.00    +0.000 C 
BRANCH  26  28
ATOM     27  C   UNL     1       7.279   6.585  17.587  0.00  0.00    +0.000 C 
ATOM     28  S   UNL     1       7.474   4.789  17.705  0.00  0.00    +0.000 S 
ENDBRANCH  26  28
ENDBRANCH  25  26
ENDBRANCH  21  25
ENDBRANCH   1  21
TORSDOF 8
ENDMDL
