MODEL 1
REMARK VINA RESULT:      -6.3      0.000      0.000
REMARK  Name = 
REMARK  12 active torsions:
REMARK  status: ('A' for Active; 'I' for Inactive)
REMARK    1  A    between atoms: C_1  and  C_2
REMARK    2  A    between atoms: C_2  and  N_3
REMARK    3  A    between atoms: N_3  and  C_4
REMARK    4  A    between atoms: N_3  and  P_6
REMARK    5  A    between atoms: C_4  and  C_5
REMARK    6  A    between atoms: P_6  and  O_8
REMARK    7  A    between atoms: P_6  and  N_20
REMARK    8  A    between atoms: O_8  and  C_9
REMARK    9  A    between atoms: C_9  and  C_10
REMARK   10  A    between atoms: C_10  and  C_11
REMARK   11  A    between atoms: N_20  and  C_21
REMARK   12  A    between atoms: N_20  and  C_22
REMARK                            x       y       z     vdW  Elec       q    Type
REMARK                         _______ _______ _______ _____ _____    ______ ____
ROOT
ATOM      1  O   UNL     1       5.017   6.803  17.268  0.00  0.00    +0.000 OA
ENDROOT
BRANCH   1   2
ATOM      2  P   UNL     1       6.297   5.731  17.138  0.00  0.00    +0.000 P 
ATOM      3  O   UNL     1       7.279   6.302  16.099  0.00  0.00    +0.000 OA
BRANCH   2   4
ATOM      4  N   UNL     1       7.172   6.618  18.409  0.00  0.00    +0.000 NA
ATOM      5  C   UNL     1       8.070   5.821  19.255  0.00  0.00    +0.000 C 
ATOM      6  C   UNL     1       7.937   7.754  17.895  0.00  0.00    +0.000 C 
ENDBRANCH   2   4
BRANCH   2   7
ATOM      7  N   UNL     1       5.422   4.845  15.866  0.00  0.00    +0.000 NA
BRANCH   7   9
ATOM      8  C   UNL     1       6.212   3.793  13.725  0.00  0.00    +0.000 C 
ATOM      9  C   UNL     1       5.932   5.065  14.509  0.00  0.00    +0.000 C 
ENDBRANCH   7   9
BRANCH   7  10
ATOM     10  C   UNL     1       4.628   3.643  16.083  0.00  0.00    +0.000 C 
ATOM     11  C   UNL     1       4.672   3.043  17.480  0.00  0.00    +0.000 C 
ENDBRANCH   7  10
ENDBRANCH   2   7
ENDBRANCH   1   2
BRANCH   1  12
ATOM     12  C   UNL     1       4.091   6.644  18.347  0.00  0.00    +0.000 C 
BRANCH  12  13
ATOM     13  C   UNL     1       2.650   6.525  17.831  0.00  0.00    +0.000 C 
BRANCH  13  14
ATOM     14  C   UNL     1       2.040   5.208  18.192  0.00  0.00    +0.000 A 
ATOM     15  N   UNL     1       1.354   4.525  17.256  0.00  0.00    +0.000 NA
ATOM     16  O   UNL     1       0.862   3.398  17.897  0.00  0.00    +0.000 OA
ATOM     17  C   UNL     1       1.262   3.405  19.196  0.00  0.00    +0.000 A 
ATOM     18  C   UNL     1       0.943   2.434  20.150  0.00  0.00    +0.000 A 
ATOM     19  C   UNL     1       1.464   2.648  21.428  0.00  0.00    +0.000 A 
ATOM     20  C   UNL     1       2.266   3.759  21.719  0.00  0.00    +0.000 A 
ATOM     21  C   UNL     1       2.552   4.718  20.732  0.00  0.00    +0.000 A 
ATOM     22  C   UNL     1       2.034   4.527  19.437  0.00  0.00    +0.000 A 
ENDBRANCH  13  14
ENDBRANCH  12  13
ENDBRANCH   1  12
TORSDOF 8
ENDMDL
MODEL 2
REMARK VINA RESULT:      -6.2      3.211      4.754
REMARK  Name = 
REMARK  12 active torsions:
REMARK  status: ('A' for Active; 'I' for Inactive)
REMARK    1  A    between atoms: C_1  and  C_2
REMARK    2  A    between atoms: C_2  and  N_3
REMARK    3  A    between atoms: N_3  and  C_4
REMARK    4  A    between atoms: N_3  and  P_6
REMARK    5  A    between atoms: C_4  and  C_5
REMARK    6  A    between atoms: P_6  and  O_8
REMARK    7  A    between atoms: P_6  and  N_20
REMARK    8  A    between atoms: O_8  and  C_9
REMARK    9  A    between atoms: C_9  and  C_10
REMARK   10  A    between atoms: C_10  and  C_11
REMARK   11  A    between atoms: N_20  and  C_21
REMARK   12  A    between atoms: N_20  and  C_22
REMARK                            x       y       z     vdW  Elec       q    Type
REMARK                         _______ _______ _______ _____ _____    ______ ____
ROOT
ATOM      1  O   UNL     1       3.299   5.055  17.428  0.00  0.00    +0.000 OA
ENDROOT
BRANCH   1   2
ATOM      2  P   UNL     1       4.633   4.154  17.893  0.00  0.00    +0.000 P 
ATOM      3  O   UNL     1       5.117   4.703  19.247  0.00  0.00    +0.000 OA
BRANCH   2   4
ATOM      4  N   UNL     1       3.569   3.024  18.764  0.00  0.00    +0.000 NA
ATOM      5  C   UNL     1       3.022   1.910  17.977  0.00  0.00    +0.000 C 
ATOM      6  C   UNL     1       4.188   2.460  19.964  0.00  0.00    +0.000 C 
ENDBRANCH   2   4
BRANCH   2   7
ATOM      7  N   UNL     1       5.697   5.284  17.021  0.00  0.00    +0.000 NA
BRANCH   7   9
ATOM      8  C   UNL     1       7.442   7.056  17.384  0.00  0.00    +0.000 C 
ATOM      9  C   UNL     1       6.893   5.691  17.766  0.00  0.00    +0.000 C 
ENDBRANCH   7   9
BRANCH   7  10
ATOM     10  C   UNL     1       5.737   5.444  15.574  0.00  0.00    +0.000 C 
ATOM     11  C   UNL     1       6.027   4.192  14.760  0.00  0.00    +0.000 C 
ENDBRANCH   7  10
ENDBRANCH   2   7
ENDBRANCH   1   2
BRANCH   1  12
ATOM     12  C   UNL     1       2.746   5.995  18.352  0.00  0.00    +0.000 C 
BRANCH  12  13
ATOM     13  C   UNL     1       3.236   7.420  18.059  0.00  0.00    +0.000 C 
BRANCH  13  14
ATOM     14  C   UNL     1       2.196   8.442  18.390  0.00  0.00    +0.000 A 
ATOM     15  N   UNL     1       1.851   9.351  17.458  0.00  0.00    +0.000 NA
ATOM     16  O   UNL     1       0.931  10.188  18.071  0.00  0.00    +0.000 OA
ATOM     17  C   UNL     1       0.722   9.773  19.349  0.00  0.00    +0.000 A 
ATOM     18  C   UNL     1      -0.129  10.385  20.273  0.00  0.00    +0.000 A 
ATOM     19  C   UNL     1      -0.185   9.785  21.534  0.00  0.00    +0.000 A 
ATOM     20  C   UNL     1       0.557   8.637  21.835  0.00  0.00    +0.000 A 
ATOM     21  C   UNL     1       1.412   8.062  20.879  0.00  0.00    +0.000 A 
ATOM     22  C   UNL     1       1.489   8.650  19.603  0.00  0.00    +0.000 A 
ENDBRANCH  13  14
ENDBRANCH  12  13
ENDBRANCH   1  12
TORSDOF 8
ENDMDL
MODEL 3
REMARK VINA RESULT:      -6.2      3.299      4.931
REMARK  Name = 
REMARK  12 active torsions:
REMARK  status: ('A' for Active; 'I' for Inactive)
REMARK    1  A    between atoms: C_1  and  C_2
REMARK    2  A    between atoms: C_2  and  N_3
REMARK    3  A    between atoms: N_3  and  C_4
REMARK    4  A    between atoms: N_3  and  P_6
REMARK    5  A    between atoms: C_4  and  C_5
REMARK    6  A    between atoms: P_6  and  O_8
REMARK    7  A    between atoms: P_6  and  N_20
REMARK    8  A    between atoms: O_8  and  C_9
REMARK    9  A    between atoms: C_9  and  C_10
REMARK   10  A    between atoms: C_10  and  C_11
REMARK   11  A    between atoms: N_20  and  C_21
REMARK   12  A    between atoms: N_20  and  C_22
REMARK                            x       y       z     vdW  Elec       q    Type
REMARK                         _______ _______ _______ _____ _____    ______ ____
ROOT
ATOM      1  O   UNL     1       3.458   5.116  19.109  0.00  0.00    +0.000 OA
ENDROOT
BRANCH   1   2
ATOM      2  P   UNL     1       4.019   3.624  18.592  0.00  0.00    +0.000 P 
ATOM      3  O   UNL     1       5.172   3.211  19.525  0.00  0.00    +0.000 OA
BRANCH   2   4
ATOM      4  N   UNL     1       2.878   2.812  19.691  0.00  0.00    +0.000 NA
ATOM      5  C   UNL     1       2.438   3.588  20.858  0.00  0.00    +0.000 C 
ATOM      6  C   UNL     1       1.683   2.313  19.011  0.00  0.00    +0.000 C 
ENDBRANCH   2   4
BRANCH   2   7
ATOM      7  N   UNL     1       5.160   4.436  17.494  0.00  0.00    +0.000 NA
BRANCH   7   9
ATOM      8  C   UNL     1       6.960   6.124  17.971  0.00  0.00    +0.000 C 
ATOM      9  C   UNL     1       6.487   4.683  18.068  0.00  0.00    +0.000 C 
ENDBRANCH   7   9
BRANCH   7  10
ATOM     10  C   UNL     1       5.063   4.436  16.040  0.00  0.00    +0.000 C 
ATOM     11  C   UNL     1       6.208   3.782  15.282  0.00  0.00    +0.000 C 
ENDBRANCH   7  10
ENDBRANCH   2   7
ENDBRANCH   1   2
BRANCH   1  12
ATOM     12  C   UNL     1       2.648   5.892  18.222  0.00  0.00    +0.000 C 
BRANCH  12  13
ATOM     13  C   UNL     1       3.222   7.303  18.035  0.00  0.00    +0.000 C 
BRANCH  13  14
ATOM     14  C   UNL     1       2.214   8.359  18.363  0.00  0.00    +0.000 A 
ATOM     15  N   UNL     1       1.873   9.256  17.419  0.00  0.00    +0.000 NA
ATOM     16  O   UNL     1       0.987  10.129  18.031  0.00  0.00    +0.000 OA
ATOM     17  C   UNL     1       0.793   9.747  19.322  0.00  0.00    +0.000 A 
ATOM     18  C   UNL     1      -0.024  10.401  20.248  0.00  0.00    +0.000 A 
ATOM     19  C   UNL     1      -0.069   9.830  21.522  0.00  0.00    +0.000 A 
ATOM     20  C   UNL     1       0.650   8.670  21.835  0.00  0.00    +0.000 A 
ATOM     21  C   UNL     1       1.471   8.052  20.875  0.00  0.00    +0.000 A 
ATOM     22  C   UNL     1       1.537   8.611  19.585  0.00  0.00    +0.000 A 
ENDBRANCH  13  14
ENDBRANCH  12  13
ENDBRANCH   1  12
TORSDOF 8
ENDMDL
MODEL 4
REMARK VINA RESULT:      -6.1      2.413      6.173
REMARK  Name = 
REMARK  12 active torsions:
REMARK  status: ('A' for Active; 'I' for Inactive)
REMARK    1  A    between atoms: C_1  and  C_2
REMARK    2  A    between atoms: C_2  and  N_3
REMARK    3  A    between atoms: N_3  and  C_4
REMARK    4  A    between atoms: N_3  and  P_6
REMARK    5  A    between atoms: C_4  and  C_5
REMARK    6  A    between atoms: P_6  and  O_8
REMARK    7  A    between atoms: P_6  and  N_20
REMARK    8  A    between atoms: O_8  and  C_9
REMARK    9  A    between atoms: C_9  and  C_10
REMARK   10  A    between atoms: C_10  and  C_11
REMARK   11  A    between atoms: N_20  and  C_21
REMARK   12  A    between atoms: N_20  and  C_22
REMARK                            x       y       z     vdW  Elec       q    Type
REMARK                         _______ _______ _______ _____ _____    ______ ____
ROOT
ATOM      1  O   UNL     1       3.528   5.108  20.288  0.00  0.00    +0.000 OA
ENDROOT
BRANCH   1   2
ATOM      2  P   UNL     1       2.096   5.453  19.490  0.00  0.00    +0.000 P 
ATOM      3  O   UNL     1       1.023   5.731  20.558  0.00  0.00    +0.000 OA
BRANCH   2   4
ATOM      4  N   UNL     1       2.508   7.185  19.496  0.00  0.00    +0.000 NA
ATOM      5  C   UNL     1       2.535   7.850  18.186  0.00  0.00    +0.000 C 
ATOM      6  C   UNL     1       1.652   7.977  20.380  0.00  0.00    +0.000 C 
ENDBRANCH   2   4
BRANCH   2   7
ATOM      7  N   UNL     1       1.684   3.722  19.485  0.00  0.00    +0.000 NA
BRANCH   7   9
ATOM      8  C   UNL     1       1.981   2.505  21.663  0.00  0.00    +0.000 C 
ATOM      9  C   UNL     1       1.049   3.243  20.717  0.00  0.00    +0.000 C 
ENDBRANCH   7   9
BRANCH   7  10
ATOM     10  C   UNL     1       1.489   2.915  18.288  0.00  0.00    +0.000 C 
ATOM     11  C   UNL     1       2.611   1.953  17.926  0.00  0.00    +0.000 C 
ENDBRANCH   7  10
ENDBRANCH   2   7
ENDBRANCH   1   2
BRANCH   1  12
ATOM     12  C   UNL     1       4.535   4.358  19.603  0.00  0.00    +0.000 C 
BRANCH  12  13
ATOM     13  C   UNL     1       5.807   5.192  19.396  0.00  0.00    +0.000 C 
BRANCH  13  14
ATOM     14  C   UNL     1       6.519   4.810  18.138  0.00  0.00    +0.000 A 
ATOM     15  N   UNL     1       7.837   4.537  18.187  0.00  0.00    +0.000 NA
ATOM     16  O   UNL     1       8.219   4.286  16.879  0.00  0.00    +0.000 OA
ATOM     17  C   UNL     1       7.138   4.398  16.061  0.00  0.00    +0.000 A 
ATOM     18  C   UNL     1       7.148   4.229  14.674  0.00  0.00    +0.000 A 
ATOM     19  C   UNL     1       5.916   4.393  14.036  0.00  0.00    +0.000 A 
ATOM     20  C   UNL     1       4.751   4.694  14.753  0.00  0.00    +0.000 A 
ATOM     21  C   UNL     1       4.790   4.868  16.148  0.00  0.00    +0.000 A 
ATOM     22  C   UNL     1       6.020   4.712  16.812  0.00  0.00    +0.000 A 
ENDBRANCH  13  14
ENDBRANCH  12  13
ENDBRANCH   1  12
TORSDOF 8
ENDMDL
MODEL 5
REMARK VINA RESULT:      -6.1      3.305      4.914
REMARK  Name = 
REMARK  12 active torsions:
REMARK  status: ('A' for Active; 'I' for Inactive)
REMARK    1  A    between atoms: C_1  and  C_2
REMARK    2  A    between atoms: C_2  and  N_3
REMARK    3  A    between atoms: N_3  and  C_4
REMARK    4  A    between atoms: N_3  and  P_6
REMARK    5  A    between atoms: C_4  and  C_5
REMARK    6  A    between atoms: P_6  and  O_8
REMARK    7  A    between atoms: P_6  and  N_20
REMARK    8  A    between atoms: O_8  and  C_9
REMARK    9  A    between atoms: C_9  and  C_10
REMARK   10  A    between atoms: C_10  and  C_11
REMARK   11  A    between atoms: N_20  and  C_21
REMARK   12  A    between atoms: N_20  and  C_22
REMARK                            x       y       z     vdW  Elec       q    Type
REMARK                         _______ _______ _______ _____ _____    ______ ____
ROOT
ATOM      1  O   UNL     1       3.695   5.113  17.445  0.00  0.00    +0.000 OA
ENDROOT
BRANCH   1   2
ATOM      2  P   UNL     1       4.546   3.710  17.780  0.00  0.00    +0.000 P 
ATOM      3  O   UNL     1       5.430   3.984  19.010  0.00  0.00    +0.000 OA
BRANCH   2   4
ATOM      4  N   UNL     1       3.244   3.179  18.871  0.00  0.00    +0.000 NA
ATOM      5  C   UNL     1       2.208   2.322  18.277  0.00  0.00    +0.000 C 
ATOM      6  C   UNL     1       3.739   2.509  20.074  0.00  0.00    +0.000 C 
ENDBRANCH   2   4
BRANCH   2   7
ATOM      7  N   UNL     1       5.848   4.241  16.689  0.00  0.00    +0.000 NA
BRANCH   7   9
ATOM      8  C   UNL     1       6.182   3.973  14.213  0.00  0.00    +0.000 C 
ATOM      9  C   UNL     1       5.400   4.619  15.345  0.00  0.00    +0.000 C 
ENDBRANCH   7   9
BRANCH   7  10
ATOM     10  C   UNL     1       7.139   4.760  17.122  0.00  0.00    +0.000 C 
ATOM     11  C   UNL     1       7.306   6.272  17.101  0.00  0.00    +0.000 C 
ENDBRANCH   7  10
ENDBRANCH   2   7
ENDBRANCH   1   2
BRANCH   1  12
ATOM     12  C   UNL     1       3.848   6.237  18.315  0.00  0.00    +0.000 C 
BRANCH  12  13
ATOM     13  C   UNL     1       2.911   7.385  17.914  0.00  0.00    +0.000 C 
BRANCH  13  14
ATOM     14  C   UNL     1       2.135   7.900  19.084  0.00  0.00    +0.000 A 
ATOM     15  N   UNL     1       2.088   7.168  20.213  0.00  0.00    +0.000 NA
ATOM     16  O   UNL     1       1.255   7.861  21.077  0.00  0.00    +0.000 OA
ATOM     17  C   UNL     1       0.820   8.999  20.474  0.00  0.00    +0.000 A 
ATOM     18  C   UNL     1      -0.048   9.937  21.038  0.00  0.00    +0.000 A 
ATOM     19  C   UNL     1      -0.361  11.034  20.230  0.00  0.00    +0.000 A 
ATOM     20  C   UNL     1       0.179  11.179  18.946  0.00  0.00    +0.000 A 
ATOM     21  C   UNL     1       1.039  10.203  18.413  0.00  0.00    +0.000 A 
ATOM     22  C   UNL     1       1.365   9.087  19.205  0.00  0.00    +0.000 A 
ENDBRANCH  13  14
ENDBRANCH  12  13
ENDBRANCH   1  12
TORSDOF 8
ENDMDL
MODEL 6
REMARK VINA RESULT:      -6.0      4.050      5.557
REMARK  Name = 
REMARK  12 active torsions:
REMARK  status: ('A' for Active; 'I' for Inactive)
REMARK    1  A    between atoms: C_1  and  C_2
REMARK    2  A    between atoms: C_2  and  N_3
REMARK    3  A    between atoms: N_3  and  C_4
REMARK    4  A    between atoms: N_3  and  P_6
REMARK    5  A    between atoms: C_4  and  C_5
REMARK    6  A    between atoms: P_6  and  O_8
REMARK    7  A    between atoms: P_6  and  N_20
REMARK    8  A    between atoms: O_8  and  C_9
REMARK    9  A    between atoms: C_9  and  C_10
REMARK   10  A    between atoms: C_10  and  C_11
REMARK   11  A    between atoms: N_20  and  C_21
REMARK   12  A    between atoms: N_20  and  C_22
REMARK                            x       y       z     vdW  Elec       q    Type
REMARK                         _______ _______ _______ _____ _____    ______ ____
ROOT
ATOM      1  O   UNL     1       3.322   5.122  19.856  0.00  0.00    +0.000 OA
ENDROOT
BRANCH   1   2
ATOM      2  P   UNL     1       4.117   4.301  18.632  0.00  0.00    +0.000 P 
ATOM      3  O   UNL     1       5.182   3.404  19.287  0.00  0.00    +0.000 OA
BRANCH   2   4
ATOM      4  N   UNL     1       2.950   2.964  18.768  0.00  0.00    +0.000 NA
ATOM      5  C   UNL     1       3.471   1.618  18.495  0.00  0.00    +0.000 C 
ATOM      6  C   UNL     1       2.269   2.925  20.062  0.00  0.00    +0.000 C 
ENDBRANCH   2   4
BRANCH   2   7
ATOM      7  N   UNL     1       5.285   5.638  18.496  0.00  0.00    +0.000 NA
BRANCH   7   9
ATOM      8  C   UNL     1       7.733   6.138  18.766  0.00  0.00    +0.000 C 
ATOM      9  C   UNL     1       6.480   5.490  19.333  0.00  0.00    +0.000 C 
ENDBRANCH   7   9
BRANCH   7  10
ATOM     10  C   UNL     1       5.385   6.545  17.360  0.00  0.00    +0.000 C 
ATOM     11  C   UNL     1       5.161   5.938  15.984  0.00  0.00    +0.000 C 
ENDBRANCH   7  10
ENDBRANCH   2   7
ENDBRANCH   1   2
BRANCH   1  12
ATOM     12  C   UNL     1       2.768   6.411  19.576  0.00  0.00    +0.000 C 
BRANCH  12  13
ATOM     13  C   UNL     1       1.753   6.826  20.650  0.00  0.00    +0.000 C 
BRANCH  13  14
ATOM     14  C   UNL     1       1.284   8.233  20.451  0.00  0.00    +0.000 A 
ATOM     15  N   UNL     1       1.586   8.868  19.304  0.00  0.00    +0.000 NA
ATOM     16  O   UNL     1       1.081  10.153  19.440  0.00  0.00    +0.000 OA
ATOM     17  C   UNL     1       0.475  10.275  20.651  0.00  0.00    +0.000 A 
ATOM     18  C   UNL     1      -0.133  11.434  21.142  0.00  0.00    +0.000 A 
ATOM     19  C   UNL     1      -0.693  11.329  22.418  0.00  0.00    +0.000 A 
ATOM     20  C   UNL     1      -0.653  10.131  23.142  0.00  0.00    +0.000 A 
ATOM     21  C   UNL     1      -0.019   8.993  22.615  0.00  0.00    +0.000 A 
ATOM     22  C   UNL     1       0.556   9.074  21.333  0.00  0.00    +0.000 A 
ENDBRANCH  13  14
ENDBRANCH  12  13
ENDBRANCH   1  12
TORSDOF 8
ENDMDL
MODEL 7
REMARK VINA RESULT:      -6.0      3.312      5.115
REMARK  Name = 
REMARK  12 active torsions:
REMARK  status: ('A' for Active; 'I' for Inactive)
REMARK    1  A    between atoms: C_1  and  C_2
REMARK    2  A    between atoms: C_2  and  N_3
REMARK    3  A    between atoms: N_3  and  C_4
REMARK    4  A    between atoms: N_3  and  P_6
REMARK    5  A    between atoms: C_4  and  C_5
REMARK    6  A    between atoms: P_6  and  O_8
REMARK    7  A    between atoms: P_6  and  N_20
REMARK    8  A    between atoms: O_8  and  C_9
REMARK    9  A    between atoms: C_9  and  C_10
REMARK   10  A    between atoms: C_10  and  C_11
REMARK   11  A    between atoms: N_20  and  C_21
REMARK   12  A    between atoms: N_20  and  C_22
REMARK                            x       y       z     vdW  Elec       q    Type
REMARK                         _______ _______ _______ _____ _____    ______ ____
ROOT
ATOM      1  O   UNL     1       4.044   5.478  18.211  0.00  0.00    +0.000 OA
ENDROOT
BRANCH   1   2
ATOM      2  P   UNL     1       4.537   3.890  18.012  0.00  0.00    +0.000 P 
ATOM      3  O   UNL     1       5.403   3.515  19.229  0.00  0.00    +0.000 OA
BRANCH   2   4
ATOM      4  N   UNL     1       3.099   3.330  18.899  0.00  0.00    +0.000 NA
ATOM      5  C   UNL     1       2.271   2.322  18.223  0.00  0.00    +0.000 C 
ATOM      6  C   UNL     1       3.409   2.826  20.238  0.00  0.00    +0.000 C 
ENDBRANCH   2   4
BRANCH   2   7
ATOM      7  N   UNL     1       5.975   4.450  17.125  0.00  0.00    +0.000 NA
BRANCH   7   9
ATOM      8  C   UNL     1       6.268   4.450  14.630  0.00  0.00    +0.000 C 
ATOM      9  C   UNL     1       5.683   5.128  15.858  0.00  0.00    +0.000 C 
ENDBRANCH   7   9
BRANCH   7  10
ATOM     10  C   UNL     1       7.277   4.711  17.726  0.00  0.00    +0.000 C 
ATOM     11  C   UNL     1       7.561   6.150  18.131  0.00  0.00    +0.000 C 
ENDBRANCH   7  10
ENDBRANCH   2   7
ENDBRANCH   1   2
BRANCH   1  12
ATOM     12  C   UNL     1       2.656   5.747  18.428  0.00  0.00    +0.000 C 
BRANCH  12  13
ATOM     13  C   UNL     1       2.457   6.802  19.525  0.00  0.00    +0.000 C 
BRANCH  13  14
ATOM     14  C   UNL     1       2.021   8.115  18.956  0.00  0.00    +0.000 A 
ATOM     15  N   UNL     1       2.486   8.493  17.751  0.00  0.00    +0.000 NA
ATOM     16  O   UNL     1       1.967   9.760  17.528  0.00  0.00    +0.000 OA
ATOM     17  C   UNL     1       1.193  10.125  18.584  0.00  0.00    +0.000 A 
ATOM     18  C   UNL     1       0.521  11.343  18.716  0.00  0.00    +0.000 A 
ATOM     19  C   UNL     1      -0.216  11.503  19.892  0.00  0.00    +0.000 A 
ATOM     20  C   UNL     1      -0.282  10.494  20.862  0.00  0.00    +0.000 A 
ATOM     21  C   UNL     1       0.422   9.289  20.694  0.00  0.00    +0.000 A 
ATOM     22  C   UNL     1       1.175   9.106  19.519  0.00  0.00    +0.000 A 
ENDBRANCH  13  14
ENDBRANCH  12  13
ENDBRANCH   1  12
TORSDOF 8
ENDMDL
MODEL 8
REMARK VINA RESULT:      -6.0      3.354      5.015
REMARK  Name = 
REMARK  12 active torsions:
REMARK  status: ('A' for Active; 'I' for Inactive)
REMARK    1  A    between atoms: C_1  and  C_2
REMARK    2  A    between atoms: C_2  and  N_3
REMARK    3  A    between atoms: N_3  and  C_4
REMARK    4  A    between atoms: N_3  and  P_6
REMARK    5  A    between atoms: C_4  and  C_5
REMARK    6  A    between atoms: P_6  and  O_8
REMARK    7  A    between atoms: P_6  and  N_20
REMARK    8  A    between atoms: O_8  and  C_9
REMARK    9  A    between atoms: C_9  and  C_10
REMARK   10  A    between atoms: C_10  and  C_11
REMARK   11  A    between atoms: N_20  and  C_21
REMARK   12  A    between atoms: N_20  and  C_22
REMARK                            x       y       z     vdW  Elec       q    Type
REMARK                         _______ _______ _______ _____ _____    ______ ____
ROOT
ATOM      1  O   UNL     1       2.988   5.015  17.809  0.00  0.00    +0.000 OA
ENDROOT
BRANCH   1   2
ATOM      2  P   UNL     1       4.184   3.966  18.335  0.00  0.00    +0.000 P 
ATOM      3  O   UNL     1       4.271   2.812  17.321  0.00  0.00    +0.000 OA
BRANCH   2   4
ATOM      4  N   UNL     1       5.391   4.859  17.380  0.00  0.00    +0.000 NA
ATOM      5  C   UNL     1       6.547   5.383  18.121  0.00  0.00    +0.000 C 
ATOM      6  C   UNL     1       5.901   4.096  16.241  0.00  0.00    +0.000 C 
ENDBRANCH   2   4
BRANCH   2   7
ATOM      7  N   UNL     1       2.976   3.073  19.291  0.00  0.00    +0.000 NA
BRANCH   7   9
ATOM      8  C   UNL     1       0.628   2.407  18.692  0.00  0.00    +0.000 C 
ATOM      9  C   UNL     1       2.119   2.179  18.506  0.00  0.00    +0.000 C 
ENDBRANCH   7   9
BRANCH   7  10
ATOM     10  C   UNL     1       3.077   2.802  20.719  0.00  0.00    +0.000 C 
ATOM     11  C   UNL     1       2.217   3.660  21.635  0.00  0.00    +0.000 C 
ENDBRANCH   7  10
ENDBRANCH   2   7
ENDBRANCH   1   2
BRANCH   1  12
ATOM     12  C   UNL     1       2.524   6.034  18.698  0.00  0.00    +0.000 C 
BRANCH  12  13
ATOM     13  C   UNL     1       3.011   7.422  18.258  0.00  0.00    +0.000 C 
BRANCH  13  14
ATOM     14  C   UNL     1       1.998   8.482  18.555  0.00  0.00    +0.000 A 
ATOM     15  N   UNL     1       1.635   9.334  17.578  0.00  0.00    +0.000 NA
ATOM     16  O   UNL     1       0.751  10.226  18.165  0.00  0.00    +0.000 OA
ATOM     17  C   UNL     1       0.581   9.901  19.474  0.00  0.00    +0.000 A 
ATOM     18  C   UNL     1      -0.228  10.588  20.383  0.00  0.00    +0.000 A 
ATOM     19  C   UNL     1      -0.249  10.074  21.682  0.00  0.00    +0.000 A 
ATOM     20  C   UNL     1       0.485   8.934  22.034  0.00  0.00    +0.000 A 
ATOM     21  C   UNL     1       1.297   8.282  21.090  0.00  0.00    +0.000 A 
ATOM     22  C   UNL     1       1.338   8.783  19.775  0.00  0.00    +0.000 A 
ENDBRANCH  13  14
ENDBRANCH  12  13
ENDBRANCH   1  12
TORSDOF 8
ENDMDL
MODEL 9
REMARK VINA RESULT:      -6.0      3.107      4.779
REMARK  Name = 
REMARK  12 active torsions:
REMARK  status: ('A' for Active; 'I' for Inactive)
REMARK    1  A    between atoms: C_1  and  C_2
REMARK    2  A    between atoms: C_2  and  N_3
REMARK    3  A    between atoms: N_3  and  C_4
REMARK    4  A    between atoms: N_3  and  P_6
REMARK    5  A    between atoms: C_4  and  C_5
REMARK    6  A    between atoms: P_6  and  O_8
REMARK    7  A    between atoms: P_6  and  N_20
REMARK    8  A    between atoms: O_8  and  C_9
REMARK    9  A    between atoms: C_9  and  C_10
REMARK   10  A    between atoms: C_10  and  C_11
REMARK   11  A    between atoms: N_20  and  C_21
REMARK   12  A    between atoms: N_20  and  C_22
REMARK                            x       y       z     vdW  Elec       q    Type
REMARK                         _______ _______ _______ _____ _____    ______ ____
ROOT
ATOM      1  O   UNL     1       4.312   5.865  19.191  0.00  0.00    +0.000 OA
ENDROOT
BRANCH   1   2
ATOM      2  P   UNL     1       5.136   4.416  19.019  0.00  0.00    +0.000 P 
ATOM      3  O   UNL     1       4.937   3.936  17.570  0.00  0.00    +0.000 OA
BRANCH   2   4
ATOM      4  N   UNL     1       6.588   5.302  18.495  0.00  0.00    +0.000 NA
ATOM      5  C   UNL     1       7.548   5.655  19.550  0.00  0.00    +0.000 C 
ATOM      6  C   UNL     1       7.326   4.619  17.432  0.00  0.00    +0.000 C 
ENDBRANCH   2   4
BRANCH   2   7
ATOM      7  N   UNL     1       3.683   3.530  19.543  0.00  0.00    +0.000 NA
BRANCH   7   9
ATOM      8  C   UNL     1       2.209   3.292  21.564  0.00  0.00    +0.000 C 
ATOM      9  C   UNL     1       2.888   4.216  20.566  0.00  0.00    +0.000 C 
ENDBRANCH   7   9
BRANCH   7  10
ATOM     10  C   UNL     1       3.006   2.504  18.762  0.00  0.00    +0.000 C 
ATOM     11  C   UNL     1       1.753   2.934  18.015  0.00  0.00    +0.000 C 
ENDBRANCH   7  10
ENDBRANCH   2   7
ENDBRANCH   1   2
BRANCH   1  12
ATOM     12  C   UNL     1       3.975   6.610  18.018  0.00  0.00    +0.000 C 
BRANCH  12  13
ATOM     13  C   UNL     1       2.454   6.758  17.870  0.00  0.00    +0.000 C 
BRANCH  13  14
ATOM     14  C   UNL     1       1.985   8.108  18.314  0.00  0.00    +0.000 A 
ATOM     15  N   UNL     1       2.011   9.130  17.438  0.00  0.00    +0.000 NA
ATOM     16  O   UNL     1       1.588  10.244  18.147  0.00  0.00    +0.000 OA
ATOM     17  C   UNL     1       1.302   9.885  19.427  0.00  0.00    +0.000 A 
ATOM     18  C   UNL     1       0.863  10.748  20.434  0.00  0.00    +0.000 A 
ATOM     19  C   UNL     1       0.633  10.158  21.679  0.00  0.00    +0.000 A 
ATOM     20  C   UNL     1       0.820   8.785  21.888  0.00  0.00    +0.000 A 
ATOM     21  C   UNL     1       1.276   7.956  20.849  0.00  0.00    +0.000 A 
ATOM     22  C   UNL     1       1.519   8.528  19.587  0.00  0.00    +0.000 A 
ENDBRANCH  13  14
ENDBRANCH  12  13
ENDBRANCH   1  12
TORSDOF 8
ENDMDL
