MODEL 1
REMARK VINA RESULT:      -8.1      0.000      0.000
REMARK  Name = 
REMARK  10 active torsions:
REMARK  status: ('A' for Active; 'I' for Inactive)
REMARK    1  A    between atoms: C_2  and  C_3
REMARK    2  A    between atoms: C_2  and  C_19
REMARK    3  A    between atoms: C_4  and  C_5
REMARK    4  A    between atoms: C_8  and  O_9
REMARK    5  A    between atoms: O_9  and  C_10
REMARK    6  A    between atoms: C_10  and  C_11
REMARK    7  A    between atoms: C_22  and  O_23
REMARK    8  A    between atoms: O_23  and  C_24
REMARK    9  A    between atoms: C_24  and  C_25
REMARK   10  A    between atoms: C_32  and  O_33
REMARK                            x       y       z     vdW  Elec       q    Type
REMARK                         _______ _______ _______ _____ _____    ______ ____
ROOT
ATOM      1  O   UNL     1       1.459   9.880  22.677  0.00  0.00    +0.000 OA
ATOM      2  C   UNL     1       0.799   9.765  21.649  0.00  0.00    +0.000 C 
ENDROOT
BRANCH   2   3
ATOM      3  C   UNL     1      -0.246  10.762  21.308  0.00  0.00    +0.000 A 
ATOM      4  C   UNL     1      -0.356  11.129  19.961  0.00  0.00    +0.000 A 
ATOM      5  C   UNL     1      -1.315  12.060  19.559  0.00  0.00    +0.000 A 
ATOM      6  C   UNL     1      -2.185  12.620  20.498  0.00  0.00    +0.000 A 
ATOM      7  C   UNL     1      -2.054  12.287  21.845  0.00  0.00    +0.000 A 
ATOM      8  C   UNL     1      -1.094  11.358  22.251  0.00  0.00    +0.000 A 
BRANCH   8   9
ATOM      9  O   UNL     1      -0.988  11.061  23.578  0.00  0.00    +0.000 OA
ATOM     10  H   UNL     1      -0.153  10.588  23.747  0.00  0.00    +0.000 HD
ENDBRANCH   8   9
BRANCH   6  11
ATOM     11  O   UNL     1      -3.190  13.499  20.207  0.00  0.00    +0.000 OA
BRANCH  11  12
ATOM     12  C   UNL     1      -4.406  13.288  20.923  0.00  0.00    +0.000 C 
BRANCH  12  13
ATOM     13  C   UNL     1      -5.309  12.399  20.109  0.00  0.00    +0.000 A 
ATOM     14  C   UNL     1      -6.525  11.944  20.636  0.00  0.00    +0.000 A 
ATOM     15  C   UNL     1      -7.353  11.116  19.880  0.00  0.00    +0.000 A 
ATOM     16  C   UNL     1      -6.975  10.734  18.592  0.00  0.00    +0.000 A 
ATOM     17  C   UNL     1      -5.766  11.186  18.059  0.00  0.00    +0.000 A 
ATOM     18  C   UNL     1      -4.937  12.013  18.813  0.00  0.00    +0.000 A 
ENDBRANCH  12  13
ENDBRANCH  11  12
ENDBRANCH   6  11
ENDBRANCH   2   3
BRANCH   2  19
ATOM     19  C   UNL     1       1.065   8.691  20.666  0.00  0.00    +0.000 C 
ATOM     20  C   UNL     1       1.594   7.530  21.068  0.00  0.00    +0.000 C 
BRANCH  20  21
ATOM     21  C   UNL     1       1.851   6.481  20.091  0.00  0.00    +0.000 A 
ATOM     22  C   UNL     1       2.295   6.840  18.819  0.00  0.00    +0.000 A 
ATOM     23  C   UNL     1       2.538   5.860  17.860  0.00  0.00    +0.000 A 
ATOM     24  C   UNL     1       2.363   4.511  18.174  0.00  0.00    +0.000 A 
ATOM     25  C   UNL     1       1.864   4.152  19.427  0.00  0.00    +0.000 A 
ATOM     26  C   UNL     1       1.613   5.134  20.390  0.00  0.00    +0.000 A 
BRANCH  24  27
ATOM     27  O   UNL     1       2.661   3.476  17.328  0.00  0.00    +0.000 OA
BRANCH  27  28
ATOM     28  C   UNL     1       3.948   2.891  17.547  0.00  0.00    +0.000 C 
BRANCH  28  29
ATOM     29  C   UNL     1       5.026   3.886  17.209  0.00  0.00    +0.000 A 
ATOM     30  C   UNL     1       5.888   4.367  18.204  0.00  0.00    +0.000 A 
ATOM     31  C   UNL     1       6.896   5.274  17.880  0.00  0.00    +0.000 A 
ATOM     32  C   UNL     1       7.052   5.707  16.563  0.00  0.00    +0.000 A 
ATOM     33  C   UNL     1       6.200   5.233  15.567  0.00  0.00    +0.000 A 
ATOM     34  C   UNL     1       5.192   4.328  15.887  0.00  0.00    +0.000 A 
ENDBRANCH  28  29
ENDBRANCH  27  28
ENDBRANCH  24  27
ENDBRANCH  20  21
ENDBRANCH   2  19
TORSDOF 10
ENDMDL
MODEL 2
REMARK VINA RESULT:      -8.0      1.957     11.109
REMARK  Name = 
REMARK  10 active torsions:
REMARK  status: ('A' for Active; 'I' for Inactive)
REMARK    1  A    between atoms: C_2  and  C_3
REMARK    2  A    between atoms: C_2  and  C_19
REMARK    3  A    between atoms: C_4  and  C_5
REMARK    4  A    between atoms: C_8  and  O_9
REMARK    5  A    between atoms: O_9  and  C_10
REMARK    6  A    between atoms: C_10  and  C_11
REMARK    7  A    between atoms: C_22  and  O_23
REMARK    8  A    between atoms: O_23  and  C_24
REMARK    9  A    between atoms: C_24  and  C_25
REMARK   10  A    between atoms: C_32  and  O_33
REMARK                            x       y       z     vdW  Elec       q    Type
REMARK                         _______ _______ _______ _____ _____    ______ ____
ROOT
ATOM      1  O   UNL     1       2.100   3.826  21.621  0.00  0.00    +0.000 OA
ATOM      2  C   UNL     1       2.222   4.707  20.776  0.00  0.00    +0.000 C 
ENDROOT
BRANCH   2   3
ATOM      3  C   UNL     1       3.096   4.501  19.593  0.00  0.00    +0.000 A 
ATOM      4  C   UNL     1       4.392   5.026  19.663  0.00  0.00    +0.000 A 
ATOM      5  C   UNL     1       5.274   4.873  18.593  0.00  0.00    +0.000 A 
ATOM      6  C   UNL     1       4.874   4.180  17.448  0.00  0.00    +0.000 A 
ATOM      7  C   UNL     1       3.573   3.690  17.358  0.00  0.00    +0.000 A 
ATOM      8  C   UNL     1       2.687   3.842  18.425  0.00  0.00    +0.000 A 
BRANCH   8   9
ATOM      9  O   UNL     1       1.417   3.358  18.301  0.00  0.00    +0.000 OA
ATOM     10  H   UNL     1       0.790   4.094  18.186  0.00  0.00    +0.000 HD
ENDBRANCH   8   9
BRANCH   6  11
ATOM     11  O   UNL     1       5.671   3.928  16.367  0.00  0.00    +0.000 OA
BRANCH  11  12
ATOM     12  C   UNL     1       6.045   5.079  15.609  0.00  0.00    +0.000 C 
BRANCH  12  13
ATOM     13  C   UNL     1       6.386   4.654  14.206  0.00  0.00    +0.000 A 
ATOM     14  C   UNL     1       7.493   5.201  13.544  0.00  0.00    +0.000 A 
ATOM     15  C   UNL     1       7.799   4.809  12.242  0.00  0.00    +0.000 A 
ATOM     16  C   UNL     1       7.002   3.869  11.588  0.00  0.00    +0.000 A 
ATOM     17  C   UNL     1       5.899   3.316  12.242  0.00  0.00    +0.000 A 
ATOM     18  C   UNL     1       5.592   3.707  13.543  0.00  0.00    +0.000 A 
ENDBRANCH  12  13
ENDBRANCH  11  12
ENDBRANCH   6  11
ENDBRANCH   2   3
BRANCH   2  19
ATOM     19  C   UNL     1       1.451   5.969  20.843  0.00  0.00    +0.000 C 
ATOM     20  C   UNL     1       1.990   7.108  20.395  0.00  0.00    +0.000 C 
BRANCH  20  21
ATOM     21  C   UNL     1       1.221   8.343  20.466  0.00  0.00    +0.000 A 
ATOM     22  C   UNL     1       1.266   9.226  19.388  0.00  0.00    +0.000 A 
ATOM     23  C   UNL     1       0.551  10.421  19.432  0.00  0.00    +0.000 A 
ATOM     24  C   UNL     1      -0.236  10.728  20.544  0.00  0.00    +0.000 A 
ATOM     25  C   UNL     1      -0.237   9.874  21.647  0.00  0.00    +0.000 A 
ATOM     26  C   UNL     1       0.484   8.677  21.609  0.00  0.00    +0.000 A 
BRANCH  24  27
ATOM     27  O   UNL     1      -1.041  11.832  20.639  0.00  0.00    +0.000 OA
BRANCH  27  28
ATOM     28  C   UNL     1      -1.458  12.363  19.378  0.00  0.00    +0.000 C 
BRANCH  28  29
ATOM     29  C   UNL     1      -2.937  12.143  19.195  0.00  0.00    +0.000 A 
ATOM     30  C   UNL     1      -3.420  11.433  18.088  0.00  0.00    +0.000 A 
ATOM     31  C   UNL     1      -4.788  11.217  17.935  0.00  0.00    +0.000 A 
ATOM     32  C   UNL     1      -5.685  11.708  18.885  0.00  0.00    +0.000 A 
ATOM     33  C   UNL     1      -5.214  12.414  19.990  0.00  0.00    +0.000 A 
ATOM     34  C   UNL     1      -3.847  12.632  20.145  0.00  0.00    +0.000 A 
ENDBRANCH  28  29
ENDBRANCH  27  28
ENDBRANCH  24  27
ENDBRANCH  20  21
ENDBRANCH   2  19
TORSDOF 10
ENDMDL
MODEL 3
REMARK VINA RESULT:      -7.9      2.335     11.483
REMARK  Name = 
REMARK  10 active torsions:
REMARK  status: ('A' for Active; 'I' for Inactive)
REMARK    1  A    between atoms: C_2  and  C_3
REMARK    2  A    between atoms: C_2  and  C_19
REMARK    3  A    between atoms: C_4  and  C_5
REMARK    4  A    between atoms: C_8  and  O_9
REMARK    5  A    between atoms: O_9  and  C_10
REMARK    6  A    between atoms: C_10  and  C_11
REMARK    7  A    between atoms: C_22  and  O_23
REMARK    8  A    between atoms: O_23  and  C_24
REMARK    9  A    between atoms: C_24  and  C_25
REMARK   10  A    between atoms: C_32  and  O_33
REMARK                            x       y       z     vdW  Elec       q    Type
REMARK                         _______ _______ _______ _____ _____    ______ ____
ROOT
ATOM      1  O   UNL     1       1.436   3.879  21.252  0.00  0.00    +0.000 OA
ATOM      2  C   UNL     1       1.748   4.785  20.486  0.00  0.00    +0.000 C 
ENDROOT
BRANCH   2   3
ATOM      3  C   UNL     1       2.751   4.558  19.416  0.00  0.00    +0.000 A 
ATOM      4  C   UNL     1       4.021   5.115  19.609  0.00  0.00    +0.000 A 
ATOM      5  C   UNL     1       5.019   4.945  18.649  0.00  0.00    +0.000 A 
ATOM      6  C   UNL     1       4.763   4.201  17.494  0.00  0.00    +0.000 A 
ATOM      7  C   UNL     1       3.489   3.678  17.280  0.00  0.00    +0.000 A 
ATOM      8  C   UNL     1       2.487   3.848  18.237  0.00  0.00    +0.000 A 
BRANCH   8   9
ATOM      9  O   UNL     1       1.249   3.329  17.991  0.00  0.00    +0.000 OA
ATOM     10  H   UNL     1       1.092   3.282  17.031  0.00  0.00    +0.000 HD
ENDBRANCH   8   9
BRANCH   6  11
ATOM     11  O   UNL     1       5.680   3.930  16.519  0.00  0.00    +0.000 OA
BRANCH  11  12
ATOM     12  C   UNL     1       6.204   5.074  15.845  0.00  0.00    +0.000 C 
BRANCH  12  13
ATOM     13  C   UNL     1       6.493   4.712  14.412  0.00  0.00    +0.000 A 
ATOM     14  C   UNL     1       7.543   5.328  13.719  0.00  0.00    +0.000 A 
ATOM     15  C   UNL     1       7.801   4.994  12.390  0.00  0.00    +0.000 A 
ATOM     16  C   UNL     1       7.013   4.042  11.742  0.00  0.00    +0.000 A 
ATOM     17  C   UNL     1       5.968   3.420  12.427  0.00  0.00    +0.000 A 
ATOM     18  C   UNL     1       5.708   3.754  13.754  0.00  0.00    +0.000 A 
ENDBRANCH  12  13
ENDBRANCH  11  12
ENDBRANCH   6  11
ENDBRANCH   2   3
BRANCH   2  19
ATOM     19  C   UNL     1       1.087   6.109  20.532  0.00  0.00    +0.000 C 
ATOM     20  C   UNL     1       1.773   7.186  20.933  0.00  0.00    +0.000 C 
BRANCH  20  21
ATOM     21  C   UNL     1       1.112   8.484  20.973  0.00  0.00    +0.000 A 
ATOM     22  C   UNL     1       0.494   8.887  22.156  0.00  0.00    +0.000 A 
ATOM     23  C   UNL     1      -0.156  10.117  22.222  0.00  0.00    +0.000 A 
ATOM     24  C   UNL     1      -0.169  10.965  21.113  0.00  0.00    +0.000 A 
ATOM     25  C   UNL     1       0.398  10.539  19.911  0.00  0.00    +0.000 A 
ATOM     26  C   UNL     1       1.046   9.302  19.839  0.00  0.00    +0.000 A 
BRANCH  24  27
ATOM     27  O   UNL     1      -0.704  12.226  21.111  0.00  0.00    +0.000 OA
BRANCH  27  28
ATOM     28  C   UNL     1      -2.091  12.274  20.765  0.00  0.00    +0.000 C 
BRANCH  28  29
ATOM     29  C   UNL     1      -2.876  12.904  21.884  0.00  0.00    +0.000 A 
ATOM     30  C   UNL     1      -3.464  14.165  21.720  0.00  0.00    +0.000 A 
ATOM     31  C   UNL     1      -4.206  14.734  22.754  0.00  0.00    +0.000 A 
ATOM     32  C   UNL     1      -4.365  14.050  23.960  0.00  0.00    +0.000 A 
ATOM     33  C   UNL     1      -3.785  12.794  24.132  0.00  0.00    +0.000 A 
ATOM     34  C   UNL     1      -3.043  12.224  23.101  0.00  0.00    +0.000 A 
ENDBRANCH  28  29
ENDBRANCH  27  28
ENDBRANCH  24  27
ENDBRANCH  20  21
ENDBRANCH   2  19
TORSDOF 10
ENDMDL
MODEL 4
REMARK VINA RESULT:      -7.9      1.664     10.655
REMARK  Name = 
REMARK  10 active torsions:
REMARK  status: ('A' for Active; 'I' for Inactive)
REMARK    1  A    between atoms: C_2  and  C_3
REMARK    2  A    between atoms: C_2  and  C_19
REMARK    3  A    between atoms: C_4  and  C_5
REMARK    4  A    between atoms: C_8  and  O_9
REMARK    5  A    between atoms: O_9  and  C_10
REMARK    6  A    between atoms: C_10  and  C_11
REMARK    7  A    between atoms: C_22  and  O_23
REMARK    8  A    between atoms: O_23  and  C_24
REMARK    9  A    between atoms: C_24  and  C_25
REMARK   10  A    between atoms: C_32  and  O_33
REMARK                            x       y       z     vdW  Elec       q    Type
REMARK                         _______ _______ _______ _____ _____    ______ ____
ROOT
ATOM      1  O   UNL     1       1.419   3.492  21.441  0.00  0.00    +0.000 OA
ATOM      2  C   UNL     1       1.750   4.347  20.625  0.00  0.00    +0.000 C 
ENDROOT
BRANCH   2   3
ATOM      3  C   UNL     1       2.671   4.011  19.511  0.00  0.00    +0.000 A 
ATOM      4  C   UNL     1       2.449   4.656  18.289  0.00  0.00    +0.000 A 
ATOM      5  C   UNL     1       3.273   4.395  17.193  0.00  0.00    +0.000 A 
ATOM      6  C   UNL     1       4.337   3.498  17.313  0.00  0.00    +0.000 A 
ATOM      7  C   UNL     1       4.538   2.824  18.516  0.00  0.00    +0.000 A 
ATOM      8  C   UNL     1       3.715   3.081  19.614  0.00  0.00    +0.000 A 
BRANCH   8   9
ATOM      9  O   UNL     1       3.935   2.398  20.775  0.00  0.00    +0.000 OA
ATOM     10  H   UNL     1       3.473   1.541  20.749  0.00  0.00    +0.000 HD
ENDBRANCH   8   9
BRANCH   6  11
ATOM     11  O   UNL     1       5.232   3.209  16.323  0.00  0.00    +0.000 OA
BRANCH  11  12
ATOM     12  C   UNL     1       5.775   4.342  15.646  0.00  0.00    +0.000 C 
BRANCH  12  13
ATOM     13  C   UNL     1       6.512   5.202  16.638  0.00  0.00    +0.000 A 
ATOM     14  C   UNL     1       6.382   6.597  16.608  0.00  0.00    +0.000 A 
ATOM     15  C   UNL     1       7.073   7.387  17.525  0.00  0.00    +0.000 A 
ATOM     16  C   UNL     1       7.901   6.793  18.479  0.00  0.00    +0.000 A 
ATOM     17  C   UNL     1       8.033   5.404  18.517  0.00  0.00    +0.000 A 
ATOM     18  C   UNL     1       7.344   4.612  17.601  0.00  0.00    +0.000 A 
ENDBRANCH  12  13
ENDBRANCH  11  12
ENDBRANCH   6  11
ENDBRANCH   2   3
BRANCH   2  19
ATOM     19  C   UNL     1       1.188   5.716  20.657  0.00  0.00    +0.000 C 
ATOM     20  C   UNL     1       1.984   6.771  20.451  0.00  0.00    +0.000 C 
BRANCH  20  21
ATOM     21  C   UNL     1       1.419   8.114  20.484  0.00  0.00    +0.000 A 
ATOM     22  C   UNL     1       0.726   8.525  21.622  0.00  0.00    +0.000 A 
ATOM     23  C   UNL     1       0.164   9.798  21.678  0.00  0.00    +0.000 A 
ATOM     24  C   UNL     1       0.316  10.680  20.606  0.00  0.00    +0.000 A 
ATOM     25  C   UNL     1       0.959  10.252  19.444  0.00  0.00    +0.000 A 
ATOM     26  C   UNL     1       1.518   8.972  19.382  0.00  0.00    +0.000 A 
BRANCH  24  27
ATOM     27  O   UNL     1      -0.123  11.978  20.606  0.00  0.00    +0.000 OA
BRANCH  27  28
ATOM     28  C   UNL     1      -0.558  12.450  19.328  0.00  0.00    +0.000 C 
BRANCH  28  29
ATOM     29  C   UNL     1      -2.045  12.256  19.190  0.00  0.00    +0.000 A 
ATOM     30  C   UNL     1      -2.923  12.781  20.147  0.00  0.00    +0.000 A 
ATOM     31  C   UNL     1      -4.300  12.614  20.002  0.00  0.00    +0.000 A 
ATOM     32  C   UNL     1      -4.809  11.922  18.903  0.00  0.00    +0.000 A 
ATOM     33  C   UNL     1      -3.943  11.398  17.945  0.00  0.00    +0.000 A 
ATOM     34  C   UNL     1      -2.568  11.562  18.087  0.00  0.00    +0.000 A 
ENDBRANCH  28  29
ENDBRANCH  27  28
ENDBRANCH  24  27
ENDBRANCH  20  21
ENDBRANCH   2  19
TORSDOF 10
ENDMDL
MODEL 5
REMARK VINA RESULT:      -7.8      6.331      8.567
REMARK  Name = 
REMARK  10 active torsions:
REMARK  status: ('A' for Active; 'I' for Inactive)
REMARK    1  A    between atoms: C_2  and  C_3
REMARK    2  A    between atoms: C_2  and  C_19
REMARK    3  A    between atoms: C_4  and  C_5
REMARK    4  A    between atoms: C_8  and  O_9
REMARK    5  A    between atoms: O_9  and  C_10
REMARK    6  A    between atoms: C_10  and  C_11
REMARK    7  A    between atoms: C_22  and  O_23
REMARK    8  A    between atoms: O_23  and  C_24
REMARK    9  A    between atoms: C_24  and  C_25
REMARK   10  A    between atoms: C_32  and  O_33
REMARK                            x       y       z     vdW  Elec       q    Type
REMARK                         _______ _______ _______ _____ _____    ______ ____
ROOT
ATOM      1  O   UNL     1      10.896  10.957  19.031  0.00  0.00    +0.000 OA
ATOM      2  C   UNL     1       9.671  10.979  18.969  0.00  0.00    +0.000 C 
ENDROOT
BRANCH   2   3
ATOM      3  C   UNL     1       8.950  12.259  18.752  0.00  0.00    +0.000 A 
ATOM      4  C   UNL     1       8.234  12.388  17.556  0.00  0.00    +0.000 A 
ATOM      5  C   UNL     1       7.528  13.560  17.279  0.00  0.00    +0.000 A 
ATOM      6  C   UNL     1       7.520  14.609  18.202  0.00  0.00    +0.000 A 
ATOM      7  C   UNL     1       8.264  14.500  19.375  0.00  0.00    +0.000 A 
ATOM      8  C   UNL     1       8.972  13.331  19.655  0.00  0.00    +0.000 A 
BRANCH   8   9
ATOM      9  O   UNL     1       9.696  13.261  20.810  0.00  0.00    +0.000 OA
ATOM     10  H   UNL     1       9.669  12.355  21.165  0.00  0.00    +0.000 HD
ENDBRANCH   8   9
BRANCH   6  11
ATOM     11  O   UNL     1       6.824  15.775  18.054  0.00  0.00    +0.000 OA
BRANCH  11  12
ATOM     12  C   UNL     1       6.591  16.498  19.262  0.00  0.00    +0.000 C 
BRANCH  12  13
ATOM     13  C   UNL     1       5.118  16.783  19.389  0.00  0.00    +0.000 A 
ATOM     14  C   UNL     1       4.606  17.393  20.542  0.00  0.00    +0.000 A 
ATOM     15  C   UNL     1       3.240  17.648  20.656  0.00  0.00    +0.000 A 
ATOM     16  C   UNL     1       2.373  17.296  19.620  0.00  0.00    +0.000 A 
ATOM     17  C   UNL     1       2.876  16.692  18.467  0.00  0.00    +0.000 A 
ATOM     18  C   UNL     1       4.240  16.436  18.351  0.00  0.00    +0.000 A 
ENDBRANCH  12  13
ENDBRANCH  11  12
ENDBRANCH   6  11
ENDBRANCH   2   3
BRANCH   2  19
ATOM     19  C   UNL     1       8.863   9.741  19.017  0.00  0.00    +0.000 C 
ATOM     20  C   UNL     1       8.564   9.092  17.887  0.00  0.00    +0.000 C 
BRANCH  20  21
ATOM     21  C   UNL     1       7.767   7.873  17.948  0.00  0.00    +0.000 A 
ATOM     22  C   UNL     1       8.188   6.835  18.778  0.00  0.00    +0.000 A 
ATOM     23  C   UNL     1       7.454   5.654  18.848  0.00  0.00    +0.000 A 
ATOM     24  C   UNL     1       6.279   5.512  18.108  0.00  0.00    +0.000 A 
ATOM     25  C   UNL     1       5.887   6.525  17.232  0.00  0.00    +0.000 A 
ATOM     26  C   UNL     1       6.625   7.710  17.155  0.00  0.00    +0.000 A 
BRANCH  24  27
ATOM     27  O   UNL     1       5.447   4.426  18.180  0.00  0.00    +0.000 OA
BRANCH  27  28
ATOM     28  C   UNL     1       4.165   4.628  17.579  0.00  0.00    +0.000 C 
BRANCH  28  29
ATOM     29  C   UNL     1       3.081   4.398  18.598  0.00  0.00    +0.000 A 
ATOM     30  C   UNL     1       3.039   5.154  19.777  0.00  0.00    +0.000 A 
ATOM     31  C   UNL     1       2.021   4.948  20.707  0.00  0.00    +0.000 A 
ATOM     32  C   UNL     1       1.039   3.986  20.468  0.00  0.00    +0.000 A 
ATOM     33  C   UNL     1       1.071   3.230  19.298  0.00  0.00    +0.000 A 
ATOM     34  C   UNL     1       2.087   3.433  18.368  0.00  0.00    +0.000 A 
ENDBRANCH  28  29
ENDBRANCH  27  28
ENDBRANCH  24  27
ENDBRANCH  20  21
ENDBRANCH   2  19
TORSDOF 10
ENDMDL
MODEL 6
REMARK VINA RESULT:      -7.8      2.346     11.317
REMARK  Name = 
REMARK  10 active torsions:
REMARK  status: ('A' for Active; 'I' for Inactive)
REMARK    1  A    between atoms: C_2  and  C_3
REMARK    2  A    between atoms: C_2  and  C_19
REMARK    3  A    between atoms: C_4  and  C_5
REMARK    4  A    between atoms: C_8  and  O_9
REMARK    5  A    between atoms: O_9  and  C_10
REMARK    6  A    between atoms: C_10  and  C_11
REMARK    7  A    between atoms: C_22  and  O_23
REMARK    8  A    between atoms: O_23  and  C_24
REMARK    9  A    between atoms: C_24  and  C_25
REMARK   10  A    between atoms: C_32  and  O_33
REMARK                            x       y       z     vdW  Elec       q    Type
REMARK                         _______ _______ _______ _____ _____    ______ ____
ROOT
ATOM      1  O   UNL     1       3.090   3.476  20.541  0.00  0.00    +0.000 OA
ATOM      2  C   UNL     1       3.243   4.415  19.765  0.00  0.00    +0.000 C 
ENDROOT
BRANCH   2   3
ATOM      3  C   UNL     1       4.189   4.304  18.625  0.00  0.00    +0.000 A 
ATOM      4  C   UNL     1       5.499   4.746  18.844  0.00  0.00    +0.000 A 
ATOM      5  C   UNL     1       6.448   4.674  17.824  0.00  0.00    +0.000 A 
ATOM      6  C   UNL     1       6.099   4.146  16.578  0.00  0.00    +0.000 A 
ATOM      7  C   UNL     1       4.786   3.742  16.343  0.00  0.00    +0.000 A 
ATOM      8  C   UNL     1       3.834   3.813  17.362  0.00  0.00    +0.000 A 
BRANCH   8   9
ATOM      9  O   UNL     1       2.556   3.417  17.096  0.00  0.00    +0.000 OA
ATOM     10  H   UNL     1       2.170   2.988  17.881  0.00  0.00    +0.000 HD
ENDBRANCH   8   9
BRANCH   6  11
ATOM     11  O   UNL     1       6.959   3.983  15.529  0.00  0.00    +0.000 OA
BRANCH  11  12
ATOM     12  C   UNL     1       6.713   4.829  14.406  0.00  0.00    +0.000 C 
BRANCH  12  13
ATOM     13  C   UNL     1       6.302   3.982  13.232  0.00  0.00    +0.000 A 
ATOM     14  C   UNL     1       4.950   3.840  12.892  0.00  0.00    +0.000 A 
ATOM     15  C   UNL     1       4.576   3.049  11.807  0.00  0.00    +0.000 A 
ATOM     16  C   UNL     1       5.547   2.391  11.053  0.00  0.00    +0.000 A 
ATOM     17  C   UNL     1       6.897   2.529  11.382  0.00  0.00    +0.000 A 
ATOM     18  C   UNL     1       7.272   3.319  12.466  0.00  0.00    +0.000 A 
ENDBRANCH  12  13
ENDBRANCH  11  12
ENDBRANCH   6  11
ENDBRANCH   2   3
BRANCH   2  19
ATOM     19  C   UNL     1       2.443   5.655  19.871  0.00  0.00    +0.000 C 
ATOM     20  C   UNL     1       2.770   6.727  19.140  0.00  0.00    +0.000 C 
BRANCH  20  21
ATOM     21  C   UNL     1       1.975   7.943  19.252  0.00  0.00    +0.000 A 
ATOM     22  C   UNL     1       1.428   8.277  20.491  0.00  0.00    +0.000 A 
ATOM     23  C   UNL     1       0.653   9.426  20.626  0.00  0.00    +0.000 A 
ATOM     24  C   UNL     1       0.442  10.264  19.529  0.00  0.00    +0.000 A 
ATOM     25  C   UNL     1       0.939   9.902  18.276  0.00  0.00    +0.000 A 
ATOM     26  C   UNL     1       1.712   8.745  18.136  0.00  0.00    +0.000 A 
BRANCH  24  27
ATOM     27  O   UNL     1      -0.229  11.457  19.587  0.00  0.00    +0.000 OA
BRANCH  27  28
ATOM     28  C   UNL     1      -1.072  11.710  18.460  0.00  0.00    +0.000 C 
BRANCH  28  29
ATOM     29  C   UNL     1      -2.484  11.955  18.922  0.00  0.00    +0.000 A 
ATOM     30  C   UNL     1      -2.733  12.627  20.126  0.00  0.00    +0.000 A 
ATOM     31  C   UNL     1      -4.043  12.867  20.538  0.00  0.00    +0.000 A 
ATOM     32  C   UNL     1      -5.114  12.438  19.752  0.00  0.00    +0.000 A 
ATOM     33  C   UNL     1      -4.876  11.770  18.552  0.00  0.00    +0.000 A 
ATOM     34  C   UNL     1      -3.568  11.528  18.139  0.00  0.00    +0.000 A 
ENDBRANCH  28  29
ENDBRANCH  27  28
ENDBRANCH  24  27
ENDBRANCH  20  21
ENDBRANCH   2  19
TORSDOF 10
ENDMDL
MODEL 7
REMARK VINA RESULT:      -7.8      2.467     11.649
REMARK  Name = 
REMARK  10 active torsions:
REMARK  status: ('A' for Active; 'I' for Inactive)
REMARK    1  A    between atoms: C_2  and  C_3
REMARK    2  A    between atoms: C_2  and  C_19
REMARK    3  A    between atoms: C_4  and  C_5
REMARK    4  A    between atoms: C_8  and  O_9
REMARK    5  A    between atoms: O_9  and  C_10
REMARK    6  A    between atoms: C_10  and  C_11
REMARK    7  A    between atoms: C_22  and  O_23
REMARK    8  A    between atoms: O_23  and  C_24
REMARK    9  A    between atoms: C_24  and  C_25
REMARK   10  A    between atoms: C_32  and  O_33
REMARK                            x       y       z     vdW  Elec       q    Type
REMARK                         _______ _______ _______ _____ _____    ______ ____
ROOT
ATOM      1  O   UNL     1       2.234   4.123  18.408  0.00  0.00    +0.000 OA
ATOM      2  C   UNL     1       2.924   5.097  18.123  0.00  0.00    +0.000 C 
ENDROOT
BRANCH   2   3
ATOM      3  C   UNL     1       4.089   4.956  17.214  0.00  0.00    +0.000 A 
ATOM      4  C   UNL     1       4.541   6.118  16.579  0.00  0.00    +0.000 A 
ATOM      5  C   UNL     1       5.632   6.070  15.710  0.00  0.00    +0.000 A 
ATOM      6  C   UNL     1       6.292   4.860  15.479  0.00  0.00    +0.000 A 
ATOM      7  C   UNL     1       5.821   3.693  16.079  0.00  0.00    +0.000 A 
ATOM      8  C   UNL     1       4.729   3.738  16.947  0.00  0.00    +0.000 A 
BRANCH   8   9
ATOM      9  O   UNL     1       4.289   2.575  17.511  0.00  0.00    +0.000 OA
ATOM     10  H   UNL     1       3.795   2.053  16.854  0.00  0.00    +0.000 HD
ENDBRANCH   8   9
BRANCH   6  11
ATOM     11  O   UNL     1       7.397   4.709  14.691  0.00  0.00    +0.000 OA
BRANCH  11  12
ATOM     12  C   UNL     1       7.227   5.098  13.328  0.00  0.00    +0.000 C 
BRANCH  12  13
ATOM     13  C   UNL     1       6.701   3.926  12.543  0.00  0.00    +0.000 A 
ATOM     14  C   UNL     1       5.322   3.709  12.422  0.00  0.00    +0.000 A 
ATOM     15  C   UNL     1       4.842   2.618  11.700  0.00  0.00    +0.000 A 
ATOM     16  C   UNL     1       5.733   1.733  11.092  0.00  0.00    +0.000 A 
ATOM     17  C   UNL     1       7.109   1.944  11.205  0.00  0.00    +0.000 A 
ATOM     18  C   UNL     1       7.590   3.033  11.927  0.00  0.00    +0.000 A 
ENDBRANCH  12  13
ENDBRANCH  11  12
ENDBRANCH   6  11
ENDBRANCH   2   3
BRANCH   2  19
ATOM     19  C   UNL     1       2.587   6.459  18.594  0.00  0.00    +0.000 C 
ATOM     20  C   UNL     1       1.907   6.624  19.734  0.00  0.00    +0.000 C 
BRANCH  20  21
ATOM     21  C   UNL     1       1.581   7.970  20.187  0.00  0.00    +0.000 A 
ATOM     22  C   UNL     1       1.455   8.986  19.241  0.00  0.00    +0.000 A 
ATOM     23  C   UNL     1       1.156  10.285  19.644  0.00  0.00    +0.000 A 
ATOM     24  C   UNL     1       0.954  10.572  20.996  0.00  0.00    +0.000 A 
ATOM     25  C   UNL     1       1.136   9.570  21.950  0.00  0.00    +0.000 A 
ATOM     26  C   UNL     1       1.443   8.266  21.548  0.00  0.00    +0.000 A 
BRANCH  24  27
ATOM     27  O   UNL     1       0.570  11.796  21.476  0.00  0.00    +0.000 OA
BRANCH  27  28
ATOM     28  C   UNL     1      -0.320  12.510  20.615  0.00  0.00    +0.000 C 
BRANCH  28  29
ATOM     29  C   UNL     1      -1.687  12.585  21.242  0.00  0.00    +0.000 A 
ATOM     30  C   UNL     1      -1.837  12.527  22.635  0.00  0.00    +0.000 A 
ATOM     31  C   UNL     1      -3.104  12.616  23.208  0.00  0.00    +0.000 A 
ATOM     32  C   UNL     1      -4.230  12.764  22.399  0.00  0.00    +0.000 A 
ATOM     33  C   UNL     1      -4.091  12.825  21.013  0.00  0.00    +0.000 A 
ATOM     34  C   UNL     1      -2.827  12.735  20.437  0.00  0.00    +0.000 A 
ENDBRANCH  28  29
ENDBRANCH  27  28
ENDBRANCH  24  27
ENDBRANCH  20  21
ENDBRANCH   2  19
TORSDOF 10
ENDMDL
MODEL 8
REMARK VINA RESULT:      -7.8      1.079      1.929
REMARK  Name = 
REMARK  10 active torsions:
REMARK  status: ('A' for Active; 'I' for Inactive)
REMARK    1  A    between atoms: C_2  and  C_3
REMARK    2  A    between atoms: C_2  and  C_19
REMARK    3  A    between atoms: C_4  and  C_5
REMARK    4  A    between atoms: C_8  and  O_9
REMARK    5  A    between atoms: O_9  and  C_10
REMARK    6  A    between atoms: C_10  and  C_11
REMARK    7  A    between atoms: C_22  and  O_23
REMARK    8  A    between atoms: O_23  and  C_24
REMARK    9  A    between atoms: C_24  and  C_25
REMARK   10  A    between atoms: C_32  and  O_33
REMARK                            x       y       z     vdW  Elec       q    Type
REMARK                         _______ _______ _______ _____ _____    ______ ____
ROOT
ATOM      1  O   UNL     1       1.824  12.234  21.134  0.00  0.00    +0.000 OA
ATOM      2  C   UNL     1       0.882  11.487  20.893  0.00  0.00    +0.000 C 
ENDROOT
BRANCH   2   3
ATOM      3  C   UNL     1      -0.508  11.894  21.221  0.00  0.00    +0.000 A 
ATOM      4  C   UNL     1      -1.186  12.660  20.265  0.00  0.00    +0.000 A 
ATOM      5  C   UNL     1      -2.496  13.081  20.498  0.00  0.00    +0.000 A 
ATOM      6  C   UNL     1      -3.146  12.727  21.683  0.00  0.00    +0.000 A 
ATOM      7  C   UNL     1      -2.462  11.998  22.654  0.00  0.00    +0.000 A 
ATOM      8  C   UNL     1      -1.151  11.577  22.425  0.00  0.00    +0.000 A 
BRANCH   8   9
ATOM      9  O   UNL     1      -0.507  10.872  23.401  0.00  0.00    +0.000 OA
ATOM     10  H   UNL     1      -0.374   9.951  23.112  0.00  0.00    +0.000 HD
ENDBRANCH   8   9
BRANCH   6  11
ATOM     11  O   UNL     1      -4.440  13.042  21.990  0.00  0.00    +0.000 OA
BRANCH  11  12
ATOM     12  C   UNL     1      -5.241  13.457  20.884  0.00  0.00    +0.000 C 
BRANCH  12  13
ATOM     13  C   UNL     1      -5.888  12.247  20.263  0.00  0.00    +0.000 A 
ATOM     14  C   UNL     1      -5.486  11.793  19.000  0.00  0.00    +0.000 A 
ATOM     15  C   UNL     1      -6.094  10.676  18.428  0.00  0.00    +0.000 A 
ATOM     16  C   UNL     1      -7.108  10.004  19.110  0.00  0.00    +0.000 A 
ATOM     17  C   UNL     1      -7.511  10.448  20.371  0.00  0.00    +0.000 A 
ATOM     18  C   UNL     1      -6.906  11.564  20.944  0.00  0.00    +0.000 A 
ENDBRANCH  12  13
ENDBRANCH  11  12
ENDBRANCH   6  11
ENDBRANCH   2   3
BRANCH   2  19
ATOM     19  C   UNL     1       1.067  10.196  20.193  0.00  0.00    +0.000 C 
ATOM     20  C   UNL     1       1.642   9.167  20.826  0.00  0.00    +0.000 C 
BRANCH  20  21
ATOM     21  C   UNL     1       1.819   7.901  20.127  0.00  0.00    +0.000 A 
ATOM     22  C   UNL     1       1.597   6.713  20.821  0.00  0.00    +0.000 A 
ATOM     23  C   UNL     1       1.769   5.487  20.183  0.00  0.00    +0.000 A 
ATOM     24  C   UNL     1       2.139   5.442  18.838  0.00  0.00    +0.000 A 
ATOM     25  C   UNL     1       2.418   6.627  18.157  0.00  0.00    +0.000 A 
ATOM     26  C   UNL     1       2.252   7.859  18.796  0.00  0.00    +0.000 A 
BRANCH  24  27
ATOM     27  O   UNL     1       2.245   4.289  18.105  0.00  0.00    +0.000 OA
BRANCH  27  28
ATOM     28  C   UNL     1       3.304   3.423  18.525  0.00  0.00    +0.000 C 
BRANCH  28  29
ATOM     29  C   UNL     1       4.606   3.878  17.921  0.00  0.00    +0.000 A 
ATOM     30  C   UNL     1       4.841   3.739  16.546  0.00  0.00    +0.000 A 
ATOM     31  C   UNL     1       6.041   4.180  15.992  0.00  0.00    +0.000 A 
ATOM     32  C   UNL     1       7.016   4.761  16.804  0.00  0.00    +0.000 A 
ATOM     33  C   UNL     1       6.791   4.905  18.172  0.00  0.00    +0.000 A 
ATOM     34  C   UNL     1       5.593   4.465  18.729  0.00  0.00    +0.000 A 
ENDBRANCH  28  29
ENDBRANCH  27  28
ENDBRANCH  24  27
ENDBRANCH  20  21
ENDBRANCH   2  19
TORSDOF 10
ENDMDL
MODEL 9
REMARK VINA RESULT:      -7.8      2.205     11.498
REMARK  Name = 
REMARK  10 active torsions:
REMARK  status: ('A' for Active; 'I' for Inactive)
REMARK    1  A    between atoms: C_2  and  C_3
REMARK    2  A    between atoms: C_2  and  C_19
REMARK    3  A    between atoms: C_4  and  C_5
REMARK    4  A    between atoms: C_8  and  O_9
REMARK    5  A    between atoms: O_9  and  C_10
REMARK    6  A    between atoms: C_10  and  C_11
REMARK    7  A    between atoms: C_22  and  O_23
REMARK    8  A    between atoms: O_23  and  C_24
REMARK    9  A    between atoms: C_24  and  C_25
REMARK   10  A    between atoms: C_32  and  O_33
REMARK                            x       y       z     vdW  Elec       q    Type
REMARK                         _______ _______ _______ _____ _____    ______ ____
ROOT
ATOM      1  O   UNL     1       1.655   5.151  20.503  0.00  0.00    +0.000 OA
ATOM      2  C   UNL     1       2.150   6.231  20.196  0.00  0.00    +0.000 C 
ENDROOT
BRANCH   2   3
ATOM      3  C   UNL     1       3.201   6.309  19.150  0.00  0.00    +0.000 A 
ATOM      4  C   UNL     1       4.351   5.537  19.349  0.00  0.00    +0.000 A 
ATOM      5  C   UNL     1       5.384   5.554  18.411  0.00  0.00    +0.000 A 
ATOM      6  C   UNL     1       5.270   6.332  17.256  0.00  0.00    +0.000 A 
ATOM      7  C   UNL     1       4.144   7.133  17.073  0.00  0.00    +0.000 A 
ATOM      8  C   UNL     1       3.109   7.119  18.010  0.00  0.00    +0.000 A 
BRANCH   8   9
ATOM      9  O   UNL     1       2.025   7.921  17.803  0.00  0.00    +0.000 OA
ATOM     10  H   UNL     1       2.303   8.854  17.764  0.00  0.00    +0.000 HD
ENDBRANCH   8   9
BRANCH   6  11
ATOM     11  O   UNL     1       6.195   6.383  16.252  0.00  0.00    +0.000 OA
BRANCH  11  12
ATOM     12  C   UNL     1       6.958   5.191  16.070  0.00  0.00    +0.000 C 
BRANCH  12  13
ATOM     13  C   UNL     1       6.892   4.780  14.623  0.00  0.00    +0.000 A 
ATOM     14  C   UNL     1       7.783   5.322  13.687  0.00  0.00    +0.000 A 
ATOM     15  C   UNL     1       7.712   4.942  12.347  0.00  0.00    +0.000 A 
ATOM     16  C   UNL     1       6.752   4.021  11.930  0.00  0.00    +0.000 A 
ATOM     17  C   UNL     1       5.863   3.474  12.857  0.00  0.00    +0.000 A 
ATOM     18  C   UNL     1       5.932   3.852  14.196  0.00  0.00    +0.000 A 
ENDBRANCH  12  13
ENDBRANCH  11  12
ENDBRANCH   6  11
ENDBRANCH   2   3
BRANCH   2  19
ATOM     19  C   UNL     1       1.671   7.504  20.779  0.00  0.00    +0.000 C 
ATOM     20  C   UNL     1       0.360   7.755  20.854  0.00  0.00    +0.000 C 
BRANCH  20  21
ATOM     21  C   UNL     1      -0.099   9.012  21.430  0.00  0.00    +0.000 A 
ATOM     22  C   UNL     1      -0.224  10.126  20.601  0.00  0.00    +0.000 A 
ATOM     23  C   UNL     1      -0.649  11.344  21.125  0.00  0.00    +0.000 A 
ATOM     24  C   UNL     1      -0.978  11.450  22.478  0.00  0.00    +0.000 A 
ATOM     25  C   UNL     1      -0.799  10.353  23.321  0.00  0.00    +0.000 A 
ATOM     26  C   UNL     1      -0.367   9.130  22.799  0.00  0.00    +0.000 A 
BRANCH  24  27
ATOM     27  O   UNL     1      -1.488  12.580  23.062  0.00  0.00    +0.000 OA
BRANCH  27  28
ATOM     28  C   UNL     1      -2.161  13.456  22.154  0.00  0.00    +0.000 C 
BRANCH  28  29
ATOM     29  C   UNL     1      -3.645  13.209  22.211  0.00  0.00    +0.000 A 
ATOM     30  C   UNL     1      -4.347  12.821  21.062  0.00  0.00    +0.000 A 
ATOM     31  C   UNL     1      -5.718  12.575  21.126  0.00  0.00    +0.000 A 
ATOM     32  C   UNL     1      -6.398  12.716  22.336  0.00  0.00    +0.000 A 
ATOM     33  C   UNL     1      -5.708  13.100  23.485  0.00  0.00    +0.000 A 
ATOM     34  C   UNL     1      -4.339  13.347  23.423  0.00  0.00    +0.000 A 
ENDBRANCH  28  29
ENDBRANCH  27  28
ENDBRANCH  24  27
ENDBRANCH  20  21
ENDBRANCH   2  19
TORSDOF 10
ENDMDL
