MODEL 1
REMARK VINA RESULT:      -6.9      0.000      0.000
REMARK  Name = 
REMARK  9 active torsions:
REMARK  status: ('A' for Active; 'I' for Inactive)
REMARK    1  A    between atoms: C_1  and  C_2
REMARK    2  A    between atoms: C_2  and  O_3
REMARK    3  A    between atoms: O_3  and  C_4
REMARK    4  A    between atoms: C_4  and  C_5
REMARK    5  A    between atoms: C_5  and  C_6
REMARK    6  A    between atoms: C_6  and  C_7
REMARK    7  A    between atoms: C_7  and  N_8
REMARK    8  A    between atoms: N_8  and  C_9
REMARK    9  A    between atoms: N_8  and  C_10
REMARK                            x       y       z     vdW  Elec       q    Type
REMARK                         _______ _______ _______ _____ _____    ______ ____
ROOT
ATOM      1  C   UNL     1       3.747   5.670  18.145  0.00  0.00    +0.000 C 
ATOM      2  C   UNL     1       2.865   6.933  18.517  0.00  0.00    +0.000 A 
ATOM      3  C   UNL     1       2.979   8.092  17.692  0.00  0.00    +0.000 A 
ATOM      4  C   UNL     1       2.248   9.268  17.885  0.00  0.00    +0.000 A 
ATOM      5  C   UNL     1       1.381   9.363  18.949  0.00  0.00    +0.000 A 
ATOM      6  C   UNL     1       1.281   8.288  19.819  0.00  0.00    +0.000 A 
ATOM      7  C   UNL     1       2.024   7.081  19.646  0.00  0.00    +0.000 A 
ATOM      8  C   UNL     1       1.763   6.107  20.770  0.00  0.00    +0.000 C 
ATOM      9  C   UNL     1       2.643   4.897  20.940  0.00  0.00    +0.000 C 
ATOM     10  C   UNL     1       2.528   3.978  19.764  0.00  0.00    +0.000 A 
ATOM     11  C   UNL     1       1.794   2.784  19.963  0.00  0.00    +0.000 A 
ATOM     12  C   UNL     1       1.649   1.839  18.958  0.00  0.00    +0.000 A 
ATOM     13  C   UNL     1       2.317   2.035  17.770  0.00  0.00    +0.000 A 
ATOM     14  C   UNL     1       3.066   3.201  17.578  0.00  0.00    +0.000 A 
ATOM     15  C   UNL     1       3.104   4.269  18.511  0.00  0.00    +0.000 A 
ENDROOT
BRANCH   1  16
ATOM     16  C   UNL     1       5.117   5.825  18.907  0.00  0.00    +0.000 C 
BRANCH  16  17
ATOM     17  O   UNL     1       5.755   4.557  19.156  0.00  0.00    +0.000 OA
BRANCH  17  19
ATOM     18  C   UNL     1       7.770   5.849  19.198  0.00  0.00    +0.000 C 
ATOM     19  C   UNL     1       7.120   4.558  18.741  0.00  0.00    +0.000 C 
ENDBRANCH  17  19
ENDBRANCH  16  17
ENDBRANCH   1  16
BRANCH   1  20
ATOM     20  C   UNL     1       4.126   5.673  16.584  0.00  0.00    +0.000 C 
BRANCH  20  21
ATOM     21  C   UNL     1       5.555   6.178  16.241  0.00  0.00    +0.000 C 
BRANCH  21  22
ATOM     22  N   UNL     1       6.176   5.574  15.041  0.00  0.00    +0.000 NA
ATOM     23  C   UNL     1       7.511   5.025  15.277  0.00  0.00    +0.000 C 
ATOM     24  C   UNL     1       5.299   4.498  14.550  0.00  0.00    +0.000 C 
ENDBRANCH  21  22
ENDBRANCH  20  21
ENDBRANCH   1  20
TORSDOF 6
ENDMDL
MODEL 2
REMARK VINA RESULT:      -6.7      0.966      1.138
REMARK  Name = 
REMARK  9 active torsions:
REMARK  status: ('A' for Active; 'I' for Inactive)
REMARK    1  A    between atoms: C_1  and  C_2
REMARK    2  A    between atoms: C_2  and  O_3
REMARK    3  A    between atoms: O_3  and  C_4
REMARK    4  A    between atoms: C_4  and  C_5
REMARK    5  A    between atoms: C_5  and  C_6
REMARK    6  A    between atoms: C_6  and  C_7
REMARK    7  A    between atoms: C_7  and  N_8
REMARK    8  A    between atoms: N_8  and  C_9
REMARK    9  A    between atoms: N_8  and  C_10
REMARK                            x       y       z     vdW  Elec       q    Type
REMARK                         _______ _______ _______ _____ _____    ______ ____
ROOT
ATOM      1  C   UNL     1       3.606   4.895  18.296  0.00  0.00    +0.000 C 
ATOM      2  C   UNL     1       3.030   6.360  18.481  0.00  0.00    +0.000 A 
ATOM      3  C   UNL     1       3.403   7.349  17.524  0.00  0.00    +0.000 A 
ATOM      4  C   UNL     1       2.954   8.674  17.547  0.00  0.00    +0.000 A 
ATOM      5  C   UNL     1       2.129   9.094  18.565  0.00  0.00    +0.000 A 
ATOM      6  C   UNL     1       1.789   8.188  19.557  0.00  0.00    +0.000 A 
ATOM      7  C   UNL     1       2.242   6.834  19.558  0.00  0.00    +0.000 A 
ATOM      8  C   UNL     1       1.767   6.094  20.785  0.00  0.00    +0.000 C 
ATOM      9  C   UNL     1       2.351   4.750  21.130  0.00  0.00    +0.000 C 
ATOM     10  C   UNL     1       2.035   3.738  20.074  0.00  0.00    +0.000 A 
ATOM     11  C   UNL     1       1.051   2.773  20.396  0.00  0.00    +0.000 A 
ATOM     12  C   UNL     1       0.699   1.764  19.512  0.00  0.00    +0.000 A 
ATOM     13  C   UNL     1       1.396   1.653  18.329  0.00  0.00    +0.000 A 
ATOM     14  C   UNL     1       2.388   2.589  18.018  0.00  0.00    +0.000 A 
ATOM     15  C   UNL     1       2.663   3.731  18.812  0.00  0.00    +0.000 A 
ENDROOT
BRANCH   1  16
ATOM     16  C   UNL     1       4.974   4.837  19.074  0.00  0.00    +0.000 C 
BRANCH  16  17
ATOM     17  O   UNL     1       5.716   6.068  18.975  0.00  0.00    +0.000 OA
BRANCH  17  19
ATOM     18  C   UNL     1       7.789   6.897  18.108  0.00  0.00    +0.000 C 
ATOM     19  C   UNL     1       7.124   5.841  18.970  0.00  0.00    +0.000 C 
ENDBRANCH  17  19
ENDBRANCH  16  17
ENDBRANCH   1  16
BRANCH   1  20
ATOM     20  C   UNL     1       3.978   4.615  16.758  0.00  0.00    +0.000 C 
BRANCH  20  21
ATOM     21  C   UNL     1       5.342   3.910  16.516  0.00  0.00    +0.000 C 
BRANCH  21  22
ATOM     22  N   UNL     1       6.219   4.546  15.508  0.00  0.00    +0.000 NA
ATOM     23  C   UNL     1       6.285   3.822  14.238  0.00  0.00    +0.000 C 
ATOM     24  C   UNL     1       5.730   5.910  15.253  0.00  0.00    +0.000 C 
ENDBRANCH  21  22
ENDBRANCH  20  21
ENDBRANCH   1  20
TORSDOF 6
ENDMDL
MODEL 3
REMARK VINA RESULT:      -6.2      4.166      7.480
REMARK  Name = 
REMARK  9 active torsions:
REMARK  status: ('A' for Active; 'I' for Inactive)
REMARK    1  A    between atoms: C_1  and  C_2
REMARK    2  A    between atoms: C_2  and  O_3
REMARK    3  A    between atoms: O_3  and  C_4
REMARK    4  A    between atoms: C_4  and  C_5
REMARK    5  A    between atoms: C_5  and  C_6
REMARK    6  A    between atoms: C_6  and  C_7
REMARK    7  A    between atoms: C_7  and  N_8
REMARK    8  A    between atoms: N_8  and  C_9
REMARK    9  A    between atoms: N_8  and  C_10
REMARK                            x       y       z     vdW  Elec       q    Type
REMARK                         _______ _______ _______ _____ _____    ______ ____
ROOT
ATOM      1  C   UNL     1       0.368  10.825  18.946  0.00  0.00    +0.000 C 
ATOM      2  C   UNL     1       1.026  12.257  18.778  0.00  0.00    +0.000 A 
ATOM      3  C   UNL     1       2.405  12.319  18.415  0.00  0.00    +0.000 A 
ATOM      4  C   UNL     1       3.110  13.510  18.210  0.00  0.00    +0.000 A 
ATOM      5  C   UNL     1       2.476  14.717  18.398  0.00  0.00    +0.000 A 
ATOM      6  C   UNL     1       1.154  14.711  18.815  0.00  0.00    +0.000 A 
ATOM      7  C   UNL     1       0.417  13.509  19.038  0.00  0.00    +0.000 A 
ATOM      8  C   UNL     1      -0.976  13.801  19.540  0.00  0.00    +0.000 C 
ATOM      9  C   UNL     1      -1.824  12.691  20.103  0.00  0.00    +0.000 C 
ATOM     10  C   UNL     1      -2.132  11.665  19.057  0.00  0.00    +0.000 A 
ATOM     11  C   UNL     1      -3.450  11.661  18.543  0.00  0.00    +0.000 A 
ATOM     12  C   UNL     1      -3.864  10.736  17.596  0.00  0.00    +0.000 A 
ATOM     13  C   UNL     1      -2.986   9.742  17.222  0.00  0.00    +0.000 A 
ATOM     14  C   UNL     1      -1.690   9.726  17.748  0.00  0.00    +0.000 A 
ATOM     15  C   UNL     1      -1.173  10.747  18.586  0.00  0.00    +0.000 A 
ENDROOT
BRANCH   1  16
ATOM     16  C   UNL     1       0.571  10.398  20.448  0.00  0.00    +0.000 C 
BRANCH  16  17
ATOM     17  O   UNL     1      -0.475   9.526  20.919  0.00  0.00    +0.000 OA
BRANCH  17  19
ATOM     18  C   UNL     1      -0.915  10.527  23.049  0.00  0.00    +0.000 C 
ATOM     19  C   UNL     1      -0.388   9.304  22.325  0.00  0.00    +0.000 C 
ENDBRANCH  17  19
ENDBRANCH  16  17
ENDBRANCH   1  16
BRANCH   1  20
ATOM     20  C   UNL     1       1.158   9.726  18.081  0.00  0.00    +0.000 C 
BRANCH  20  21
ATOM     21  C   UNL     1       1.860   8.606  18.899  0.00  0.00    +0.000 C 
BRANCH  21  22
ATOM     22  N   UNL     1       2.331   7.442  18.115  0.00  0.00    +0.000 NA
ATOM     23  C   UNL     1       3.590   7.674  17.407  0.00  0.00    +0.000 C 
ATOM     24  C   UNL     1       2.502   6.300  19.027  0.00  0.00    +0.000 C 
ENDBRANCH  21  22
ENDBRANCH  20  21
ENDBRANCH   1  20
TORSDOF 6
ENDMDL
MODEL 4
REMARK VINA RESULT:      -6.1      4.178      7.351
REMARK  Name = 
REMARK  9 active torsions:
REMARK  status: ('A' for Active; 'I' for Inactive)
REMARK    1  A    between atoms: C_1  and  C_2
REMARK    2  A    between atoms: C_2  and  O_3
REMARK    3  A    between atoms: O_3  and  C_4
REMARK    4  A    between atoms: C_4  and  C_5
REMARK    5  A    between atoms: C_5  and  C_6
REMARK    6  A    between atoms: C_6  and  C_7
REMARK    7  A    between atoms: C_7  and  N_8
REMARK    8  A    between atoms: N_8  and  C_9
REMARK    9  A    between atoms: N_8  and  C_10
REMARK                            x       y       z     vdW  Elec       q    Type
REMARK                         _______ _______ _______ _____ _____    ______ ____
ROOT
ATOM      1  C   UNL     1      -0.216  10.355  18.924  0.00  0.00    +0.000 C 
ATOM      2  C   UNL     1      -1.586  10.588  18.160  0.00  0.00    +0.000 A 
ATOM      3  C   UNL     1      -1.768   9.936  16.905  0.00  0.00    +0.000 A 
ATOM      4  C   UNL     1      -2.930  10.030  16.132  0.00  0.00    +0.000 A 
ATOM      5  C   UNL     1      -3.969  10.823  16.561  0.00  0.00    +0.000 A 
ATOM      6  C   UNL     1      -3.816  11.531  17.743  0.00  0.00    +0.000 A 
ATOM      7  C   UNL     1      -2.636  11.456  18.544  0.00  0.00    +0.000 A 
ATOM      8  C   UNL     1      -2.722  12.372  19.740  0.00  0.00    +0.000 C 
ATOM      9  C   UNL     1      -1.493  12.662  20.559  0.00  0.00    +0.000 C 
ATOM     10  C   UNL     1      -0.978  11.420  21.216  0.00  0.00    +0.000 A 
ATOM     11  C   UNL     1      -1.200  11.302  22.609  0.00  0.00    +0.000 A 
ATOM     12  C   UNL     1      -0.738  10.213  23.334  0.00  0.00    +0.000 A 
ATOM     13  C   UNL     1       0.034   9.273  22.687  0.00  0.00    +0.000 A 
ATOM     14  C   UNL     1       0.280   9.400  21.316  0.00  0.00    +0.000 A 
ATOM     15  C   UNL     1      -0.311  10.403  20.505  0.00  0.00    +0.000 A 
ENDROOT
BRANCH   1  16
ATOM     16  C   UNL     1       0.781  11.471  18.432  0.00  0.00    +0.000 C 
BRANCH  16  17
ATOM     17  O   UNL     1       1.728  11.850  19.449  0.00  0.00    +0.000 OA
BRANCH  17  19
ATOM     18  C   UNL     1       2.446  13.715  20.769  0.00  0.00    +0.000 C 
ATOM     19  C   UNL     1       2.048  13.239  19.385  0.00  0.00    +0.000 C 
ENDBRANCH  17  19
ENDBRANCH  16  17
ENDBRANCH   1  16
BRANCH   1  20
ATOM     20  C   UNL     1       0.455   8.962  18.488  0.00  0.00    +0.000 C 
BRANCH  20  21
ATOM     21  C   UNL     1       1.877   9.068  17.871  0.00  0.00    +0.000 C 
BRANCH  21  22
ATOM     22  N   UNL     1       2.881   8.125  18.415  0.00  0.00    +0.000 NA
ATOM     23  C   UNL     1       2.321   7.115  19.313  0.00  0.00    +0.000 C 
ATOM     24  C   UNL     1       3.546   7.447  17.291  0.00  0.00    +0.000 C 
ENDBRANCH  21  22
ENDBRANCH  20  21
ENDBRANCH   1  20
TORSDOF 6
ENDMDL
MODEL 5
REMARK VINA RESULT:      -6.1      1.699      4.867
REMARK  Name = 
REMARK  9 active torsions:
REMARK  status: ('A' for Active; 'I' for Inactive)
REMARK    1  A    between atoms: C_1  and  C_2
REMARK    2  A    between atoms: C_2  and  O_3
REMARK    3  A    between atoms: O_3  and  C_4
REMARK    4  A    between atoms: C_4  and  C_5
REMARK    5  A    between atoms: C_5  and  C_6
REMARK    6  A    between atoms: C_6  and  C_7
REMARK    7  A    between atoms: C_7  and  N_8
REMARK    8  A    between atoms: N_8  and  C_9
REMARK    9  A    between atoms: N_8  and  C_10
REMARK                            x       y       z     vdW  Elec       q    Type
REMARK                         _______ _______ _______ _____ _____    ______ ____
ROOT
ATOM      1  C   UNL     1       4.136   5.324  18.665  0.00  0.00    +0.000 C 
ATOM      2  C   UNL     1       2.907   4.359  18.934  0.00  0.00    +0.000 A 
ATOM      3  C   UNL     1       1.944   4.762  19.907  0.00  0.00    +0.000 A 
ATOM      4  C   UNL     1       0.800   4.027  20.231  0.00  0.00    +0.000 A 
ATOM      5  C   UNL     1       0.575   2.814  19.620  0.00  0.00    +0.000 A 
ATOM      6  C   UNL     1       1.514   2.346  18.715  0.00  0.00    +0.000 A 
ATOM      7  C   UNL     1       2.693   3.077  18.374  0.00  0.00    +0.000 A 
ATOM      8  C   UNL     1       3.562   2.305  17.411  0.00  0.00    +0.000 C 
ATOM      9  C   UNL     1       4.972   2.756  17.137  0.00  0.00    +0.000 C 
ATOM     10  C   UNL     1       4.990   4.103  16.486  0.00  0.00    +0.000 A 
ATOM     11  C   UNL     1       5.303   4.135  15.106  0.00  0.00    +0.000 A 
ATOM     12  C   UNL     1       5.385   5.327  14.401  0.00  0.00    +0.000 A 
ATOM     13  C   UNL     1       5.246   6.510  15.093  0.00  0.00    +0.000 A 
ATOM     14  C   UNL     1       4.963   6.484  16.463  0.00  0.00    +0.000 A 
ATOM     15  C   UNL     1       4.704   5.291  17.187  0.00  0.00    +0.000 A 
ENDROOT
BRANCH   1  16
ATOM     16  C   UNL     1       5.277   4.906  19.667  0.00  0.00    +0.000 C 
BRANCH  16  17
ATOM     17  O   UNL     1       6.560   4.789  19.022  0.00  0.00    +0.000 OA
BRANCH  17  19
ATOM     18  C   UNL     1       7.895   6.701  18.476  0.00  0.00    +0.000 C 
ATOM     19  C   UNL     1       7.509   5.710  19.557  0.00  0.00    +0.000 C 
ENDBRANCH  17  19
ENDBRANCH  16  17
ENDBRANCH   1  16
BRANCH   1  20
ATOM     20  C   UNL     1       3.770   6.841  19.045  0.00  0.00    +0.000 C 
BRANCH  20  21
ATOM     21  C   UNL     1       2.567   7.453  18.276  0.00  0.00    +0.000 C 
BRANCH  21  22
ATOM     22  N   UNL     1       2.051   8.733  18.811  0.00  0.00    +0.000 NA
ATOM     23  C   UNL     1       1.056   9.377  17.953  0.00  0.00    +0.000 C 
ATOM     24  C   UNL     1       1.450   8.482  20.131  0.00  0.00    +0.000 C 
ENDBRANCH  21  22
ENDBRANCH  20  21
ENDBRANCH   1  20
TORSDOF 6
ENDMDL
MODEL 6
REMARK VINA RESULT:      -6.0      4.113      8.128
REMARK  Name = 
REMARK  9 active torsions:
REMARK  status: ('A' for Active; 'I' for Inactive)
REMARK    1  A    between atoms: C_1  and  C_2
REMARK    2  A    between atoms: C_2  and  O_3
REMARK    3  A    between atoms: O_3  and  C_4
REMARK    4  A    between atoms: C_4  and  C_5
REMARK    5  A    between atoms: C_5  and  C_6
REMARK    6  A    between atoms: C_6  and  C_7
REMARK    7  A    between atoms: C_7  and  N_8
REMARK    8  A    between atoms: N_8  and  C_9
REMARK    9  A    between atoms: N_8  and  C_10
REMARK                            x       y       z     vdW  Elec       q    Type
REMARK                         _______ _______ _______ _____ _____    ______ ____
ROOT
ATOM      1  C   UNL     1       0.722  10.829  19.159  0.00  0.00    +0.000 C 
ATOM      2  C   UNL     1       0.095  10.684  20.608  0.00  0.00    +0.000 A 
ATOM      3  C   UNL     1       0.244   9.432  21.275  0.00  0.00    +0.000 A 
ATOM      4  C   UNL     1      -0.235   9.167  22.563  0.00  0.00    +0.000 A 
ATOM      5  C   UNL     1      -0.930  10.140  23.243  0.00  0.00    +0.000 A 
ATOM      6  C   UNL     1      -1.158  11.353  22.613  0.00  0.00    +0.000 A 
ATOM      7  C   UNL     1      -0.686  11.643  21.296  0.00  0.00    +0.000 A 
ATOM      8  C   UNL     1      -1.128  13.012  20.841  0.00  0.00    +0.000 C 
ATOM      9  C   UNL     1      -0.984  13.410  19.396  0.00  0.00    +0.000 C 
ATOM     10  C   UNL     1       0.456  13.450  18.989  0.00  0.00    +0.000 A 
ATOM     11  C   UNL     1       1.032  14.732  18.823  0.00  0.00    +0.000 A 
ATOM     12  C   UNL     1       2.347  14.896  18.414  0.00  0.00    +0.000 A 
ATOM     13  C   UNL     1       3.074  13.777  18.076  0.00  0.00    +0.000 A 
ATOM     14  C   UNL     1       2.501  12.508  18.213  0.00  0.00    +0.000 A 
ATOM     15  C   UNL     1       1.222  12.285  18.785  0.00  0.00    +0.000 A 
ENDROOT
BRANCH   1  16
ATOM     16  C   UNL     1      -0.386  10.383  18.132  0.00  0.00    +0.000 C 
BRANCH  16  17
ATOM     17  O   UNL     1      -1.630  10.045  18.777  0.00  0.00    +0.000 OA
BRANCH  17  19
ATOM     18  C   UNL     1      -2.414  11.116  16.784  0.00  0.00    +0.000 C 
ATOM     19  C   UNL     1      -2.732  10.110  17.873  0.00  0.00    +0.000 C 
ENDBRANCH  17  19
ENDBRANCH  16  17
ENDBRANCH   1  16
BRANCH   1  20
ATOM     20  C   UNL     1       1.935   9.796  18.951  0.00  0.00    +0.000 C 
BRANCH  20  21
ATOM     21  C   UNL     1       1.746   8.762  17.806  0.00  0.00    +0.000 C 
BRANCH  21  22
ATOM     22  N   UNL     1       2.342   7.429  18.046  0.00  0.00    +0.000 NA
ATOM     23  C   UNL     1       3.703   7.286  17.527  0.00  0.00    +0.000 C 
ATOM     24  C   UNL     1       2.356   7.174  19.495  0.00  0.00    +0.000 C 
ENDBRANCH  21  22
ENDBRANCH  20  21
ENDBRANCH   1  20
TORSDOF 6
ENDMDL
MODEL 7
REMARK VINA RESULT:      -6.0      1.163      1.505
REMARK  Name = 
REMARK  9 active torsions:
REMARK  status: ('A' for Active; 'I' for Inactive)
REMARK    1  A    between atoms: C_1  and  C_2
REMARK    2  A    between atoms: C_2  and  O_3
REMARK    3  A    between atoms: O_3  and  C_4
REMARK    4  A    between atoms: C_4  and  C_5
REMARK    5  A    between atoms: C_5  and  C_6
REMARK    6  A    between atoms: C_6  and  C_7
REMARK    7  A    between atoms: C_7  and  N_8
REMARK    8  A    between atoms: N_8  and  C_9
REMARK    9  A    between atoms: N_8  and  C_10
REMARK                            x       y       z     vdW  Elec       q    Type
REMARK                         _______ _______ _______ _____ _____    ______ ____
ROOT
ATOM      1  C   UNL     1       3.196   5.906  18.337  0.00  0.00    +0.000 C 
ATOM      2  C   UNL     1       2.512   7.311  18.604  0.00  0.00    +0.000 A 
ATOM      3  C   UNL     1       2.811   8.379  17.707  0.00  0.00    +0.000 A 
ATOM      4  C   UNL     1       2.265   9.663  17.804  0.00  0.00    +0.000 A 
ATOM      5  C   UNL     1       1.411   9.961  18.841  0.00  0.00    +0.000 A 
ATOM      6  C   UNL     1       1.139   8.977  19.778  0.00  0.00    +0.000 A 
ATOM      7  C   UNL     1       1.691   7.662  19.703  0.00  0.00    +0.000 A 
ATOM      8  C   UNL     1       1.273   6.819  20.883  0.00  0.00    +0.000 C 
ATOM      9  C   UNL     1       1.956   5.505  21.152  0.00  0.00    +0.000 C 
ATOM     10  C   UNL     1       1.715   4.534  20.039  0.00  0.00    +0.000 A 
ATOM     11  C   UNL     1       0.806   3.482  20.301  0.00  0.00    +0.000 A 
ATOM     12  C   UNL     1       0.530   2.502  19.359  0.00  0.00    +0.000 A 
ATOM     13  C   UNL     1       1.233   2.512  18.175  0.00  0.00    +0.000 A 
ATOM     14  C   UNL     1       2.153   3.535  17.922  0.00  0.00    +0.000 A 
ATOM     15  C   UNL     1       2.343   4.648  18.782  0.00  0.00    +0.000 A 
ENDROOT
BRANCH   1  16
ATOM     16  C   UNL     1       4.565   5.905  19.116  0.00  0.00    +0.000 C 
BRANCH  16  17
ATOM     17  O   UNL     1       4.682   4.789  20.021  0.00  0.00    +0.000 OA
BRANCH  17  19
ATOM     18  C   UNL     1       4.743   2.395  20.030  0.00  0.00    +0.000 C 
ATOM     19  C   UNL     1       5.289   3.660  19.396  0.00  0.00    +0.000 C 
ENDBRANCH  17  19
ENDBRANCH  16  17
ENDBRANCH   1  16
BRANCH   1  20
ATOM     20  C   UNL     1       3.588   5.743  16.788  0.00  0.00    +0.000 C 
BRANCH  20  21
ATOM     21  C   UNL     1       5.108   5.812  16.470  0.00  0.00    +0.000 C 
BRANCH  21  22
ATOM     22  N   UNL     1       5.707   4.568  15.938  0.00  0.00    +0.000 NA
ATOM     23  C   UNL     1       5.589   4.427  14.486  0.00  0.00    +0.000 C 
ATOM     24  C   UNL     1       7.131   4.537  16.305  0.00  0.00    +0.000 C 
ENDBRANCH  21  22
ENDBRANCH  20  21
ENDBRANCH   1  20
TORSDOF 6
ENDMDL
MODEL 8
REMARK VINA RESULT:      -5.9      2.285      4.974
REMARK  Name = 
REMARK  9 active torsions:
REMARK  status: ('A' for Active; 'I' for Inactive)
REMARK    1  A    between atoms: C_1  and  C_2
REMARK    2  A    between atoms: C_2  and  O_3
REMARK    3  A    between atoms: O_3  and  C_4
REMARK    4  A    between atoms: C_4  and  C_5
REMARK    5  A    between atoms: C_5  and  C_6
REMARK    6  A    between atoms: C_6  and  C_7
REMARK    7  A    between atoms: C_7  and  N_8
REMARK    8  A    between atoms: N_8  and  C_9
REMARK    9  A    between atoms: N_8  and  C_10
REMARK                            x       y       z     vdW  Elec       q    Type
REMARK                         _______ _______ _______ _____ _____    ______ ____
ROOT
ATOM      1  C   UNL     1       2.779   5.786  19.338  0.00  0.00    +0.000 C 
ATOM      2  C   UNL     1       2.072   7.174  19.633  0.00  0.00    +0.000 A 
ATOM      3  C   UNL     1       1.173   7.242  20.738  0.00  0.00    +0.000 A 
ATOM      4  C   UNL     1       0.497   8.402  21.131  0.00  0.00    +0.000 A 
ATOM      5  C   UNL     1       0.657   9.560  20.405  0.00  0.00    +0.000 A 
ATOM      6  C   UNL     1       1.469   9.530  19.283  0.00  0.00    +0.000 A 
ATOM      7  C   UNL     1       2.162   8.356  18.859  0.00  0.00    +0.000 A 
ATOM      8  C   UNL     1       2.923   8.596  17.578  0.00  0.00    +0.000 C 
ATOM      9  C   UNL     1       3.491   7.434  16.807  0.00  0.00    +0.000 C 
ATOM     10  C   UNL     1       4.537   6.720  17.603  0.00  0.00    +0.000 A 
ATOM     11  C   UNL     1       5.882   6.921  17.209  0.00  0.00    +0.000 A 
ATOM     12  C   UNL     1       6.935   6.285  17.848  0.00  0.00    +0.000 A 
ATOM     13  C   UNL     1       6.647   5.365  18.832  0.00  0.00    +0.000 A 
ATOM     14  C   UNL     1       5.318   5.142  19.207  0.00  0.00    +0.000 A 
ATOM     15  C   UNL     1       4.226   5.891  18.700  0.00  0.00    +0.000 A 
ENDROOT
BRANCH   1  16
ATOM     16  C   UNL     1       1.838   4.989  18.358  0.00  0.00    +0.000 C 
BRANCH  16  17
ATOM     17  O   UNL     1       2.575   4.147  17.450  0.00  0.00    +0.000 OA
BRANCH  17  19
ATOM     18  C   UNL     1       3.540   1.986  17.817  0.00  0.00    +0.000 C 
ATOM     19  C   UNL     1       2.255   2.768  17.626  0.00  0.00    +0.000 C 
ENDBRANCH  17  19
ENDBRANCH  16  17
ENDBRANCH   1  16
BRANCH   1  20
ATOM     20  C   UNL     1       2.865   4.890  20.668  0.00  0.00    +0.000 C 
BRANCH  20  21
ATOM     21  C   UNL     1       1.617   4.012  20.967  0.00  0.00    +0.000 C 
BRANCH  21  22
ATOM     22  N   UNL     1       1.885   2.571  21.172  0.00  0.00    +0.000 NA
ATOM     23  C   UNL     1       3.304   2.246  21.317  0.00  0.00    +0.000 C 
ATOM     24  C   UNL     1       1.170   2.128  22.380  0.00  0.00    +0.000 C 
ENDBRANCH  21  22
ENDBRANCH  20  21
ENDBRANCH   1  20
TORSDOF 6
ENDMDL
MODEL 9
REMARK VINA RESULT:      -5.9      5.848      9.025
REMARK  Name = 
REMARK  9 active torsions:
REMARK  status: ('A' for Active; 'I' for Inactive)
REMARK    1  A    between atoms: C_1  and  C_2
REMARK    2  A    between atoms: C_2  and  O_3
REMARK    3  A    between atoms: O_3  and  C_4
REMARK    4  A    between atoms: C_4  and  C_5
REMARK    5  A    between atoms: C_5  and  C_6
REMARK    6  A    between atoms: C_6  and  C_7
REMARK    7  A    between atoms: C_7  and  N_8
REMARK    8  A    between atoms: N_8  and  C_9
REMARK    9  A    between atoms: N_8  and  C_10
REMARK                            x       y       z     vdW  Elec       q    Type
REMARK                         _______ _______ _______ _____ _____    ______ ____
ROOT
ATOM      1  C   UNL     1      -0.637  11.604  19.428  0.00  0.00    +0.000 C 
ATOM      2  C   UNL     1       0.442  12.700  19.044  0.00  0.00    +0.000 A 
ATOM      3  C   UNL     1       0.088  14.072  19.210  0.00  0.00    +0.000 A 
ATOM      4  C   UNL     1       0.944  15.143  18.935  0.00  0.00    +0.000 A 
ATOM      5  C   UNL     1       2.203  14.896  18.435  0.00  0.00    +0.000 A 
ATOM      6  C   UNL     1       2.573  13.583  18.194  0.00  0.00    +0.000 A 
ATOM      7  C   UNL     1       1.712  12.474  18.460  0.00  0.00    +0.000 A 
ATOM      8  C   UNL     1       2.350  11.169  18.049  0.00  0.00    +0.000 C 
ATOM      9  C   UNL     1       1.523   9.913  17.979  0.00  0.00    +0.000 C 
ATOM     10  C   UNL     1       1.000   9.536  19.329  0.00  0.00    +0.000 A 
ATOM     11  C   UNL     1       1.618   8.430  19.962  0.00  0.00    +0.000 A 
ATOM     12  C   UNL     1       1.196   7.966  21.199  0.00  0.00    +0.000 A 
ATOM     13  C   UNL     1       0.088   8.546  21.776  0.00  0.00    +0.000 A 
ATOM     14  C   UNL     1      -0.543   9.621  21.142  0.00  0.00    +0.000 A 
ATOM     15  C   UNL     1      -0.046  10.236  19.964  0.00  0.00    +0.000 A 
ENDROOT
BRANCH   1  16
ATOM     16  C   UNL     1      -1.492  11.327  18.135  0.00  0.00    +0.000 C 
BRANCH  16  17
ATOM     17  O   UNL     1      -2.046   9.997  18.116  0.00  0.00    +0.000 OA
BRANCH  17  19
ATOM     18  C   UNL     1      -2.627  10.507  15.849  0.00  0.00    +0.000 C 
ATOM     19  C   UNL     1      -3.085   9.869  17.146  0.00  0.00    +0.000 C 
ENDBRANCH  17  19
ENDBRANCH  16  17
ENDBRANCH   1  16
BRANCH   1  20
ATOM     20  C   UNL     1      -1.677  12.178  20.511  0.00  0.00    +0.000 C 
BRANCH  20  21
ATOM     21  C   UNL     1      -3.098  12.500  19.971  0.00  0.00    +0.000 C 
BRANCH  21  22
ATOM     22  N   UNL     1      -3.889  13.452  20.783  0.00  0.00    +0.000 NA
ATOM     23  C   UNL     1      -4.880  12.812  21.648  0.00  0.00    +0.000 C 
ATOM     24  C   UNL     1      -2.966  14.238  21.616  0.00  0.00    +0.000 C 
ENDBRANCH  21  22
ENDBRANCH  20  21
ENDBRANCH   1  20
TORSDOF 6
ENDMDL
