MODEL 1
REMARK VINA RESULT:      -7.1      0.000      0.000
REMARK  Name = 
REMARK  4 active torsions:
REMARK  status: ('A' for Active; 'I' for Inactive)
REMARK    1  A    between atoms: C_1  and  N_2
REMARK    2  A    between atoms: N_2  and  C_3
REMARK    3  A    between atoms: C_12  and  C_14
REMARK    4  A    between atoms: C_18  and  C_19
REMARK                            x       y       z     vdW  Elec       q    Type
REMARK                         _______ _______ _______ _____ _____    ______ ____
ROOT
ATOM      1  C   UNL     1       0.563  11.351  18.590  0.00  0.00    +0.000 C 
ATOM      2  N   UNL     1       0.619  11.000  19.999  0.00  0.00    +0.000 N 
ATOM      3  C   UNL     1      -0.006  11.944  20.920  0.00  0.00    +0.000 C 
ATOM      4  C   UNL     1       0.688   9.705  20.435  0.00  0.00    +0.000 A 
ATOM      5  N   UNL     1       0.211   9.210  21.565  0.00  0.00    +0.000 NA
ATOM      6  N   UNL     1       0.585   7.881  21.674  0.00  0.00    +0.000 NA
ATOM      7  C   UNL     1       1.328   7.594  20.628  0.00  0.00    +0.000 A 
ATOM      8  N   UNL     1       1.365   8.693  19.802  0.00  0.00    +0.000 N 
ATOM      9  C   UNL     1       2.147   8.737  18.602  0.00  0.00    +0.000 C 
ATOM     10  C   UNL     1       2.541   7.353  18.133  0.00  0.00    +0.000 C 
ATOM     11  N   UNL     1       3.009   6.495  19.220  0.00  0.00    +0.000 N 
ATOM     12  C   UNL     1       4.160   5.687  19.208  0.00  0.00    +0.000 C 
ATOM     13  O   UNL     1       4.405   4.897  20.114  0.00  0.00    +0.000 OA
ATOM     14  C   UNL     1       2.048   6.316  20.328  0.00  0.00    +0.000 C 
ENDROOT
BRANCH  12  15
ATOM     15  C   UNL     1       5.125   5.774  18.064  0.00  0.00    +0.000 A 
ATOM     16  C   UNL     1       6.185   6.691  18.154  0.00  0.00    +0.000 A 
ATOM     17  C   UNL     1       7.225   6.672  17.232  0.00  0.00    +0.000 A 
ATOM     18  C   UNL     1       7.159   5.817  16.139  0.00  0.00    +0.000 A 
ATOM     19  C   UNL     1       6.037   4.990  15.938  0.00  0.00    +0.000 A 
ATOM     20  C   UNL     1       5.012   4.972  16.909  0.00  0.00    +0.000 A 
ATOM     21 CL   UNL     1       3.635   3.950  16.657  0.00  0.00    +0.000 Cl
BRANCH  19  22
ATOM     22  C   UNL     1       5.976   4.139  14.691  0.00  0.00    +0.000 C 
ATOM     23  F   UNL     1       7.044   4.340  13.863  0.00  0.00    +0.000 F 
ATOM     24  F   UNL     1       5.981   2.804  14.954  0.00  0.00    +0.000 F 
ATOM     25  F   UNL     1       4.880   4.387  13.924  0.00  0.00    +0.000 F 
ENDBRANCH  19  22
ENDBRANCH  12  15
TORSDOF 2
ENDMDL
MODEL 2
REMARK VINA RESULT:      -6.7      1.741      2.302
REMARK  Name = 
REMARK  4 active torsions:
REMARK  status: ('A' for Active; 'I' for Inactive)
REMARK    1  A    between atoms: C_1  and  N_2
REMARK    2  A    between atoms: N_2  and  C_3
REMARK    3  A    between atoms: C_12  and  C_14
REMARK    4  A    between atoms: C_18  and  C_19
REMARK                            x       y       z     vdW  Elec       q    Type
REMARK                         _______ _______ _______ _____ _____    ______ ____
ROOT
ATOM      1  C   UNL     1       1.367  11.332  18.327  0.00  0.00    +0.000 C 
ATOM      2  N   UNL     1       1.520  11.199  19.766  0.00  0.00    +0.000 N 
ATOM      3  C   UNL     1       1.361  12.425  20.543  0.00  0.00    +0.000 C 
ATOM      4  C   UNL     1       1.250  10.036  20.432  0.00  0.00    +0.000 A 
ATOM      5  N   UNL     1       0.817   9.903  21.675  0.00  0.00    +0.000 NA
ATOM      6  N   UNL     1       0.775   8.558  22.002  0.00  0.00    +0.000 NA
ATOM      7  C   UNL     1       1.228   7.887  20.966  0.00  0.00    +0.000 A 
ATOM      8  N   UNL     1       1.480   8.773  19.946  0.00  0.00    +0.000 N 
ATOM      9  C   UNL     1       2.049   8.376  18.693  0.00  0.00    +0.000 C 
ATOM     10  C   UNL     1       1.923   6.884  18.462  0.00  0.00    +0.000 C 
ATOM     11  N   UNL     1       2.259   6.095  19.646  0.00  0.00    +0.000 N 
ATOM     12  C   UNL     1       3.089   4.960  19.683  0.00  0.00    +0.000 C 
ATOM     13  O   UNL     1       3.210   4.281  20.697  0.00  0.00    +0.000 OA
ATOM     14  C   UNL     1       1.466   6.413  20.851  0.00  0.00    +0.000 C 
ENDROOT
BRANCH  12  15
ATOM     15  C   UNL     1       3.853   4.550  18.460  0.00  0.00    +0.000 A 
ATOM     16  C   UNL     1       3.181   3.825  17.464  0.00  0.00    +0.000 A 
ATOM     17  C   UNL     1       3.769   3.600  16.225  0.00  0.00    +0.000 A 
ATOM     18  C   UNL     1       5.084   3.993  16.007  0.00  0.00    +0.000 A 
ATOM     19  C   UNL     1       5.838   4.590  17.036  0.00  0.00    +0.000 A 
ATOM     20  C   UNL     1       5.216   4.867  18.273  0.00  0.00    +0.000 A 
ATOM     21 CL   UNL     1       6.148   5.605  19.534  0.00  0.00    +0.000 Cl
BRANCH  19  22
ATOM     22  C   UNL     1       7.287   4.924  16.774  0.00  0.00    +0.000 C 
ATOM     23  F   UNL     1       8.142   4.232  17.586  0.00  0.00    +0.000 F 
ATOM     24  F   UNL     1       7.685   4.624  15.508  0.00  0.00    +0.000 F 
ATOM     25  F   UNL     1       7.584   6.235  16.982  0.00  0.00    +0.000 F 
ENDBRANCH  19  22
ENDBRANCH  12  15
TORSDOF 2
ENDMDL
MODEL 3
REMARK VINA RESULT:      -6.6      4.439      7.686
REMARK  Name = 
REMARK  4 active torsions:
REMARK  status: ('A' for Active; 'I' for Inactive)
REMARK    1  A    between atoms: C_1  and  N_2
REMARK    2  A    between atoms: N_2  and  C_3
REMARK    3  A    between atoms: C_12  and  C_14
REMARK    4  A    between atoms: C_18  and  C_19
REMARK                            x       y       z     vdW  Elec       q    Type
REMARK                         _______ _______ _______ _____ _____    ______ ____
ROOT
ATOM      1  C   UNL     1       4.453   3.674  12.489  0.00  0.00    +0.000 C 
ATOM      2  N   UNL     1       5.843   3.421  12.831  0.00  0.00    +0.000 N 
ATOM      3  C   UNL     1       6.648   2.774  11.800  0.00  0.00    +0.000 C 
ATOM      4  C   UNL     1       6.534   4.189  13.727  0.00  0.00    +0.000 A 
ATOM      5  N   UNL     1       7.831   4.447  13.733  0.00  0.00    +0.000 NA
ATOM      6  N   UNL     1       8.147   5.174  14.869  0.00  0.00    +0.000 NA
ATOM      7  C   UNL     1       7.040   5.310  15.568  0.00  0.00    +0.000 A 
ATOM      8  N   UNL     1       6.002   4.758  14.857  0.00  0.00    +0.000 N 
ATOM      9  C   UNL     1       4.665   4.680  15.367  0.00  0.00    +0.000 C 
ATOM     10  C   UNL     1       4.445   5.633  16.522  0.00  0.00    +0.000 C 
ATOM     11  N   UNL     1       5.544   5.624  17.486  0.00  0.00    +0.000 N 
ATOM     12  C   UNL     1       5.426   5.556  18.885  0.00  0.00    +0.000 C 
ATOM     13  O   UNL     1       6.397   5.688  19.624  0.00  0.00    +0.000 OA
ATOM     14  C   UNL     1       6.871   5.938  16.917  0.00  0.00    +0.000 C 
ENDROOT
BRANCH  12  15
ATOM     15  C   UNL     1       4.086   5.319  19.514  0.00  0.00    +0.000 A 
ATOM     16  C   UNL     1       3.229   6.417  19.694  0.00  0.00    +0.000 A 
ATOM     17  C   UNL     1       1.904   6.234  20.073  0.00  0.00    +0.000 A 
ATOM     18  C   UNL     1       1.451   4.960  20.393  0.00  0.00    +0.000 A 
ATOM     19  C   UNL     1       2.325   3.856  20.367  0.00  0.00    +0.000 A 
ATOM     20  C   UNL     1       3.654   4.041  19.926  0.00  0.00    +0.000 A 
ATOM     21 CL   UNL     1       4.724   2.677  19.894  0.00  0.00    +0.000 Cl
BRANCH  19  22
ATOM     22  C   UNL     1       1.805   2.507  20.803  0.00  0.00    +0.000 C 
ATOM     23  F   UNL     1       0.498   2.550  21.202  0.00  0.00    +0.000 F 
ATOM     24  F   UNL     1       1.839   1.575  19.813  0.00  0.00    +0.000 F 
ATOM     25  F   UNL     1       2.482   1.985  21.861  0.00  0.00    +0.000 F 
ENDBRANCH  19  22
ENDBRANCH  12  15
TORSDOF 2
ENDMDL
MODEL 4
REMARK VINA RESULT:      -6.6      2.276      3.347
REMARK  Name = 
REMARK  4 active torsions:
REMARK  status: ('A' for Active; 'I' for Inactive)
REMARK    1  A    between atoms: C_1  and  N_2
REMARK    2  A    between atoms: N_2  and  C_3
REMARK    3  A    between atoms: C_12  and  C_14
REMARK    4  A    between atoms: C_18  and  C_19
REMARK                            x       y       z     vdW  Elec       q    Type
REMARK                         _______ _______ _______ _____ _____    ______ ____
ROOT
ATOM      1  C   UNL     1       1.791  13.895  18.213  0.00  0.00    +0.000 C 
ATOM      2  N   UNL     1       1.744  13.824  19.664  0.00  0.00    +0.000 N 
ATOM      3  C   UNL     1       1.778  15.102  20.369  0.00  0.00    +0.000 C 
ATOM      4  C   UNL     1       1.142  12.794  20.333  0.00  0.00    +0.000 A 
ATOM      5  N   UNL     1       0.549  12.840  21.515  0.00  0.00    +0.000 NA
ATOM      6  N   UNL     1       0.166  11.561  21.883  0.00  0.00    +0.000 NA
ATOM      7  C   UNL     1       0.573  10.741  20.937  0.00  0.00    +0.000 A 
ATOM      8  N   UNL     1       1.134  11.483  19.926  0.00  0.00    +0.000 N 
ATOM      9  C   UNL     1       1.740  10.891  18.771  0.00  0.00    +0.000 C 
ATOM     10  C   UNL     1       1.306   9.452  18.581  0.00  0.00    +0.000 C 
ATOM     11  N   UNL     1       1.316   8.685  19.826  0.00  0.00    +0.000 N 
ATOM     12  C   UNL     1       1.857   7.401  20.009  0.00  0.00    +0.000 C 
ATOM     13  O   UNL     1       1.704   6.777  21.055  0.00  0.00    +0.000 OA
ATOM     14  C   UNL     1       0.482   9.247  20.908  0.00  0.00    +0.000 C 
ENDROOT
BRANCH  12  15
ATOM     15  C   UNL     1       2.645   6.755  18.909  0.00  0.00    +0.000 A 
ATOM     16  C   UNL     1       3.421   7.574  18.073  0.00  0.00    +0.000 A 
ATOM     17  C   UNL     1       4.330   7.023  17.178  0.00  0.00    +0.000 A 
ATOM     18  C   UNL     1       4.390   5.644  17.020  0.00  0.00    +0.000 A 
ATOM     19  C   UNL     1       3.519   4.799  17.735  0.00  0.00    +0.000 A 
ATOM     20  C   UNL     1       2.638   5.362  18.685  0.00  0.00    +0.000 A 
ATOM     21 CL   UNL     1       1.572   4.315  19.564  0.00  0.00    +0.000 Cl
BRANCH  19  22
ATOM     22  C   UNL     1       3.567   3.313  17.468  0.00  0.00    +0.000 C 
ATOM     23  F   UNL     1       2.413   2.841  16.907  0.00  0.00    +0.000 F 
ATOM     24  F   UNL     1       4.552   2.957  16.600  0.00  0.00    +0.000 F 
ATOM     25  F   UNL     1       3.745   2.569  18.593  0.00  0.00    +0.000 F 
ENDBRANCH  19  22
ENDBRANCH  12  15
TORSDOF 2
ENDMDL
MODEL 5
REMARK VINA RESULT:      -6.6      5.168      8.043
REMARK  Name = 
REMARK  4 active torsions:
REMARK  status: ('A' for Active; 'I' for Inactive)
REMARK    1  A    between atoms: C_1  and  N_2
REMARK    2  A    between atoms: N_2  and  C_3
REMARK    3  A    between atoms: C_12  and  C_14
REMARK    4  A    between atoms: C_18  and  C_19
REMARK                            x       y       z     vdW  Elec       q    Type
REMARK                         _______ _______ _______ _____ _____    ______ ____
ROOT
ATOM      1  C   UNL     1       4.931   2.886  12.093  0.00  0.00    +0.000 C 
ATOM      2  N   UNL     1       6.342   3.192  12.258  0.00  0.00    +0.000 N 
ATOM      3  C   UNL     1       7.186   2.969  11.088  0.00  0.00    +0.000 C 
ATOM      4  C   UNL     1       6.795   4.128  13.145  0.00  0.00    +0.000 A 
ATOM      5  N   UNL     1       7.877   4.881  13.037  0.00  0.00    +0.000 NA
ATOM      6  N   UNL     1       8.037   5.619  14.198  0.00  0.00    +0.000 NA
ATOM      7  C   UNL     1       7.073   5.270  15.022  0.00  0.00    +0.000 A 
ATOM      8  N   UNL     1       6.244   4.384  14.376  0.00  0.00    +0.000 N 
ATOM      9  C   UNL     1       5.127   3.755  15.016  0.00  0.00    +0.000 C 
ATOM     10  C   UNL     1       4.714   4.485  16.277  0.00  0.00    +0.000 C 
ATOM     11  N   UNL     1       5.851   4.870  17.111  0.00  0.00    +0.000 N 
ATOM     12  C   UNL     1       5.962   4.694  18.502  0.00  0.00    +0.000 C 
ATOM     13  O   UNL     1       6.896   5.167  19.141  0.00  0.00    +0.000 OA
ATOM     14  C   UNL     1       6.859   5.713  16.436  0.00  0.00    +0.000 C 
ENDROOT
BRANCH  12  15
ATOM     15  C   UNL     1       4.920   3.913  19.244  0.00  0.00    +0.000 A 
ATOM     16  C   UNL     1       5.243   2.620  19.687  0.00  0.00    +0.000 A 
ATOM     17  C   UNL     1       4.404   1.932  20.555  0.00  0.00    +0.000 A 
ATOM     18  C   UNL     1       3.173   2.478  20.897  0.00  0.00    +0.000 A 
ATOM     19  C   UNL     1       2.752   3.706  20.352  0.00  0.00    +0.000 A 
ATOM     20  C   UNL     1       3.634   4.426  19.516  0.00  0.00    +0.000 A 
ATOM     21 CL   UNL     1       3.111   5.939  18.850  0.00  0.00    +0.000 Cl
BRANCH  19  22
ATOM     22  C   UNL     1       1.371   4.217  20.690  0.00  0.00    +0.000 C 
ATOM     23  F   UNL     1       0.767   3.487  21.676  0.00  0.00    +0.000 F 
ATOM     24  F   UNL     1       1.372   5.497  21.151  0.00  0.00    +0.000 F 
ATOM     25  F   UNL     1       0.509   4.176  19.639  0.00  0.00    +0.000 F 
ENDBRANCH  19  22
ENDBRANCH  12  15
TORSDOF 2
ENDMDL
MODEL 6
REMARK VINA RESULT:      -6.3      7.147      8.626
REMARK  Name = 
REMARK  4 active torsions:
REMARK  status: ('A' for Active; 'I' for Inactive)
REMARK    1  A    between atoms: C_1  and  N_2
REMARK    2  A    between atoms: N_2  and  C_3
REMARK    3  A    between atoms: C_12  and  C_14
REMARK    4  A    between atoms: C_18  and  C_19
REMARK                            x       y       z     vdW  Elec       q    Type
REMARK                         _______ _______ _______ _____ _____    ______ ____
ROOT
ATOM      1  C   UNL     1       1.454  13.611  20.574  0.00  0.00    +0.000 C 
ATOM      2  N   UNL     1       1.337  14.424  19.375  0.00  0.00    +0.000 N 
ATOM      3  C   UNL     1      -0.002  14.534  18.804  0.00  0.00    +0.000 C 
ATOM      4  C   UNL     1       2.185  15.462  19.102  0.00  0.00    +0.000 A 
ATOM      5  N   UNL     1       1.913  16.566  18.427  0.00  0.00    +0.000 NA
ATOM      6  N   UNL     1       3.072  17.309  18.282  0.00  0.00    +0.000 NA
ATOM      7  C   UNL     1       4.050  16.624  18.833  0.00  0.00    +0.000 A 
ATOM      8  N   UNL     1       3.523  15.492  19.407  0.00  0.00    +0.000 N 
ATOM      9  C   UNL     1       4.331  14.489  20.036  0.00  0.00    +0.000 C 
ATOM     10  C   UNL     1       5.710  15.011  20.383  0.00  0.00    +0.000 C 
ATOM     11  N   UNL     1       6.310  15.794  19.304  0.00  0.00    +0.000 N 
ATOM     12  C   UNL     1       7.624  15.672  18.817  0.00  0.00    +0.000 C 
ATOM     13  O   UNL     1       8.086  16.462  17.999  0.00  0.00    +0.000 OA
ATOM     14  C   UNL     1       5.511  16.954  18.859  0.00  0.00    +0.000 C 
ENDROOT
BRANCH  12  15
ATOM     15  C   UNL     1       8.502  14.557  19.300  0.00  0.00    +0.000 A 
ATOM     16  C   UNL     1       9.283  14.770  20.446  0.00  0.00    +0.000 A 
ATOM     17  C   UNL     1       9.951  13.718  21.061  0.00  0.00    +0.000 A 
ATOM     18  C   UNL     1       9.944  12.461  20.469  0.00  0.00    +0.000 A 
ATOM     19  C   UNL     1       9.294  12.247  19.238  0.00  0.00    +0.000 A 
ATOM     20  C   UNL     1       8.569  13.306  18.649  0.00  0.00    +0.000 A 
ATOM     21 CL   UNL     1       7.768  13.036  17.136  0.00  0.00    +0.000 Cl
BRANCH  19  22
ATOM     22  C   UNL     1       9.385  10.883  18.596  0.00  0.00    +0.000 C 
ATOM     23  F   UNL     1       9.827   9.921  19.461  0.00  0.00    +0.000 F 
ATOM     24  F   UNL     1       8.187  10.424  18.142  0.00  0.00    +0.000 F 
ATOM     25  F   UNL     1      10.248  10.839  17.545  0.00  0.00    +0.000 F 
ENDBRANCH  19  22
ENDBRANCH  12  15
TORSDOF 2
ENDMDL
MODEL 7
REMARK VINA RESULT:      -6.3      2.194      3.276
REMARK  Name = 
REMARK  4 active torsions:
REMARK  status: ('A' for Active; 'I' for Inactive)
REMARK    1  A    between atoms: C_1  and  N_2
REMARK    2  A    between atoms: N_2  and  C_3
REMARK    3  A    between atoms: C_12  and  C_14
REMARK    4  A    between atoms: C_18  and  C_19
REMARK                            x       y       z     vdW  Elec       q    Type
REMARK                         _______ _______ _______ _____ _____    ______ ____
ROOT
ATOM      1  C   UNL     1       1.095  14.051  19.040  0.00  0.00    +0.000 C 
ATOM      2  N   UNL     1       1.066  13.823  20.474  0.00  0.00    +0.000 N 
ATOM      3  C   UNL     1       1.008  15.017  21.313  0.00  0.00    +0.000 C 
ATOM      4  C   UNL     1       0.551  12.684  21.029  0.00  0.00    +0.000 A 
ATOM      5  N   UNL     1      -0.033  12.557  22.209  0.00  0.00    +0.000 NA
ATOM      6  N   UNL     1      -0.314  11.221  22.438  0.00  0.00    +0.000 NA
ATOM      7  C   UNL     1       0.146  10.541  21.410  0.00  0.00    +0.000 A 
ATOM      8  N   UNL     1       0.640  11.427  20.484  0.00  0.00    +0.000 N 
ATOM      9  C   UNL     1       1.279  11.010  19.272  0.00  0.00    +0.000 C 
ATOM     10  C   UNL     1       0.956   9.571  18.929  0.00  0.00    +0.000 C 
ATOM     11  N   UNL     1       1.035   8.679  20.084  0.00  0.00    +0.000 N 
ATOM     12  C   UNL     1       1.675   7.427  20.129  0.00  0.00    +0.000 C 
ATOM     13  O   UNL     1       1.578   6.686  21.102  0.00  0.00    +0.000 OA
ATOM     14  C   UNL     1       0.169   9.056  21.221  0.00  0.00    +0.000 C 
ENDROOT
BRANCH  12  15
ATOM     15  C   UNL     1       2.500   6.966  18.966  0.00  0.00    +0.000 A 
ATOM     16  C   UNL     1       3.194   7.928  18.215  0.00  0.00    +0.000 A 
ATOM     17  C   UNL     1       4.135   7.550  17.264  0.00  0.00    +0.000 A 
ATOM     18  C   UNL     1       4.308   6.204  16.967  0.00  0.00    +0.000 A 
ATOM     19  C   UNL     1       3.521   5.219  17.595  0.00  0.00    +0.000 A 
ATOM     20  C   UNL     1       2.608   5.606  18.601  0.00  0.00    +0.000 A 
ATOM     21 CL   UNL     1       1.644   4.390  19.373  0.00  0.00    +0.000 Cl
BRANCH  19  22
ATOM     22  C   UNL     1       3.690   3.778  17.178  0.00  0.00    +0.000 C 
ATOM     23  F   UNL     1       4.047   2.966  18.218  0.00  0.00    +0.000 F 
ATOM     24  F   UNL     1       2.551   3.228  16.678  0.00  0.00    +0.000 F 
ATOM     25  F   UNL     1       4.660   3.599  16.240  0.00  0.00    +0.000 F 
ENDBRANCH  19  22
ENDBRANCH  12  15
TORSDOF 2
ENDMDL
MODEL 8
REMARK VINA RESULT:      -6.2      2.791      4.459
REMARK  Name = 
REMARK  4 active torsions:
REMARK  status: ('A' for Active; 'I' for Inactive)
REMARK    1  A    between atoms: C_1  and  N_2
REMARK    2  A    between atoms: N_2  and  C_3
REMARK    3  A    between atoms: C_12  and  C_14
REMARK    4  A    between atoms: C_18  and  C_19
REMARK                            x       y       z     vdW  Elec       q    Type
REMARK                         _______ _______ _______ _____ _____    ______ ____
ROOT
ATOM      1  C   UNL     1      -1.879  11.516  23.082  0.00  0.00    +0.000 C 
ATOM      2  N   UNL     1      -2.308  11.939  21.759  0.00  0.00    +0.000 N 
ATOM      3  C   UNL     1      -3.472  12.818  21.713  0.00  0.00    +0.000 C 
ATOM      4  C   UNL     1      -1.446  12.042  20.702  0.00  0.00    +0.000 A 
ATOM      5  N   UNL     1      -1.524  12.877  19.680  0.00  0.00    +0.000 NA
ATOM      6  N   UNL     1      -0.517  12.585  18.774  0.00  0.00    +0.000 NA
ATOM      7  C   UNL     1       0.137  11.541  19.237  0.00  0.00    +0.000 A 
ATOM      8  N   UNL     1      -0.379  11.211  20.467  0.00  0.00    +0.000 N 
ATOM      9  C   UNL     1       0.065  10.074  21.217  0.00  0.00    +0.000 C 
ATOM     10  C   UNL     1       1.410   9.571  20.737  0.00  0.00    +0.000 C 
ATOM     11  N   UNL     1       1.507   9.507  19.279  0.00  0.00    +0.000 N 
ATOM     12  C   UNL     1       2.008   8.433  18.524  0.00  0.00    +0.000 C 
ATOM     13  O   UNL     1       2.175   8.518  17.311  0.00  0.00    +0.000 OA
ATOM     14  C   UNL     1       1.252  10.785  18.583  0.00  0.00    +0.000 C 
ENDROOT
BRANCH  12  15
ATOM     15  C   UNL     1       2.357   7.140  19.197  0.00  0.00    +0.000 A 
ATOM     16  C   UNL     1       1.560   6.710  20.270  0.00  0.00    +0.000 A 
ATOM     17  C   UNL     1       1.701   5.431  20.796  0.00  0.00    +0.000 A 
ATOM     18  C   UNL     1       2.721   4.607  20.336  0.00  0.00    +0.000 A 
ATOM     19  C   UNL     1       3.633   5.063  19.365  0.00  0.00    +0.000 A 
ATOM     20  C   UNL     1       3.449   6.342  18.794  0.00  0.00    +0.000 A 
ATOM     21 CL   UNL     1       4.573   6.896  17.597  0.00  0.00    +0.000 Cl
BRANCH  19  22
ATOM     22  C   UNL     1       4.774   4.160  18.958  0.00  0.00    +0.000 C 
ATOM     23  F   UNL     1       4.784   2.981  19.649  0.00  0.00    +0.000 F 
ATOM     24  F   UNL     1       4.729   3.799  17.647  0.00  0.00    +0.000 F 
ATOM     25  F   UNL     1       5.999   4.710  19.175  0.00  0.00    +0.000 F 
ENDBRANCH  19  22
ENDBRANCH  12  15
TORSDOF 2
ENDMDL
MODEL 9
REMARK VINA RESULT:      -6.2      7.847      9.180
REMARK  Name = 
REMARK  4 active torsions:
REMARK  status: ('A' for Active; 'I' for Inactive)
REMARK    1  A    between atoms: C_1  and  N_2
REMARK    2  A    between atoms: N_2  and  C_3
REMARK    3  A    between atoms: C_12  and  C_14
REMARK    4  A    between atoms: C_18  and  C_19
REMARK                            x       y       z     vdW  Elec       q    Type
REMARK                         _______ _______ _______ _____ _____    ______ ____
ROOT
ATOM      1  C   UNL     1       3.101  15.576  17.231  0.00  0.00    +0.000 C 
ATOM      2  N   UNL     1       3.780  14.808  18.261  0.00  0.00    +0.000 N 
ATOM      3  C   UNL     1       5.239  14.836  18.224  0.00  0.00    +0.000 C 
ATOM      4  C   UNL     1       3.223  14.563  19.486  0.00  0.00    +0.000 A 
ATOM      5  N   UNL     1       3.853  14.400  20.638  0.00  0.00    +0.000 NA
ATOM      6  N   UNL     1       2.933  14.064  21.617  0.00  0.00    +0.000 NA
ATOM      7  C   UNL     1       1.755  13.981  21.038  0.00  0.00    +0.000 A 
ATOM      8  N   UNL     1       1.888  14.343  19.719  0.00  0.00    +0.000 N 
ATOM      9  C   UNL     1       0.802  14.296  18.785  0.00  0.00    +0.000 C 
ATOM     10  C   UNL     1      -0.541  14.245  19.483  0.00  0.00    +0.000 C 
ATOM     11  N   UNL     1      -0.564  13.308  20.605  0.00  0.00    +0.000 N 
ATOM     12  C   UNL     1      -1.563  12.356  20.875  0.00  0.00    +0.000 C 
ATOM     13  O   UNL     1      -1.568  11.700  21.912  0.00  0.00    +0.000 OA
ATOM     14  C   UNL     1       0.453  13.560  21.647  0.00  0.00    +0.000 C 
ENDROOT
BRANCH  12  15
ATOM     15  C   UNL     1      -2.662  12.121  19.883  0.00  0.00    +0.000 A 
ATOM     16  C   UNL     1      -3.946  12.605  20.182  0.00  0.00    +0.000 A 
ATOM     17  C   UNL     1      -4.950  12.605  19.220  0.00  0.00    +0.000 A 
ATOM     18  C   UNL     1      -4.719  12.012  17.985  0.00  0.00    +0.000 A 
ATOM     19  C   UNL     1      -3.490  11.384  17.706  0.00  0.00    +0.000 A 
ATOM     20  C   UNL     1      -2.455  11.437  18.666  0.00  0.00    +0.000 A 
ATOM     21 CL   UNL     1      -0.944  10.665  18.314  0.00  0.00    +0.000 Cl
BRANCH  19  22
ATOM     22  C   UNL     1      -3.318  10.682  16.380  0.00  0.00    +0.000 C 
ATOM     23  F   UNL     1      -2.356  11.259  15.599  0.00  0.00    +0.000 F 
ATOM     24  F   UNL     1      -2.934   9.383  16.507  0.00  0.00    +0.000 F 
ATOM     25  F   UNL     1      -4.445  10.688  15.617  0.00  0.00    +0.000 F 
ENDBRANCH  19  22
ENDBRANCH  12  15
TORSDOF 2
ENDMDL
