MODEL 1
REMARK VINA RESULT:      -7.8      0.000      0.000
REMARK  Name = 
REMARK  5 active torsions:
REMARK  status: ('A' for Active; 'I' for Inactive)
REMARK    1  A    between atoms: C_1  and  C_2
REMARK    2  A    between atoms: C_2  and  O_3
REMARK    3  A    between atoms: O_3  and  C_4
REMARK    4  A    between atoms: C_4  and  C_6
REMARK    5  A    between atoms: N_15  and  C_16
REMARK                            x       y       z     vdW  Elec       q    Type
REMARK                         _______ _______ _______ _____ _____    ______ ____
ROOT
ATOM      1  C   UNL     1       6.345   5.363  17.800  0.00  0.00    +0.000 A 
ATOM      2  N   UNL     1       6.759   4.462  18.718  0.00  0.00    +0.000 NA
ATOM      3  N   UNL     1       5.736   4.338  19.576  0.00  0.00    +0.000 N 
ATOM      4  C   UNL     1       4.658   5.076  19.216  0.00  0.00    +0.000 A 
ATOM      5  C   UNL     1       4.998   5.746  18.060  0.00  0.00    +0.000 A 
ATOM      6  C   UNL     1       4.057   6.641  17.327  0.00  0.00    +0.000 C 
ATOM      7  N   UNL     1       2.887   6.923  18.198  0.00  0.00    +0.000 N 
ATOM      8  C   UNL     1       2.383   8.206  18.153  0.00  0.00    +0.000 C 
ATOM      9  O   UNL     1       2.881   9.031  17.381  0.00  0.00    +0.000 OA
ATOM     10  N   UNL     1       1.356   8.498  19.018  0.00  0.00    +0.000 N 
ATOM     11  C   UNL     1       2.324   5.769  18.933  0.00  0.00    +0.000 C 
ATOM     12  C   UNL     1       3.356   5.180  19.922  0.00  0.00    +0.000 C 
ATOM     13  H   UNL     1       5.855   3.725  20.373  0.00  0.00    +0.000 HD
ATOM     14  H   UNL     1       1.275   7.904  19.827  0.00  0.00    +0.000 HD
ENDROOT
BRANCH  10  15
ATOM     15  C   UNL     1       0.732   9.766  19.124  0.00  0.00    +0.000 A 
ATOM     16  C   UNL     1       1.093  10.705  20.096  0.00  0.00    +0.000 A 
ATOM     17  C   UNL     1       0.386  11.899  20.244  0.00  0.00    +0.000 A 
ATOM     18  C   UNL     1      -0.687  12.172  19.409  0.00  0.00    +0.000 A 
ATOM     19  C   UNL     1      -1.033  11.259  18.414  0.00  0.00    +0.000 A 
ATOM     20 CL   UNL     1      -2.381  11.588  17.395  0.00  0.00    +0.000 Cl
ATOM     21  C   UNL     1      -0.319  10.067  18.254  0.00  0.00    +0.000 A 
ENDBRANCH  10  15
BRANCH   1  22
ATOM     22  C   UNL     1       7.209   5.785  16.682  0.00  0.00    +0.000 C 
ATOM     23  O   UNL     1       7.548   6.944  16.489  0.00  0.00    +0.000 OA
BRANCH  22  24
ATOM     24  O   UNL     1       7.490   4.748  15.828  0.00  0.00    +0.000 OA
BRANCH  24  26
ATOM     25  C   UNL     1       5.635   4.301  14.395  0.00  0.00    +0.000 C 
ATOM     26  C   UNL     1       7.018   4.923  14.492  0.00  0.00    +0.000 C 
ENDBRANCH  24  26
ENDBRANCH  22  24
ENDBRANCH   1  22
TORSDOF 4
ENDMDL
MODEL 2
REMARK VINA RESULT:      -7.7      0.910      1.744
REMARK  Name = 
REMARK  5 active torsions:
REMARK  status: ('A' for Active; 'I' for Inactive)
REMARK    1  A    between atoms: C_1  and  C_2
REMARK    2  A    between atoms: C_2  and  O_3
REMARK    3  A    between atoms: O_3  and  C_4
REMARK    4  A    between atoms: C_4  and  C_6
REMARK    5  A    between atoms: N_15  and  C_16
REMARK                            x       y       z     vdW  Elec       q    Type
REMARK                         _______ _______ _______ _____ _____    ______ ____
ROOT
ATOM      1  C   UNL     1       6.214   5.370  17.756  0.00  0.00    +0.000 A 
ATOM      2  N   UNL     1       6.643   4.433  18.631  0.00  0.00    +0.000 NA
ATOM      3  N   UNL     1       5.639   4.287  19.508  0.00  0.00    +0.000 N 
ATOM      4  C   UNL     1       4.560   5.046  19.203  0.00  0.00    +0.000 A 
ATOM      5  C   UNL     1       4.878   5.755  18.063  0.00  0.00    +0.000 A 
ATOM      6  C   UNL     1       3.928   6.685  17.387  0.00  0.00    +0.000 C 
ATOM      7  N   UNL     1       2.783   6.945  18.297  0.00  0.00    +0.000 N 
ATOM      8  C   UNL     1       2.290   8.233  18.310  0.00  0.00    +0.000 C 
ATOM      9  O   UNL     1       2.777   9.081  17.557  0.00  0.00    +0.000 OA
ATOM     10  N   UNL     1       1.288   8.502  19.211  0.00  0.00    +0.000 N 
ATOM     11  C   UNL     1       2.226   5.770  19.003  0.00  0.00    +0.000 C 
ATOM     12  C   UNL     1       3.277   5.135  19.943  0.00  0.00    +0.000 C 
ATOM     13  H   UNL     1       5.772   3.643  20.279  0.00  0.00    +0.000 HD
ATOM     14  H   UNL     1       1.221   7.880  20.000  0.00  0.00    +0.000 HD
ENDROOT
BRANCH  10  15
ATOM     15  C   UNL     1       0.679   9.771  19.379  0.00  0.00    +0.000 A 
ATOM     16  C   UNL     1       1.050  10.657  20.395  0.00  0.00    +0.000 A 
ATOM     17  C   UNL     1       0.357  11.850  20.601  0.00  0.00    +0.000 A 
ATOM     18  C   UNL     1      -0.712  12.176  19.780  0.00  0.00    +0.000 A 
ATOM     19  C   UNL     1      -1.067  11.317  18.741  0.00  0.00    +0.000 A 
ATOM     20 CL   UNL     1      -2.410  11.713  17.739  0.00  0.00    +0.000 Cl
ATOM     21  C   UNL     1      -0.367  10.127  18.524  0.00  0.00    +0.000 A 
ENDBRANCH  10  15
BRANCH   1  22
ATOM     22  C   UNL     1       7.055   5.825  16.633  0.00  0.00    +0.000 C 
ATOM     23  O   UNL     1       7.516   5.074  15.785  0.00  0.00    +0.000 OA
BRANCH  22  24
ATOM     24  O   UNL     1       7.349   7.163  16.718  0.00  0.00    +0.000 OA
BRANCH  24  26
ATOM     25  C   UNL     1       8.117   9.083  17.908  0.00  0.00    +0.000 C 
ATOM     26  C   UNL     1       7.881   7.584  17.973  0.00  0.00    +0.000 C 
ENDBRANCH  24  26
ENDBRANCH  22  24
ENDBRANCH   1  22
TORSDOF 4
ENDMDL
MODEL 3
REMARK VINA RESULT:      -7.7      2.133      2.674
REMARK  Name = 
REMARK  5 active torsions:
REMARK  status: ('A' for Active; 'I' for Inactive)
REMARK    1  A    between atoms: C_1  and  C_2
REMARK    2  A    between atoms: C_2  and  O_3
REMARK    3  A    between atoms: O_3  and  C_4
REMARK    4  A    between atoms: C_4  and  C_6
REMARK    5  A    between atoms: N_15  and  C_16
REMARK                            x       y       z     vdW  Elec       q    Type
REMARK                         _______ _______ _______ _____ _____    ______ ____
ROOT
ATOM      1  C   UNL     1       6.665   4.666  16.069  0.00  0.00    +0.000 A 
ATOM      2  N   UNL     1       7.838   4.273  16.613  0.00  0.00    +0.000 NA
ATOM      3  N   UNL     1       7.639   4.306  17.939  0.00  0.00    +0.000 N 
ATOM      4  C   UNL     1       6.371   4.648  18.271  0.00  0.00    +0.000 A 
ATOM      5  C   UNL     1       5.695   4.876  17.091  0.00  0.00    +0.000 A 
ATOM      6  C   UNL     1       4.251   5.243  17.034  0.00  0.00    +0.000 C 
ATOM      7  N   UNL     1       3.799   5.623  18.397  0.00  0.00    +0.000 N 
ATOM      8  C   UNL     1       2.918   6.681  18.479  0.00  0.00    +0.000 C 
ATOM      9  O   UNL     1       2.518   7.224  17.444  0.00  0.00    +0.000 OA
ATOM     10  N   UNL     1       2.563   7.094  19.740  0.00  0.00    +0.000 N 
ATOM     11  C   UNL     1       4.256   4.757  19.506  0.00  0.00    +0.000 C 
ATOM     12  C   UNL     1       5.797   4.781  19.633  0.00  0.00    +0.000 C 
ATOM     13  H   UNL     1       8.419   4.074  18.543  0.00  0.00    +0.000 HD
ATOM     14  H   UNL     1       3.197   6.850  20.482  0.00  0.00    +0.000 HD
ENDROOT
BRANCH  10  15
ATOM     15  C   UNL     1       1.688   8.175  20.014  0.00  0.00    +0.000 A 
ATOM     16  C   UNL     1       1.380   9.156  19.064  0.00  0.00    +0.000 A 
ATOM     17  C   UNL     1       0.604  10.266  19.399  0.00  0.00    +0.000 A 
ATOM     18  C   UNL     1       0.114  10.400  20.689  0.00  0.00    +0.000 A 
ATOM     19  C   UNL     1       0.384   9.411  21.633  0.00  0.00    +0.000 A 
ATOM     20 CL   UNL     1      -0.204   9.592  23.241  0.00  0.00    +0.000 Cl
ATOM     21  C   UNL     1       1.151   8.291  21.299  0.00  0.00    +0.000 A 
ENDBRANCH  10  15
BRANCH   1  22
ATOM     22  C   UNL     1       6.484   4.776  14.610  0.00  0.00    +0.000 C 
ATOM     23  O   UNL     1       6.569   5.830  13.995  0.00  0.00    +0.000 OA
BRANCH  22  24
ATOM     24  O   UNL     1       6.102   3.584  14.046  0.00  0.00    +0.000 OA
BRANCH  24  26
ATOM     25  C   UNL     1       4.937   3.297  11.984  0.00  0.00    +0.000 C 
ATOM     26  C   UNL     1       6.295   3.497  12.635  0.00  0.00    +0.000 C 
ENDBRANCH  24  26
ENDBRANCH  22  24
ENDBRANCH   1  22
TORSDOF 4
ENDMDL
MODEL 4
REMARK VINA RESULT:      -7.6      1.622      2.278
REMARK  Name = 
REMARK  5 active torsions:
REMARK  status: ('A' for Active; 'I' for Inactive)
REMARK    1  A    between atoms: C_1  and  C_2
REMARK    2  A    between atoms: C_2  and  O_3
REMARK    3  A    between atoms: O_3  and  C_4
REMARK    4  A    between atoms: C_4  and  C_6
REMARK    5  A    between atoms: N_15  and  C_16
REMARK                            x       y       z     vdW  Elec       q    Type
REMARK                         _______ _______ _______ _____ _____    ______ ____
ROOT
ATOM      1  C   UNL     1       6.137   5.380  17.594  0.00  0.00    +0.000 A 
ATOM      2  N   UNL     1       6.690   4.280  18.152  0.00  0.00    +0.000 NA
ATOM      3  N   UNL     1       5.795   3.857  19.056  0.00  0.00    +0.000 N 
ATOM      4  C   UNL     1       4.664   4.602  19.064  0.00  0.00    +0.000 A 
ATOM      5  C   UNL     1       4.831   5.593  18.120  0.00  0.00    +0.000 A 
ATOM      6  C   UNL     1       3.782   6.604  17.802  0.00  0.00    +0.000 C 
ATOM      7  N   UNL     1       2.736   6.557  18.855  0.00  0.00    +0.000 N 
ATOM      8  C   UNL     1       2.204   7.767  19.248  0.00  0.00    +0.000 C 
ATOM      9  O   UNL     1       2.577   8.806  18.695  0.00  0.00    +0.000 OA
ATOM     10  N   UNL     1       1.299   7.739  20.281  0.00  0.00    +0.000 N 
ATOM     11  C   UNL     1       2.300   5.210  19.286  0.00  0.00    +0.000 C 
ATOM     12  C   UNL     1       3.468   4.424  19.924  0.00  0.00    +0.000 C 
ATOM     13  H   UNL     1       6.033   3.048  19.619  0.00  0.00    +0.000 HD
ATOM     14  H   UNL     1       1.340   6.936  20.886  0.00  0.00    +0.000 HD
ENDROOT
BRANCH  10  15
ATOM     15  C   UNL     1       0.670   8.886  20.829  0.00  0.00    +0.000 A 
ATOM     16  C   UNL     1       0.603   9.124  22.206  0.00  0.00    +0.000 A 
ATOM     17  C   UNL     1      -0.118  10.203  22.717  0.00  0.00    +0.000 A 
ATOM     18  C   UNL     1      -0.772  11.067  21.851  0.00  0.00    +0.000 A 
ATOM     19  C   UNL     1      -0.681  10.860  20.475  0.00  0.00    +0.000 A 
ATOM     20 CL   UNL     1      -1.514  11.919  19.404  0.00  0.00    +0.000 Cl
ATOM     21  C   UNL     1       0.051   9.786  19.959  0.00  0.00    +0.000 A 
ENDBRANCH  10  15
BRANCH   1  22
ATOM     22  C   UNL     1       6.833   6.153  16.550  0.00  0.00    +0.000 C 
ATOM     23  O   UNL     1       7.294   5.655  15.532  0.00  0.00    +0.000 OA
BRANCH  22  24
ATOM     24  O   UNL     1       7.000   7.468  16.906  0.00  0.00    +0.000 OA
BRANCH  24  26
ATOM     25  C   UNL     1       8.257   9.167  18.015  0.00  0.00    +0.000 C 
ATOM     26  C   UNL     1       7.908   7.689  17.985  0.00  0.00    +0.000 C 
ENDBRANCH  24  26
ENDBRANCH  22  24
ENDBRANCH   1  22
TORSDOF 4
ENDMDL
MODEL 5
REMARK VINA RESULT:      -7.6      1.121      1.487
REMARK  Name = 
REMARK  5 active torsions:
REMARK  status: ('A' for Active; 'I' for Inactive)
REMARK    1  A    between atoms: C_1  and  C_2
REMARK    2  A    between atoms: C_2  and  O_3
REMARK    3  A    between atoms: O_3  and  C_4
REMARK    4  A    between atoms: C_4  and  C_6
REMARK    5  A    between atoms: N_15  and  C_16
REMARK                            x       y       z     vdW  Elec       q    Type
REMARK                         _______ _______ _______ _____ _____    ______ ____
ROOT
ATOM      1  C   UNL     1       6.334   5.395  17.817  0.00  0.00    +0.000 A 
ATOM      2  N   UNL     1       6.747   4.507  18.749  0.00  0.00    +0.000 NA
ATOM      3  N   UNL     1       5.717   4.386  19.599  0.00  0.00    +0.000 N 
ATOM      4  C   UNL     1       4.638   5.112  19.223  0.00  0.00    +0.000 A 
ATOM      5  C   UNL     1       4.983   5.772  18.062  0.00  0.00    +0.000 A 
ATOM      6  C   UNL     1       4.042   6.653  17.312  0.00  0.00    +0.000 C 
ATOM      7  N   UNL     1       2.864   6.936  18.169  0.00  0.00    +0.000 N 
ATOM      8  C   UNL     1       2.351   8.215  18.105  0.00  0.00    +0.000 C 
ATOM      9  O   UNL     1       2.850   9.035  17.329  0.00  0.00    +0.000 OA
ATOM     10  N   UNL     1       1.315   8.510  18.959  0.00  0.00    +0.000 N 
ATOM     11  C   UNL     1       2.301   5.787  18.912  0.00  0.00    +0.000 C 
ATOM     12  C   UNL     1       3.329   5.215  19.916  0.00  0.00    +0.000 C 
ATOM     13  H   UNL     1       5.834   3.782  20.404  0.00  0.00    +0.000 HD
ATOM     14  H   UNL     1       1.232   7.925  19.774  0.00  0.00    +0.000 HD
ENDROOT
BRANCH  10  15
ATOM     15  C   UNL     1       0.682   9.775  19.046  0.00  0.00    +0.000 A 
ATOM     16  C   UNL     1      -0.428  10.118  18.266  0.00  0.00    +0.000 A 
ATOM     17  C   UNL     1      -0.960  11.407  18.296  0.00  0.00    +0.000 A 
ATOM     18  C   UNL     1      -0.392  12.368  19.119  0.00  0.00    +0.000 A 
ATOM     19  C   UNL     1       0.692  12.027  19.927  0.00  0.00    +0.000 A 
ATOM     20 CL   UNL     1       1.410  13.227  20.930  0.00  0.00    +0.000 Cl
ATOM     21  C   UNL     1       1.220  10.732  19.910  0.00  0.00    +0.000 A 
ENDBRANCH  10  15
BRANCH   1  22
ATOM     22  C   UNL     1       7.205   5.810  16.702  0.00  0.00    +0.000 C 
ATOM     23  O   UNL     1       7.537   6.970  16.498  0.00  0.00    +0.000 OA
BRANCH  22  24
ATOM     24  O   UNL     1       7.503   4.766  15.863  0.00  0.00    +0.000 OA
BRANCH  24  26
ATOM     25  C   UNL     1       5.604   4.314  14.490  0.00  0.00    +0.000 C 
ATOM     26  C   UNL     1       7.004   4.901  14.533  0.00  0.00    +0.000 C 
ENDBRANCH  24  26
ENDBRANCH  22  24
ENDBRANCH   1  22
TORSDOF 4
ENDMDL
MODEL 6
REMARK VINA RESULT:      -7.6      4.057      6.028
REMARK  Name = 
REMARK  5 active torsions:
REMARK  status: ('A' for Active; 'I' for Inactive)
REMARK    1  A    between atoms: C_1  and  C_2
REMARK    2  A    between atoms: C_2  and  O_3
REMARK    3  A    between atoms: O_3  and  C_4
REMARK    4  A    between atoms: C_4  and  C_6
REMARK    5  A    between atoms: N_15  and  C_16
REMARK                            x       y       z     vdW  Elec       q    Type
REMARK                         _______ _______ _______ _____ _____    ______ ____
ROOT
ATOM      1  C   UNL     1       6.323   3.797  12.664  0.00  0.00    +0.000 A 
ATOM      2  N   UNL     1       7.285   4.590  12.142  0.00  0.00    +0.000 NA
ATOM      3  N   UNL     1       7.769   5.285  13.181  0.00  0.00    +0.000 N 
ATOM      4  C   UNL     1       7.202   4.933  14.359  0.00  0.00    +0.000 A 
ATOM      5  C   UNL     1       6.268   3.958  14.078  0.00  0.00    +0.000 A 
ATOM      6  C   UNL     1       5.450   3.284  15.127  0.00  0.00    +0.000 C 
ATOM      7  N   UNL     1       5.576   4.045  16.396  0.00  0.00    +0.000 N 
ATOM      8  C   UNL     1       4.432   4.161  17.158  0.00  0.00    +0.000 C 
ATOM      9  O   UNL     1       3.392   3.607  16.788  0.00  0.00    +0.000 OA
ATOM     10  N   UNL     1       4.519   4.935  18.290  0.00  0.00    +0.000 N 
ATOM     11  C   UNL     1       6.937   4.498  16.757  0.00  0.00    +0.000 C 
ATOM     12  C   UNL     1       7.493   5.486  15.705  0.00  0.00    +0.000 C 
ATOM     13  H   UNL     1       8.490   5.974  12.998  0.00  0.00    +0.000 HD
ATOM     14  H   UNL     1       5.262   5.615  18.307  0.00  0.00    +0.000 HD
ENDROOT
BRANCH  10  15
ATOM     15  C   UNL     1       3.442   5.183  19.178  0.00  0.00    +0.000 A 
ATOM     16  C   UNL     1       2.908   6.461  19.377  0.00  0.00    +0.000 A 
ATOM     17  C   UNL     1       1.923   6.689  20.338  0.00  0.00    +0.000 A 
ATOM     18  C   UNL     1       1.451   5.634  21.105  0.00  0.00    +0.000 A 
ATOM     19  C   UNL     1       1.951   4.350  20.890  0.00  0.00    +0.000 A 
ATOM     20 CL   UNL     1       1.382   3.047  21.860  0.00  0.00    +0.000 Cl
ATOM     21  C   UNL     1       2.929   4.116  19.919  0.00  0.00    +0.000 A 
ENDBRANCH  10  15
BRANCH   1  22
ATOM     22  C   UNL     1       5.532   2.880  11.823  0.00  0.00    +0.000 C 
ATOM     23  O   UNL     1       6.001   1.892  11.273  0.00  0.00    +0.000 OA
BRANCH  22  24
ATOM     24  O   UNL     1       4.246   3.325  11.642  0.00  0.00    +0.000 OA
BRANCH  24  26
ATOM     25  C   UNL     1       3.027   4.148   9.763  0.00  0.00    +0.000 C 
ATOM     26  C   UNL     1       3.637   2.920  10.416  0.00  0.00    +0.000 C 
ENDBRANCH  24  26
ENDBRANCH  22  24
ENDBRANCH   1  22
TORSDOF 4
ENDMDL
MODEL 7
REMARK VINA RESULT:      -7.5      1.443      2.291
REMARK  Name = 
REMARK  5 active torsions:
REMARK  status: ('A' for Active; 'I' for Inactive)
REMARK    1  A    between atoms: C_1  and  C_2
REMARK    2  A    between atoms: C_2  and  O_3
REMARK    3  A    between atoms: O_3  and  C_4
REMARK    4  A    between atoms: C_4  and  C_6
REMARK    5  A    between atoms: N_15  and  C_16
REMARK                            x       y       z     vdW  Elec       q    Type
REMARK                         _______ _______ _______ _____ _____    ______ ____
ROOT
ATOM      1  C   UNL     1       6.220   5.417  17.784  0.00  0.00    +0.000 A 
ATOM      2  N   UNL     1       6.632   4.515  18.703  0.00  0.00    +0.000 NA
ATOM      3  N   UNL     1       5.607   4.393  19.559  0.00  0.00    +0.000 N 
ATOM      4  C   UNL     1       4.531   5.132  19.198  0.00  0.00    +0.000 A 
ATOM      5  C   UNL     1       4.874   5.802  18.043  0.00  0.00    +0.000 A 
ATOM      6  C   UNL     1       3.935   6.698  17.309  0.00  0.00    +0.000 C 
ATOM      7  N   UNL     1       2.764   6.981  18.178  0.00  0.00    +0.000 N 
ATOM      8  C   UNL     1       2.262   8.265  18.132  0.00  0.00    +0.000 C 
ATOM      9  O   UNL     1       2.762   9.089  17.362  0.00  0.00    +0.000 OA
ATOM     10  N   UNL     1       1.234   8.558  18.997  0.00  0.00    +0.000 N 
ATOM     11  C   UNL     1       2.198   5.828  18.912  0.00  0.00    +0.000 C 
ATOM     12  C   UNL     1       3.229   5.237  19.902  0.00  0.00    +0.000 C 
ATOM     13  H   UNL     1       5.725   3.778  20.356  0.00  0.00    +0.000 HD
ATOM     14  H   UNL     1       1.152   7.964  19.805  0.00  0.00    +0.000 HD
ENDROOT
BRANCH  10  15
ATOM     15  C   UNL     1       0.611   9.827  19.102  0.00  0.00    +0.000 A 
ATOM     16  C   UNL     1      -0.502  10.186  18.336  0.00  0.00    +0.000 A 
ATOM     17  C   UNL     1      -1.024  11.479  18.384  0.00  0.00    +0.000 A 
ATOM     18  C   UNL     1      -0.441  12.427  19.212  0.00  0.00    +0.000 A 
ATOM     19  C   UNL     1       0.647  12.069  20.007  0.00  0.00    +0.000 A 
ATOM     20 CL   UNL     1       1.384  13.254  21.015  0.00  0.00    +0.000 Cl
ATOM     21  C   UNL     1       1.164  10.771  19.971  0.00  0.00    +0.000 A 
ENDBRANCH  10  15
BRANCH   1  22
ATOM     22  C   UNL     1       7.086   5.838  16.667  0.00  0.00    +0.000 C 
ATOM     23  O   UNL     1       7.569   5.061  15.854  0.00  0.00    +0.000 OA
BRANCH  22  24
ATOM     24  O   UNL     1       7.376   7.179  16.716  0.00  0.00    +0.000 OA
BRANCH  24  26
ATOM     25  C   UNL     1       8.117   9.135  17.865  0.00  0.00    +0.000 C 
ATOM     26  C   UNL     1       7.942   7.628  17.947  0.00  0.00    +0.000 C 
ENDBRANCH  24  26
ENDBRANCH  22  24
ENDBRANCH   1  22
TORSDOF 4
ENDMDL
MODEL 8
REMARK VINA RESULT:      -7.5      0.998      1.040
REMARK  Name = 
REMARK  5 active torsions:
REMARK  status: ('A' for Active; 'I' for Inactive)
REMARK    1  A    between atoms: C_1  and  C_2
REMARK    2  A    between atoms: C_2  and  O_3
REMARK    3  A    between atoms: O_3  and  C_4
REMARK    4  A    between atoms: C_4  and  C_6
REMARK    5  A    between atoms: N_15  and  C_16
REMARK                            x       y       z     vdW  Elec       q    Type
REMARK                         _______ _______ _______ _____ _____    ______ ____
ROOT
ATOM      1  C   UNL     1       6.184   5.500  17.591  0.00  0.00    +0.000 A 
ATOM      2  N   UNL     1       6.715   4.454  18.261  0.00  0.00    +0.000 NA
ATOM      3  N   UNL     1       5.789   4.110  19.168  0.00  0.00    +0.000 N 
ATOM      4  C   UNL     1       4.661   4.853  19.072  0.00  0.00    +0.000 A 
ATOM      5  C   UNL     1       4.861   5.758  18.052  0.00  0.00    +0.000 A 
ATOM      6  C   UNL     1       3.826   6.737  17.612  0.00  0.00    +0.000 C 
ATOM      7  N   UNL     1       2.745   6.781  18.630  0.00  0.00    +0.000 N 
ATOM      8  C   UNL     1       2.204   8.021  18.898  0.00  0.00    +0.000 C 
ATOM      9  O   UNL     1       2.597   9.008  18.269  0.00  0.00    +0.000 OA
ATOM     10  N   UNL     1       1.264   8.083  19.899  0.00  0.00    +0.000 N 
ATOM     11  C   UNL     1       2.292   5.477  19.162  0.00  0.00    +0.000 C 
ATOM     12  C   UNL     1       3.436   4.750  19.905  0.00  0.00    +0.000 C 
ATOM     13  H   UNL     1       6.007   3.354  19.807  0.00  0.00    +0.000 HD
ATOM     14  H   UNL     1       1.284   7.335  20.572  0.00  0.00    +0.000 HD
ENDROOT
BRANCH  10  15
ATOM     15  C   UNL     1       0.620   9.272  20.323  0.00  0.00    +0.000 A 
ATOM     16  C   UNL     1       0.682   9.734  21.642  0.00  0.00    +0.000 A 
ATOM     17  C   UNL     1      -0.053  10.847  22.052  0.00  0.00    +0.000 A 
ATOM     18  C   UNL     1      -0.850  11.520  21.138  0.00  0.00    +0.000 A 
ATOM     19  C   UNL     1      -0.891  11.090  19.813  0.00  0.00    +0.000 A 
ATOM     20 CL   UNL     1      -1.901  11.912  18.687  0.00  0.00    +0.000 Cl
ATOM     21  C   UNL     1      -0.146   9.983  19.395  0.00  0.00    +0.000 A 
ENDBRANCH  10  15
BRANCH   1  22
ATOM     22  C   UNL     1       6.917   6.180  16.507  0.00  0.00    +0.000 C 
ATOM     23  O   UNL     1       7.820   6.983  16.699  0.00  0.00    +0.000 OA
BRANCH  22  24
ATOM     24  O   UNL     1       6.393   5.893  15.271  0.00  0.00    +0.000 OA
BRANCH  24  26
ATOM     25  C   UNL     1       5.948   3.918  14.007  0.00  0.00    +0.000 C 
ATOM     26  C   UNL     1       7.029   4.817  14.583  0.00  0.00    +0.000 C 
ENDBRANCH  24  26
ENDBRANCH  22  24
ENDBRANCH   1  22
TORSDOF 4
ENDMDL
MODEL 9
REMARK VINA RESULT:      -7.5      3.628      5.635
REMARK  Name = 
REMARK  5 active torsions:
REMARK  status: ('A' for Active; 'I' for Inactive)
REMARK    1  A    between atoms: C_1  and  C_2
REMARK    2  A    between atoms: C_2  and  O_3
REMARK    3  A    between atoms: O_3  and  C_4
REMARK    4  A    between atoms: C_4  and  C_6
REMARK    5  A    between atoms: N_15  and  C_16
REMARK                            x       y       z     vdW  Elec       q    Type
REMARK                         _______ _______ _______ _____ _____    ______ ____
ROOT
ATOM      1  C   UNL     1       6.533   4.013  12.905  0.00  0.00    +0.000 A 
ATOM      2  N   UNL     1       7.498   4.830  12.427  0.00  0.00    +0.000 NA
ATOM      3  N   UNL     1       7.952   5.500  13.496  0.00  0.00    +0.000 N 
ATOM      4  C   UNL     1       7.362   5.108  14.651  0.00  0.00    +0.000 A 
ATOM      5  C   UNL     1       6.445   4.132  14.321  0.00  0.00    +0.000 A 
ATOM      6  C   UNL     1       5.611   3.419  15.331  0.00  0.00    +0.000 C 
ATOM      7  N   UNL     1       5.701   4.144  16.624  0.00  0.00    +0.000 N 
ATOM      8  C   UNL     1       4.539   4.227  17.363  0.00  0.00    +0.000 C 
ATOM      9  O   UNL     1       3.514   3.674  16.954  0.00  0.00    +0.000 OA
ATOM     10  N   UNL     1       4.593   4.969  18.519  0.00  0.00    +0.000 N 
ATOM     11  C   UNL     1       7.049   4.601  17.029  0.00  0.00    +0.000 C 
ATOM     12  C   UNL     1       7.617   5.624  16.018  0.00  0.00    +0.000 C 
ATOM     13  H   UNL     1       8.669   6.201  13.349  0.00  0.00    +0.000 HD
ATOM     14  H   UNL     1       5.327   5.655  18.572  0.00  0.00    +0.000 HD
ENDROOT
BRANCH  10  15
ATOM     15  C   UNL     1       3.494   5.180  19.389  0.00  0.00    +0.000 A 
ATOM     16  C   UNL     1       2.812   4.129  20.010  0.00  0.00    +0.000 A 
ATOM     17  C   UNL     1       1.666   4.363  20.773  0.00  0.00    +0.000 A 
ATOM     18  C   UNL     1       1.198   5.659  20.932  0.00  0.00    +0.000 A 
ATOM     19  C   UNL     1       1.891   6.717  20.347  0.00  0.00    +0.000 A 
ATOM     20 CL   UNL     1       1.294   8.321  20.526  0.00  0.00    +0.000 Cl
ATOM     21  C   UNL     1       3.046   6.488  19.593  0.00  0.00    +0.000 A 
ENDBRANCH  10  15
BRANCH   1  22
ATOM     22  C   UNL     1       5.772   3.112  12.020  0.00  0.00    +0.000 C 
ATOM     23  O   UNL     1       6.277   2.188  11.397  0.00  0.00    +0.000 OA
BRANCH  22  24
ATOM     24  O   UNL     1       4.462   3.500  11.892  0.00  0.00    +0.000 OA
BRANCH  24  26
ATOM     25  C   UNL     1       3.139   3.916   9.950  0.00  0.00    +0.000 C 
ATOM     26  C   UNL     1       3.740   2.848  10.848  0.00  0.00    +0.000 C 
ENDBRANCH  24  26
ENDBRANCH  22  24
ENDBRANCH   1  22
TORSDOF 4
ENDMDL
