MODEL 1
REMARK VINA RESULT:      -7.7      0.000      0.000
REMARK  Name = 
REMARK  9 active torsions:
REMARK  status: ('A' for Active; 'I' for Inactive)
REMARK    1  A    between atoms: C_1  and  C_2
REMARK    2  A    between atoms: C_2  and  C_3
REMARK    3  A    between atoms: C_3  and  N_4
REMARK    4  A    between atoms: C_8  and  C_9
REMARK    5  A    between atoms: N_11  and  C_12
REMARK    6  A    between atoms: N_15  and  C_16
REMARK    7  A    between atoms: C_16  and  C_17
REMARK    8  A    between atoms: C_18  and  C_19
REMARK    9  A    between atoms: C_21  and  C_22
REMARK                            x       y       z     vdW  Elec       q    Type
REMARK                         _______ _______ _______ _____ _____    ______ ____
ROOT
ATOM      1  N   UNL     1       5.846   5.492  16.673  0.00  0.00    +0.000 N 
ATOM      2  N   UNL     1       6.204   6.800  16.615  0.00  0.00    +0.000 NA
ATOM      3  C   UNL     1       5.122   7.438  17.066  0.00  0.00    +0.000 A 
ATOM      4  C   UNL     1       4.070   6.559  17.408  0.00  0.00    +0.000 A 
ATOM      5  C   UNL     1       2.765   6.646  17.904  0.00  0.00    +0.000 A 
ATOM      6  C   UNL     1       2.065   5.448  18.099  0.00  0.00    +0.000 A 
ATOM      7  C   UNL     1       2.674   4.219  17.814  0.00  0.00    +0.000 A 
ATOM      8  N   UNL     1       3.944   4.120  17.343  0.00  0.00    +0.000 NA
ATOM      9  C   UNL     1       4.577   5.295  17.155  0.00  0.00    +0.000 A 
ENDROOT
BRANCH   5  10
ATOM     10  C   UNL     1       2.186   7.982  18.171  0.00  0.00    +0.000 C 
ATOM     11  O   UNL     1       2.230   8.827  17.285  0.00  0.00    +0.000 OA
ATOM     12  N   UNL     1       1.671   8.166  19.438  0.00  0.00    +0.000 N 
ATOM     13  H   UNL     1       1.741   7.429  20.125  0.00  0.00    +0.000 HD
BRANCH  12  14
ATOM     14  C   UNL     1       1.145   9.367  19.883  0.00  0.00    +0.000 A 
ATOM     15  C   UNL     1       1.327  10.684  19.419  0.00  0.00    +0.000 A 
ATOM     16  N   UNL     1       0.647  11.575  20.144  0.00  0.00    +0.000 NA
ATOM     17  N   UNL     1       0.020  10.829  21.074  0.00  0.00    +0.000 N 
ATOM     18  C   UNL     1       0.278   9.480  20.954  0.00  0.00    +0.000 A 
ATOM     19  C   UNL     1      -0.292   8.420  21.823  0.00  0.00    +0.000 C 
BRANCH  17  20
ATOM     20  C   UNL     1      -0.840  11.520  22.018  0.00  0.00    +0.000 C 
ATOM     21  C   UNL     1      -1.413  12.810  21.458  0.00  0.00    +0.000 C 
ENDBRANCH  17  20
ENDBRANCH  12  14
ENDBRANCH   5  10
BRANCH   7  22
ATOM     22  C   UNL     1       1.924   2.927  18.075  0.00  0.00    +0.000 C 
ATOM     23  C   UNL     1       2.154   2.128  19.338  0.00  0.00    +0.000 C 
ATOM     24  C   UNL     1       0.871   2.881  19.159  0.00  0.00    +0.000 C 
ENDBRANCH   7  22
BRANCH   1  25
ATOM     25  C   UNL     1       6.772   4.486  16.197  0.00  0.00    +0.000 C 
BRANCH  25  27
ATOM     26  C   UNL     1       5.962   3.955  13.871  0.00  0.00    +0.000 C 
ATOM     27  C   UNL     1       7.054   4.608  14.700  0.00  0.00    +0.000 C 
ENDBRANCH  25  27
ENDBRANCH   1  25
TORSDOF 6
ENDMDL
MODEL 2
REMARK VINA RESULT:      -7.7      1.719      1.741
REMARK  Name = 
REMARK  9 active torsions:
REMARK  status: ('A' for Active; 'I' for Inactive)
REMARK    1  A    between atoms: C_1  and  C_2
REMARK    2  A    between atoms: C_2  and  C_3
REMARK    3  A    between atoms: C_3  and  N_4
REMARK    4  A    between atoms: C_8  and  C_9
REMARK    5  A    between atoms: N_11  and  C_12
REMARK    6  A    between atoms: N_15  and  C_16
REMARK    7  A    between atoms: C_16  and  C_17
REMARK    8  A    between atoms: C_18  and  C_19
REMARK    9  A    between atoms: C_21  and  C_22
REMARK                            x       y       z     vdW  Elec       q    Type
REMARK                         _______ _______ _______ _____ _____    ______ ____
ROOT
ATOM      1  N   UNL     1       5.778   5.398  16.496  0.00  0.00    +0.000 N 
ATOM      2  N   UNL     1       6.189   6.689  16.585  0.00  0.00    +0.000 NA
ATOM      3  C   UNL     1       5.188   7.290  17.232  0.00  0.00    +0.000 A 
ATOM      4  C   UNL     1       4.135   6.405  17.555  0.00  0.00    +0.000 A 
ATOM      5  C   UNL     1       2.891   6.462  18.192  0.00  0.00    +0.000 A 
ATOM      6  C   UNL     1       2.158   5.271  18.289  0.00  0.00    +0.000 A 
ATOM      7  C   UNL     1       2.678   4.077  17.772  0.00  0.00    +0.000 A 
ATOM      8  N   UNL     1       3.889   4.007  17.162  0.00  0.00    +0.000 NA
ATOM      9  C   UNL     1       4.554   5.176  17.076  0.00  0.00    +0.000 A 
ENDROOT
BRANCH   5  10
ATOM     10  C   UNL     1       2.404   7.763  18.703  0.00  0.00    +0.000 C 
ATOM     11  O   UNL     1       2.144   7.863  19.896  0.00  0.00    +0.000 OA
ATOM     12  N   UNL     1       2.250   8.755  17.756  0.00  0.00    +0.000 N 
ATOM     13  H   UNL     1       2.428   8.556  16.782  0.00  0.00    +0.000 HD
BRANCH  12  14
ATOM     14  C   UNL     1       1.750  10.014  18.041  0.00  0.00    +0.000 A 
ATOM     15  C   UNL     1       2.406  11.230  18.314  0.00  0.00    +0.000 A 
ATOM     16  N   UNL     1       1.550  12.223  18.561  0.00  0.00    +0.000 NA
ATOM     17  N   UNL     1       0.338  11.648  18.440  0.00  0.00    +0.000 N 
ATOM     18  C   UNL     1       0.401  10.310  18.114  0.00  0.00    +0.000 A 
ATOM     19  C   UNL     1      -0.772   9.428  17.894  0.00  0.00    +0.000 C 
BRANCH  17  20
ATOM     20  C   UNL     1      -0.827  12.494  18.627  0.00  0.00    +0.000 C 
ATOM     21  C   UNL     1      -0.472  13.966  18.748  0.00  0.00    +0.000 C 
ENDBRANCH  17  20
ENDBRANCH  12  14
ENDBRANCH   5  10
BRANCH   7  22
ATOM     22  C   UNL     1       1.898   2.786  17.926  0.00  0.00    +0.000 C 
ATOM     23  C   UNL     1       2.012   1.945  19.177  0.00  0.00    +0.000 C 
ATOM     24  C   UNL     1       0.755   2.717  18.914  0.00  0.00    +0.000 C 
ENDBRANCH   7  22
BRANCH   1  25
ATOM     25  C   UNL     1       6.604   4.442  15.789  0.00  0.00    +0.000 C 
BRANCH  25  27
ATOM     26  C   UNL     1       5.974   3.783  13.440  0.00  0.00    +0.000 C 
ATOM     27  C   UNL     1       6.741   4.770  14.303  0.00  0.00    +0.000 C 
ENDBRANCH  25  27
ENDBRANCH   1  25
TORSDOF 6
ENDMDL
MODEL 3
REMARK VINA RESULT:      -7.6      1.023      1.359
REMARK  Name = 
REMARK  9 active torsions:
REMARK  status: ('A' for Active; 'I' for Inactive)
REMARK    1  A    between atoms: C_1  and  C_2
REMARK    2  A    between atoms: C_2  and  C_3
REMARK    3  A    between atoms: C_3  and  N_4
REMARK    4  A    between atoms: C_8  and  C_9
REMARK    5  A    between atoms: N_11  and  C_12
REMARK    6  A    between atoms: N_15  and  C_16
REMARK    7  A    between atoms: C_16  and  C_17
REMARK    8  A    between atoms: C_18  and  C_19
REMARK    9  A    between atoms: C_21  and  C_22
REMARK                            x       y       z     vdW  Elec       q    Type
REMARK                         _______ _______ _______ _____ _____    ______ ____
ROOT
ATOM      1  N   UNL     1       5.500   4.948  16.036  0.00  0.00    +0.000 N 
ATOM      2  N   UNL     1       5.949   6.228  15.986  0.00  0.00    +0.000 NA
ATOM      3  C   UNL     1       5.075   6.894  16.745  0.00  0.00    +0.000 A 
ATOM      4  C   UNL     1       4.066   6.061  17.277  0.00  0.00    +0.000 A 
ATOM      5  C   UNL     1       2.939   6.190  18.095  0.00  0.00    +0.000 A 
ATOM      6  C   UNL     1       2.203   5.030  18.373  0.00  0.00    +0.000 A 
ATOM      7  C   UNL     1       2.609   3.794  17.852  0.00  0.00    +0.000 A 
ATOM      8  N   UNL     1       3.708   3.654  17.067  0.00  0.00    +0.000 NA
ATOM      9  C   UNL     1       4.378   4.795  16.811  0.00  0.00    +0.000 A 
ENDROOT
BRANCH   5  10
ATOM     10  C   UNL     1       2.567   7.532  18.600  0.00  0.00    +0.000 C 
ATOM     11  O   UNL     1       3.047   8.517  18.051  0.00  0.00    +0.000 OA
ATOM     12  N   UNL     1       1.723   7.545  19.691  0.00  0.00    +0.000 N 
ATOM     13  H   UNL     1       1.432   6.676  20.117  0.00  0.00    +0.000 HD
BRANCH  12  14
ATOM     14  C   UNL     1       1.319   8.704  20.331  0.00  0.00    +0.000 A 
ATOM     15  C   UNL     1       1.508   9.142  21.657  0.00  0.00    +0.000 A 
ATOM     16  N   UNL     1       0.937  10.326  21.885  0.00  0.00    +0.000 NA
ATOM     17  N   UNL     1       0.385  10.657  20.701  0.00  0.00    +0.000 N 
ATOM     18  C   UNL     1       0.596   9.713  19.720  0.00  0.00    +0.000 A 
ATOM     19  C   UNL     1       0.126   9.818  18.316  0.00  0.00    +0.000 C 
BRANCH  17  20
ATOM     20  C   UNL     1      -0.301  11.933  20.616  0.00  0.00    +0.000 C 
ATOM     21  C   UNL     1       0.602  13.057  20.139  0.00  0.00    +0.000 C 
ENDBRANCH  17  20
ENDBRANCH  12  14
ENDBRANCH   5  10
BRANCH   7  22
ATOM     22  C   UNL     1       1.834   2.539  18.199  0.00  0.00    +0.000 C 
ATOM     23  C   UNL     1       1.755   2.033  19.622  0.00  0.00    +0.000 C 
ATOM     24  C   UNL     1       0.547   2.649  18.985  0.00  0.00    +0.000 C 
ENDBRANCH   7  22
BRANCH   1  25
ATOM     25  C   UNL     1       6.184   3.931  15.267  0.00  0.00    +0.000 C 
BRANCH  25  27
ATOM     26  C   UNL     1       6.068   3.509  12.785  0.00  0.00    +0.000 C 
ATOM     27  C   UNL     1       6.595   4.421  13.879  0.00  0.00    +0.000 C 
ENDBRANCH  25  27
ENDBRANCH   1  25
TORSDOF 6
ENDMDL
MODEL 4
REMARK VINA RESULT:      -7.4      1.206      1.492
REMARK  Name = 
REMARK  9 active torsions:
REMARK  status: ('A' for Active; 'I' for Inactive)
REMARK    1  A    between atoms: C_1  and  C_2
REMARK    2  A    between atoms: C_2  and  C_3
REMARK    3  A    between atoms: C_3  and  N_4
REMARK    4  A    between atoms: C_8  and  C_9
REMARK    5  A    between atoms: N_11  and  C_12
REMARK    6  A    between atoms: N_15  and  C_16
REMARK    7  A    between atoms: C_16  and  C_17
REMARK    8  A    between atoms: C_18  and  C_19
REMARK    9  A    between atoms: C_21  and  C_22
REMARK                            x       y       z     vdW  Elec       q    Type
REMARK                         _______ _______ _______ _____ _____    ______ ____
ROOT
ATOM      1  N   UNL     1       5.247   5.231  16.434  0.00  0.00    +0.000 N 
ATOM      2  N   UNL     1       5.528   6.457  15.924  0.00  0.00    +0.000 NA
ATOM      3  C   UNL     1       4.638   7.253  16.521  0.00  0.00    +0.000 A 
ATOM      4  C   UNL     1       3.784   6.555  17.404  0.00  0.00    +0.000 A 
ATOM      5  C   UNL     1       2.715   6.844  18.258  0.00  0.00    +0.000 A 
ATOM      6  C   UNL     1       2.153   5.779  18.976  0.00  0.00    +0.000 A 
ATOM      7  C   UNL     1       2.669   4.483  18.838  0.00  0.00    +0.000 A 
ATOM      8  N   UNL     1       3.714   4.192  18.022  0.00  0.00    +0.000 NA
ATOM      9  C   UNL     1       4.215   5.241  17.338  0.00  0.00    +0.000 A 
ENDROOT
BRANCH   5  10
ATOM     10  C   UNL     1       2.218   8.236  18.342  0.00  0.00    +0.000 C 
ATOM     11  O   UNL     1       2.618   9.050  17.519  0.00  0.00    +0.000 OA
ATOM     12  N   UNL     1       1.358   8.499  19.388  0.00  0.00    +0.000 N 
ATOM     13  H   UNL     1       1.138   7.775  20.057  0.00  0.00    +0.000 HD
BRANCH  12  14
ATOM     14  C   UNL     1       0.843   9.756  19.657  0.00  0.00    +0.000 A 
ATOM     15  C   UNL     1       1.171  10.697  20.653  0.00  0.00    +0.000 A 
ATOM     16  N   UNL     1       0.417  11.795  20.581  0.00  0.00    +0.000 NA
ATOM     17  N   UNL     1      -0.396  11.565  19.531  0.00  0.00    +0.000 N 
ATOM     18  C   UNL     1      -0.172  10.347  18.926  0.00  0.00    +0.000 A 
ATOM     19  C   UNL     1      -0.898   9.836  17.737  0.00  0.00    +0.000 C 
BRANCH  17  20
ATOM     20  C   UNL     1      -1.337  12.610  19.172  0.00  0.00    +0.000 C 
ATOM     21  C   UNL     1      -1.595  13.586  20.306  0.00  0.00    +0.000 C 
ENDBRANCH  17  20
ENDBRANCH  12  14
ENDBRANCH   5  10
BRANCH   7  22
ATOM     22  C   UNL     1       2.085   3.349  19.656  0.00  0.00    +0.000 C 
ATOM     23  C   UNL     1       2.506   3.119  21.091  0.00  0.00    +0.000 C 
ATOM     24  C   UNL     1       1.139   3.659  20.795  0.00  0.00    +0.000 C 
ENDBRANCH   7  22
BRANCH   1  25
ATOM     25  C   UNL     1       5.993   4.083  15.962  0.00  0.00    +0.000 C 
BRANCH  25  27
ATOM     26  C   UNL     1       6.078   3.806  13.458  0.00  0.00    +0.000 C 
ATOM     27  C   UNL     1       6.774   4.377  14.682  0.00  0.00    +0.000 C 
ENDBRANCH  25  27
ENDBRANCH   1  25
TORSDOF 6
ENDMDL
MODEL 5
REMARK VINA RESULT:      -7.3      1.972      2.448
REMARK  Name = 
REMARK  9 active torsions:
REMARK  status: ('A' for Active; 'I' for Inactive)
REMARK    1  A    between atoms: C_1  and  C_2
REMARK    2  A    between atoms: C_2  and  C_3
REMARK    3  A    between atoms: C_3  and  N_4
REMARK    4  A    between atoms: C_8  and  C_9
REMARK    5  A    between atoms: N_11  and  C_12
REMARK    6  A    between atoms: N_15  and  C_16
REMARK    7  A    between atoms: C_16  and  C_17
REMARK    8  A    between atoms: C_18  and  C_19
REMARK    9  A    between atoms: C_21  and  C_22
REMARK                            x       y       z     vdW  Elec       q    Type
REMARK                         _______ _______ _______ _____ _____    ______ ____
ROOT
ATOM      1  N   UNL     1       5.232   5.546  17.538  0.00  0.00    +0.000 N 
ATOM      2  N   UNL     1       5.396   6.561  16.651  0.00  0.00    +0.000 NA
ATOM      3  C   UNL     1       4.397   7.396  16.946  0.00  0.00    +0.000 A 
ATOM      4  C   UNL     1       3.588   6.930  18.006  0.00  0.00    +0.000 A 
ATOM      5  C   UNL     1       2.456   7.352  18.711  0.00  0.00    +0.000 A 
ATOM      6  C   UNL     1       1.986   6.523  19.739  0.00  0.00    +0.000 A 
ATOM      7  C   UNL     1       2.650   5.326  20.041  0.00  0.00    +0.000 A 
ATOM      8  N   UNL     1       3.756   4.911  19.372  0.00  0.00    +0.000 NA
ATOM      9  C   UNL     1       4.166   5.728  18.382  0.00  0.00    +0.000 A 
ENDROOT
BRANCH   5  10
ATOM     10  C   UNL     1       1.803   8.624  18.326  0.00  0.00    +0.000 C 
ATOM     11  O   UNL     1       2.251   9.245  17.369  0.00  0.00    +0.000 OA
ATOM     12  N   UNL     1       0.749   9.017  19.124  0.00  0.00    +0.000 N 
ATOM     13  H   UNL     1       0.495   8.470  19.933  0.00  0.00    +0.000 HD
BRANCH  12  14
ATOM     14  C   UNL     1       0.060  10.205  18.950  0.00  0.00    +0.000 A 
ATOM     15  C   UNL     1      -0.943  10.567  18.028  0.00  0.00    +0.000 A 
ATOM     16  N   UNL     1      -1.339  11.832  18.181  0.00  0.00    +0.000 NA
ATOM     17  N   UNL     1      -0.595  12.286  19.208  0.00  0.00    +0.000 N 
ATOM     18  C   UNL     1       0.263  11.336  19.720  0.00  0.00    +0.000 A 
ATOM     19  C   UNL     1       1.184  11.544  20.865  0.00  0.00    +0.000 C 
BRANCH  17  20
ATOM     20  C   UNL     1      -0.816  13.653  19.643  0.00  0.00    +0.000 C 
ATOM     21  C   UNL     1      -0.137  14.674  18.746  0.00  0.00    +0.000 C 
ENDBRANCH  17  20
ENDBRANCH  12  14
ENDBRANCH   5  10
BRANCH   7  22
ATOM     22  C   UNL     1       2.161   4.462  21.186  0.00  0.00    +0.000 C 
ATOM     23  C   UNL     1       1.183   3.332  20.955  0.00  0.00    +0.000 C 
ATOM     24  C   UNL     1       2.612   3.022  21.281  0.00  0.00    +0.000 C 
ENDBRANCH   7  22
BRANCH   1  25
ATOM     25  C   UNL     1       6.122   4.406  17.476  0.00  0.00    +0.000 C 
BRANCH  25  27
ATOM     26  C   UNL     1       7.759   5.575  18.994  0.00  0.00    +0.000 C 
ATOM     27  C   UNL     1       7.583   4.788  17.707  0.00  0.00    +0.000 C 
ENDBRANCH  25  27
ENDBRANCH   1  25
TORSDOF 6
ENDMDL
MODEL 6
REMARK VINA RESULT:      -7.3      1.633      3.636
REMARK  Name = 
REMARK  9 active torsions:
REMARK  status: ('A' for Active; 'I' for Inactive)
REMARK    1  A    between atoms: C_1  and  C_2
REMARK    2  A    between atoms: C_2  and  C_3
REMARK    3  A    between atoms: C_3  and  N_4
REMARK    4  A    between atoms: C_8  and  C_9
REMARK    5  A    between atoms: N_11  and  C_12
REMARK    6  A    between atoms: N_15  and  C_16
REMARK    7  A    between atoms: C_16  and  C_17
REMARK    8  A    between atoms: C_18  and  C_19
REMARK    9  A    between atoms: C_21  and  C_22
REMARK                            x       y       z     vdW  Elec       q    Type
REMARK                         _______ _______ _______ _____ _____    ______ ____
ROOT
ATOM      1  N   UNL     1       2.782   3.511  17.654  0.00  0.00    +0.000 N 
ATOM      2  N   UNL     1       1.456   3.779  17.758  0.00  0.00    +0.000 NA
ATOM      3  C   UNL     1       1.416   5.108  17.876  0.00  0.00    +0.000 A 
ATOM      4  C   UNL     1       2.699   5.699  17.857  0.00  0.00    +0.000 A 
ATOM      5  C   UNL     1       3.252   6.981  17.941  0.00  0.00    +0.000 A 
ATOM      6  C   UNL     1       4.648   7.090  17.866  0.00  0.00    +0.000 A 
ATOM      7  C   UNL     1       5.439   5.946  17.699  0.00  0.00    +0.000 A 
ATOM      8  N   UNL     1       4.913   4.698  17.603  0.00  0.00    +0.000 NA
ATOM      9  C   UNL     1       3.569   4.634  17.695  0.00  0.00    +0.000 A 
ENDROOT
BRANCH   5  10
ATOM     10  C   UNL     1       2.352   8.141  18.130  0.00  0.00    +0.000 C 
ATOM     11  O   UNL     1       2.201   8.922  17.198  0.00  0.00    +0.000 OA
ATOM     12  N   UNL     1       1.783   8.255  19.381  0.00  0.00    +0.000 N 
ATOM     13  H   UNL     1       2.022   7.597  20.108  0.00  0.00    +0.000 HD
BRANCH  12  14
ATOM     14  C   UNL     1       0.964   9.308  19.756  0.00  0.00    +0.000 A 
ATOM     15  C   UNL     1       0.201  10.205  18.983  0.00  0.00    +0.000 A 
ATOM     16  N   UNL     1      -0.443  11.099  19.736  0.00  0.00    +0.000 NA
ATOM     17  N   UNL     1      -0.100  10.774  20.997  0.00  0.00    +0.000 N 
ATOM     18  C   UNL     1       0.743   9.686  21.068  0.00  0.00    +0.000 A 
ATOM     19  C   UNL     1       1.266   9.089  22.322  0.00  0.00    +0.000 C 
BRANCH  17  20
ATOM     20  C   UNL     1      -0.674  11.562  22.072  0.00  0.00    +0.000 C 
ATOM     21  C   UNL     1      -0.304  13.032  21.988  0.00  0.00    +0.000 C 
ENDBRANCH  17  20
ENDBRANCH  12  14
ENDBRANCH   5  10
BRANCH   7  22
ATOM     22  C   UNL     1       6.943   6.081  17.570  0.00  0.00    +0.000 C 
ATOM     23  C   UNL     1       7.833   6.133  18.792  0.00  0.00    +0.000 C 
ATOM     24  C   UNL     1       7.831   4.910  17.925  0.00  0.00    +0.000 C 
ENDBRANCH   7  22
BRANCH   1  25
ATOM     25  C   UNL     1       3.218   2.134  17.565  0.00  0.00    +0.000 C 
BRANCH  25  27
ATOM     26  C   UNL     1       4.272   2.169  19.854  0.00  0.00    +0.000 C 
ATOM     27  C   UNL     1       3.300   1.454  18.932  0.00  0.00    +0.000 C 
ENDBRANCH  25  27
ENDBRANCH   1  25
TORSDOF 6
ENDMDL
MODEL 7
REMARK VINA RESULT:      -7.3      1.793      2.212
REMARK  Name = 
REMARK  9 active torsions:
REMARK  status: ('A' for Active; 'I' for Inactive)
REMARK    1  A    between atoms: C_1  and  C_2
REMARK    2  A    between atoms: C_2  and  C_3
REMARK    3  A    between atoms: C_3  and  N_4
REMARK    4  A    between atoms: C_8  and  C_9
REMARK    5  A    between atoms: N_11  and  C_12
REMARK    6  A    between atoms: N_15  and  C_16
REMARK    7  A    between atoms: C_16  and  C_17
REMARK    8  A    between atoms: C_18  and  C_19
REMARK    9  A    between atoms: C_21  and  C_22
REMARK                            x       y       z     vdW  Elec       q    Type
REMARK                         _______ _______ _______ _____ _____    ______ ____
ROOT
ATOM      1  N   UNL     1       4.458   5.628  17.010  0.00  0.00    +0.000 N 
ATOM      2  N   UNL     1       4.573   6.954  16.742  0.00  0.00    +0.000 NA
ATOM      3  C   UNL     1       3.785   7.525  17.656  0.00  0.00    +0.000 A 
ATOM      4  C   UNL     1       3.159   6.585  18.504  0.00  0.00    +0.000 A 
ATOM      5  C   UNL     1       2.271   6.593  19.585  0.00  0.00    +0.000 A 
ATOM      6  C   UNL     1       1.915   5.356  20.140  0.00  0.00    +0.000 A 
ATOM      7  C   UNL     1       2.453   4.169  19.624  0.00  0.00    +0.000 A 
ATOM      8  N   UNL     1       3.325   4.149  18.584  0.00  0.00    +0.000 NA
ATOM      9  C   UNL     1       3.629   5.357  18.069  0.00  0.00    +0.000 A 
ENDROOT
BRANCH   5  10
ATOM     10  C   UNL     1       1.736   7.887  20.066  0.00  0.00    +0.000 C 
ATOM     11  O   UNL     1       1.568   8.039  21.270  0.00  0.00    +0.000 OA
ATOM     12  N   UNL     1       1.436   8.809  19.084  0.00  0.00    +0.000 N 
ATOM     13  H   UNL     1       1.546   8.566  18.111  0.00  0.00    +0.000 HD
BRANCH  12  14
ATOM     14  C   UNL     1       0.872  10.046  19.345  0.00  0.00    +0.000 A 
ATOM     15  C   UNL     1       1.269  11.078  20.219  0.00  0.00    +0.000 A 
ATOM     16  N   UNL     1       0.432  12.116  20.189  0.00  0.00    +0.000 NA
ATOM     17  N   UNL     1      -0.503  11.758  19.287  0.00  0.00    +0.000 N 
ATOM     18  C   UNL     1      -0.277  10.515  18.736  0.00  0.00    +0.000 A 
ATOM     19  C   UNL     1      -1.126   9.872  17.702  0.00  0.00    +0.000 C 
BRANCH  17  20
ATOM     20  C   UNL     1      -1.561  12.711  19.005  0.00  0.00    +0.000 C 
ATOM     21  C   UNL     1      -2.743  12.576  19.949  0.00  0.00    +0.000 C 
ENDBRANCH  17  20
ENDBRANCH  12  14
ENDBRANCH   5  10
BRANCH   7  22
ATOM     22  C   UNL     1       2.099   2.841  20.264  0.00  0.00    +0.000 C 
ATOM     23  C   UNL     1       2.731   2.405  21.568  0.00  0.00    +0.000 C 
ATOM     24  C   UNL     1       1.291   2.820  21.542  0.00  0.00    +0.000 C 
ENDBRANCH   7  22
BRANCH   1  25
ATOM     25  C   UNL     1       5.146   4.676  16.165  0.00  0.00    +0.000 C 
BRANCH  25  27
ATOM     26  C   UNL     1       7.387   4.585  17.314  0.00  0.00    +0.000 C 
ATOM     27  C   UNL     1       6.642   4.968  16.048  0.00  0.00    +0.000 C 
ENDBRANCH  25  27
ENDBRANCH   1  25
TORSDOF 6
ENDMDL
MODEL 8
REMARK VINA RESULT:      -7.3      1.699      2.113
REMARK  Name = 
REMARK  9 active torsions:
REMARK  status: ('A' for Active; 'I' for Inactive)
REMARK    1  A    between atoms: C_1  and  C_2
REMARK    2  A    between atoms: C_2  and  C_3
REMARK    3  A    between atoms: C_3  and  N_4
REMARK    4  A    between atoms: C_8  and  C_9
REMARK    5  A    between atoms: N_11  and  C_12
REMARK    6  A    between atoms: N_15  and  C_16
REMARK    7  A    between atoms: C_16  and  C_17
REMARK    8  A    between atoms: C_18  and  C_19
REMARK    9  A    between atoms: C_21  and  C_22
REMARK                            x       y       z     vdW  Elec       q    Type
REMARK                         _______ _______ _______ _____ _____    ______ ____
ROOT
ATOM      1  N   UNL     1       4.661   5.435  17.586  0.00  0.00    +0.000 N 
ATOM      2  N   UNL     1       4.730   6.587  16.871  0.00  0.00    +0.000 NA
ATOM      3  C   UNL     1       3.866   7.391  17.495  0.00  0.00    +0.000 A 
ATOM      4  C   UNL     1       3.238   6.772  18.597  0.00  0.00    +0.000 A 
ATOM      5  C   UNL     1       2.291   7.102  19.572  0.00  0.00    +0.000 A 
ATOM      6  C   UNL     1       1.961   6.118  20.516  0.00  0.00    +0.000 A 
ATOM      7  C   UNL     1       2.581   4.862  20.472  0.00  0.00    +0.000 A 
ATOM      8  N   UNL     1       3.510   4.534  19.539  0.00  0.00    +0.000 NA
ATOM      9  C   UNL     1       3.787   5.501  18.642  0.00  0.00    +0.000 A 
ENDROOT
BRANCH   5  10
ATOM     10  C   UNL     1       1.672   8.446  19.546  0.00  0.00    +0.000 C 
ATOM     11  O   UNL     1       1.640   9.055  18.483  0.00  0.00    +0.000 OA
ATOM     12  N   UNL     1       1.210   8.913  20.760  0.00  0.00    +0.000 N 
ATOM     13  H   UNL     1       1.341   8.364  21.596  0.00  0.00    +0.000 HD
BRANCH  12  14
ATOM     14  C   UNL     1       0.657  10.171  20.935  0.00  0.00    +0.000 A 
ATOM     15  C   UNL     1       0.688  11.317  20.116  0.00  0.00    +0.000 A 
ATOM     16  N   UNL     1       0.039  12.347  20.662  0.00  0.00    +0.000 NA
ATOM     17  N   UNL     1      -0.417  11.862  21.833  0.00  0.00    +0.000 N 
ATOM     18  C   UNL     1      -0.081  10.543  22.044  0.00  0.00    +0.000 A 
ATOM     19  C   UNL     1      -0.465   9.741  23.232  0.00  0.00    +0.000 C 
BRANCH  17  20
ATOM     20  C   UNL     1      -1.204  12.754  22.666  0.00  0.00    +0.000 C 
ATOM     21  C   UNL     1      -2.699  12.571  22.477  0.00  0.00    +0.000 C 
ENDBRANCH  17  20
ENDBRANCH  12  14
ENDBRANCH   5  10
BRANCH   7  22
ATOM     22  C   UNL     1       2.253   3.824  21.527  0.00  0.00    +0.000 C 
ATOM     23  C   UNL     1       1.315   2.674  21.231  0.00  0.00    +0.000 C 
ATOM     24  C   UNL     1       2.784   2.416  21.379  0.00  0.00    +0.000 C 
ENDBRANCH   7  22
BRANCH   1  25
ATOM     25  C   UNL     1       5.438   4.291  17.157  0.00  0.00    +0.000 C 
BRANCH  25  27
ATOM     26  C   UNL     1       7.461   5.192  18.360  0.00  0.00    +0.000 C 
ATOM     27  C   UNL     1       6.933   4.598  17.066  0.00  0.00    +0.000 C 
ENDBRANCH  25  27
ENDBRANCH   1  25
TORSDOF 6
ENDMDL
MODEL 9
REMARK VINA RESULT:      -7.2      1.749      2.255
REMARK  Name = 
REMARK  9 active torsions:
REMARK  status: ('A' for Active; 'I' for Inactive)
REMARK    1  A    between atoms: C_1  and  C_2
REMARK    2  A    between atoms: C_2  and  C_3
REMARK    3  A    between atoms: C_3  and  N_4
REMARK    4  A    between atoms: C_8  and  C_9
REMARK    5  A    between atoms: N_11  and  C_12
REMARK    6  A    between atoms: N_15  and  C_16
REMARK    7  A    between atoms: C_16  and  C_17
REMARK    8  A    between atoms: C_18  and  C_19
REMARK    9  A    between atoms: C_21  and  C_22
REMARK                            x       y       z     vdW  Elec       q    Type
REMARK                         _______ _______ _______ _____ _____    ______ ____
ROOT
ATOM      1  N   UNL     1       4.550   5.500  16.928  0.00  0.00    +0.000 N 
ATOM      2  N   UNL     1       4.688   6.812  16.610  0.00  0.00    +0.000 NA
ATOM      3  C   UNL     1       3.889   7.429  17.484  0.00  0.00    +0.000 A 
ATOM      4  C   UNL     1       3.234   6.532  18.356  0.00  0.00    +0.000 A 
ATOM      5  C   UNL     1       2.325   6.594  19.417  0.00  0.00    +0.000 A 
ATOM      6  C   UNL     1       1.941   5.385  20.013  0.00  0.00    +0.000 A 
ATOM      7  C   UNL     1       2.474   4.171  19.557  0.00  0.00    +0.000 A 
ATOM      8  N   UNL     1       3.366   4.099  18.536  0.00  0.00    +0.000 NA
ATOM      9  C   UNL     1       3.696   5.282  17.980  0.00  0.00    +0.000 A 
ENDROOT
BRANCH   5  10
ATOM     10  C   UNL     1       1.798   7.912  19.835  0.00  0.00    +0.000 C 
ATOM     11  O   UNL     1       1.859   8.218  21.020  0.00  0.00    +0.000 OA
ATOM     12  N   UNL     1       1.241   8.677  18.830  0.00  0.00    +0.000 N 
ATOM     13  H   UNL     1       1.176   8.310  17.892  0.00  0.00    +0.000 HD
BRANCH  12  14
ATOM     14  C   UNL     1       0.646   9.908  19.047  0.00  0.00    +0.000 A 
ATOM     15  C   UNL     1      -0.567  10.252  19.675  0.00  0.00    +0.000 A 
ATOM     16  N   UNL     1      -0.790  11.567  19.661  0.00  0.00    +0.000 NA
ATOM     17  N   UNL     1       0.286  12.075  19.028  0.00  0.00    +0.000 N 
ATOM     18  C   UNL     1       1.195  11.113  18.645  0.00  0.00    +0.000 A 
ATOM     19  C   UNL     1       2.481  11.378  17.952  0.00  0.00    +0.000 C 
BRANCH  17  20
ATOM     20  C   UNL     1       0.355  13.517  18.875  0.00  0.00    +0.000 C 
ATOM     21  C   UNL     1      -0.610  14.253  19.788  0.00  0.00    +0.000 C 
ENDBRANCH  17  20
ENDBRANCH  12  14
ENDBRANCH   5  10
BRANCH   7  22
ATOM     22  C   UNL     1       2.089   2.875  20.241  0.00  0.00    +0.000 C 
ATOM     23  C   UNL     1       2.697   2.478  21.569  0.00  0.00    +0.000 C 
ATOM     24  C   UNL     1       1.264   2.915  21.508  0.00  0.00    +0.000 C 
ENDBRANCH   7  22
BRANCH   1  25
ATOM     25  C   UNL     1       5.242   4.505  16.136  0.00  0.00    +0.000 C 
BRANCH  25  27
ATOM     26  C   UNL     1       6.176   3.995  13.852  0.00  0.00    +0.000 C 
ATOM     27  C   UNL     1       5.833   5.086  14.851  0.00  0.00    +0.000 C 
ENDBRANCH  25  27
ENDBRANCH   1  25
TORSDOF 6
ENDMDL
