MODEL 1
REMARK VINA RESULT:      -8.2      0.000      0.000
REMARK  Name = 
REMARK  8 active torsions:
REMARK  status: ('A' for Active; 'I' for Inactive)
REMARK    1  A    between atoms: C_1  and  C_2
REMARK    2  A    between atoms: C_4  and  N_5
REMARK    3  A    between atoms: C_9  and  C_11
REMARK    4  A    between atoms: C_16  and  N_17
REMARK    5  A    between atoms: N_17  and  C_18
REMARK    6  A    between atoms: N_17  and  C_19
REMARK    7  A    between atoms: C_22  and  O_23
REMARK    8  A    between atoms: O_23  and  C_24
REMARK                            x       y       z     vdW  Elec       q    Type
REMARK                         _______ _______ _______ _____ _____    ______ ____
ROOT
ATOM      1  N   UNL     1       1.517   8.873  19.685  0.00  0.00    +0.000 N 
ATOM      2  C   UNL     1       1.886   8.952  18.370  0.00  0.00    +0.000 C 
ATOM      3  O   UNL     1       1.658   9.874  17.593  0.00  0.00    +0.000 OA
ATOM      4  N   UNL     1       2.580   7.855  17.903  0.00  0.00    +0.000 N 
ATOM      5  C   UNL     1       2.966   6.705  18.591  0.00  0.00    +0.000 C 
ATOM      6  O   UNL     1       2.848   6.595  19.812  0.00  0.00    +0.000 OA
ATOM      7  H   UNL     1       1.929   8.090  20.188  0.00  0.00    +0.000 HD
ATOM      8  H   UNL     1       2.767   7.935  16.913  0.00  0.00    +0.000 HD
ENDROOT
BRANCH   1  12
ATOM      9  C   UNL     1       0.135  13.517  20.842  0.00  0.00    +0.000 C 
ATOM     10  C   UNL     1       0.097  12.039  21.113  0.00  0.00    +0.000 A 
ATOM     11  C   UNL     1       0.808  11.173  20.256  0.00  0.00    +0.000 A 
ATOM     12  C   UNL     1       0.776   9.790  20.441  0.00  0.00    +0.000 A 
ATOM     13  C   UNL     1      -0.045   9.256  21.430  0.00  0.00    +0.000 A 
ATOM     14  C   UNL     1      -0.763  10.095  22.274  0.00  0.00    +0.000 A 
ATOM     15  C   UNL     1      -0.637  11.489  22.176  0.00  0.00    +0.000 A 
BRANCH  15  16
ATOM     16  O   UNL     1      -1.245  12.340  23.084  0.00  0.00    +0.000 OA
BRANCH  16  17
ATOM     17  C   UNL     1      -2.637  12.420  23.026  0.00  0.00    +0.000 A 
ATOM     18  N   UNL     1      -3.235  12.596  21.828  0.00  0.00    +0.000 NA
ATOM     19  C   UNL     1      -4.549  12.901  21.848  0.00  0.00    +0.000 A 
ATOM     20  C   UNL     1      -5.285  12.982  23.004  0.00  0.00    +0.000 A 
ATOM     21 BR   UNL     1      -7.096  13.479  22.998  0.00  0.00    +0.000 Br
ATOM     22  C   UNL     1      -4.599  12.708  24.166  0.00  0.00    +0.000 A 
ATOM     23  N   UNL     1      -3.276  12.431  24.210  0.00  0.00    +0.000 NA
ENDBRANCH  16  17
ENDBRANCH  15  16
ENDBRANCH   1  12
BRANCH   5  24
ATOM     24  C   UNL     1       3.619   5.640  17.779  0.00  0.00    +0.000 A 
ATOM     25  C   UNL     1       4.492   6.121  16.764  0.00  0.00    +0.000 A 
ATOM     26  C   UNL     1       5.272   5.261  16.006  0.00  0.00    +0.000 A 
ATOM     27  C   UNL     1       5.231   3.909  16.280  0.00  0.00    +0.000 A 
ATOM     28  C   UNL     1       4.371   3.425  17.275  0.00  0.00    +0.000 A 
ATOM     29  C   UNL     1       3.507   4.244  18.043  0.00  0.00    +0.000 A 
BRANCH  29  30
ATOM     30  N   UNL     1       2.590   3.611  18.892  0.00  0.00    +0.000 N 
ATOM     31  C   UNL     1       1.302   3.133  18.370  0.00  0.00    +0.000 C 
ATOM     32  C   UNL     1       2.931   3.050  20.195  0.00  0.00    +0.000 C 
ENDBRANCH  29  30
ENDBRANCH   5  24
TORSDOF 5
ENDMDL
MODEL 2
REMARK VINA RESULT:      -8.0      2.711      3.865
REMARK  Name = 
REMARK  8 active torsions:
REMARK  status: ('A' for Active; 'I' for Inactive)
REMARK    1  A    between atoms: C_1  and  C_2
REMARK    2  A    between atoms: C_4  and  N_5
REMARK    3  A    between atoms: C_9  and  C_11
REMARK    4  A    between atoms: C_16  and  N_17
REMARK    5  A    between atoms: N_17  and  C_18
REMARK    6  A    between atoms: N_17  and  C_19
REMARK    7  A    between atoms: C_22  and  O_23
REMARK    8  A    between atoms: O_23  and  C_24
REMARK                            x       y       z     vdW  Elec       q    Type
REMARK                         _______ _______ _______ _____ _____    ______ ____
ROOT
ATOM      1  N   UNL     1       2.246   7.831  19.247  0.00  0.00    +0.000 N 
ATOM      2  C   UNL     1       2.443   6.504  19.512  0.00  0.00    +0.000 C 
ATOM      3  O   UNL     1       1.899   5.836  20.385  0.00  0.00    +0.000 OA
ATOM      4  N   UNL     1       3.368   5.888  18.694  0.00  0.00    +0.000 N 
ATOM      5  C   UNL     1       4.097   6.428  17.635  0.00  0.00    +0.000 C 
ATOM      6  O   UNL     1       3.880   7.556  17.190  0.00  0.00    +0.000 OA
ATOM      7  H   UNL     1       2.688   8.156  18.389  0.00  0.00    +0.000 HD
ATOM      8  H   UNL     1       3.525   4.930  18.975  0.00  0.00    +0.000 HD
ENDROOT
BRANCH   1  12
ATOM      9  C   UNL     1      -0.016   9.530  23.347  0.00  0.00    +0.000 C 
ATOM     10  C   UNL     1       0.221   9.599  21.865  0.00  0.00    +0.000 A 
ATOM     11  C   UNL     1       1.133   8.696  21.280  0.00  0.00    +0.000 A 
ATOM     12  C   UNL     1       1.416   8.742  19.913  0.00  0.00    +0.000 A 
ATOM     13  C   UNL     1       0.860   9.755  19.138  0.00  0.00    +0.000 A 
ATOM     14  C   UNL     1      -0.029  10.662  19.702  0.00  0.00    +0.000 A 
ATOM     15  C   UNL     1      -0.417  10.544  21.045  0.00  0.00    +0.000 A 
BRANCH  15  16
ATOM     16  O   UNL     1      -1.393  11.358  21.594  0.00  0.00    +0.000 OA
BRANCH  16  17
ATOM     17  C   UNL     1      -1.146  12.732  21.567  0.00  0.00    +0.000 A 
ATOM     18  N   UNL     1      -1.915  13.521  20.785  0.00  0.00    +0.000 NA
ATOM     19  C   UNL     1      -1.494  14.791  20.611  0.00  0.00    +0.000 A 
ATOM     20  C   UNL     1      -0.378  15.305  21.223  0.00  0.00    +0.000 A 
ATOM     21 BR   UNL     1       0.217  17.056  20.901  0.00  0.00    +0.000 Br
ATOM     22  C   UNL     1       0.291  14.441  22.061  0.00  0.00    +0.000 A 
ATOM     23  N   UNL     1      -0.065  13.149  22.248  0.00  0.00    +0.000 NA
ENDBRANCH  16  17
ENDBRANCH  15  16
ENDBRANCH   1  12
BRANCH   5  24
ATOM     24  C   UNL     1       5.105   5.529  17.004  0.00  0.00    +0.000 A 
ATOM     25  C   UNL     1       4.554   4.523  16.162  0.00  0.00    +0.000 A 
ATOM     26  C   UNL     1       5.360   3.688  15.402  0.00  0.00    +0.000 A 
ATOM     27  C   UNL     1       6.727   3.874  15.432  0.00  0.00    +0.000 A 
ATOM     28  C   UNL     1       7.279   4.860  16.261  0.00  0.00    +0.000 A 
ATOM     29  C   UNL     1       6.516   5.704  17.104  0.00  0.00    +0.000 A 
BRANCH  29  30
ATOM     30  N   UNL     1       7.206   6.537  17.994  0.00  0.00    +0.000 N 
ATOM     31  C   UNL     1       7.820   5.980  19.208  0.00  0.00    +0.000 C 
ATOM     32  C   UNL     1       7.693   7.871  17.659  0.00  0.00    +0.000 C 
ENDBRANCH  29  30
ENDBRANCH   5  24
TORSDOF 5
ENDMDL
MODEL 3
REMARK VINA RESULT:      -7.9      1.620      1.932
REMARK  Name = 
REMARK  8 active torsions:
REMARK  status: ('A' for Active; 'I' for Inactive)
REMARK    1  A    between atoms: C_1  and  C_2
REMARK    2  A    between atoms: C_4  and  N_5
REMARK    3  A    between atoms: C_9  and  C_11
REMARK    4  A    between atoms: C_16  and  N_17
REMARK    5  A    between atoms: N_17  and  C_18
REMARK    6  A    between atoms: N_17  and  C_19
REMARK    7  A    between atoms: C_22  and  O_23
REMARK    8  A    between atoms: O_23  and  C_24
REMARK                            x       y       z     vdW  Elec       q    Type
REMARK                         _______ _______ _______ _____ _____    ______ ____
ROOT
ATOM      1  N   UNL     1       0.960   9.264  19.612  0.00  0.00    +0.000 N 
ATOM      2  C   UNL     1       1.423   8.399  20.565  0.00  0.00    +0.000 C 
ATOM      3  O   UNL     1       1.211   8.449  21.772  0.00  0.00    +0.000 OA
ATOM      4  N   UNL     1       2.219   7.383  20.078  0.00  0.00    +0.000 N 
ATOM      5  C   UNL     1       2.586   7.114  18.760  0.00  0.00    +0.000 C 
ATOM      6  O   UNL     1       2.094   7.709  17.801  0.00  0.00    +0.000 OA
ATOM      7  H   UNL     1       1.133   8.962  18.654  0.00  0.00    +0.000 HD
ATOM      8  H   UNL     1       2.589   6.816  20.829  0.00  0.00    +0.000 HD
ENDROOT
BRANCH   1  12
ATOM      9  C   UNL     1       0.051  13.710  21.665  0.00  0.00    +0.000 C 
ATOM     10  C   UNL     1      -0.377  12.565  20.791  0.00  0.00    +0.000 A 
ATOM     11  C   UNL     1       0.507  11.481  20.610  0.00  0.00    +0.000 A 
ATOM     12  C   UNL     1       0.173  10.410  19.779  0.00  0.00    +0.000 A 
ATOM     13  C   UNL     1      -1.010  10.461  19.047  0.00  0.00    +0.000 A 
ATOM     14  C   UNL     1      -1.886  11.529  19.204  0.00  0.00    +0.000 A 
ATOM     15  C   UNL     1      -1.617  12.547  20.132  0.00  0.00    +0.000 A 
BRANCH  15  16
ATOM     16  O   UNL     1      -2.531  13.553  20.393  0.00  0.00    +0.000 OA
BRANCH  16  17
ATOM     17  C   UNL     1      -3.607  13.218  21.217  0.00  0.00    +0.000 A 
ATOM     18  N   UNL     1      -4.758  12.791  20.652  0.00  0.00    +0.000 NA
ATOM     19  C   UNL     1      -5.832  12.706  21.462  0.00  0.00    +0.000 A 
ATOM     20  C   UNL     1      -5.785  12.979  22.807  0.00  0.00    +0.000 A 
ATOM     21 BR   UNL     1      -7.318  12.919  23.889  0.00  0.00    +0.000 Br
ATOM     22  C   UNL     1      -4.548  13.330  23.298  0.00  0.00    +0.000 A 
ATOM     23  N   UNL     1      -3.444  13.465  22.529  0.00  0.00    +0.000 NA
ENDBRANCH  16  17
ENDBRANCH  15  16
ENDBRANCH   1  12
BRANCH   5  24
ATOM     24  C   UNL     1       3.550   5.994  18.561  0.00  0.00    +0.000 A 
ATOM     25  C   UNL     1       4.707   6.336  17.807  0.00  0.00    +0.000 A 
ATOM     26  C   UNL     1       5.758   5.445  17.640  0.00  0.00    +0.000 A 
ATOM     27  C   UNL     1       5.694   4.217  18.265  0.00  0.00    +0.000 A 
ATOM     28  C   UNL     1       4.557   3.869  19.006  0.00  0.00    +0.000 A 
ATOM     29  C   UNL     1       3.427   4.709  19.165  0.00  0.00    +0.000 A 
BRANCH  29  30
ATOM     30  N   UNL     1       2.299   4.174  19.800  0.00  0.00    +0.000 N 
ATOM     31  C   UNL     1       1.283   3.449  19.024  0.00  0.00    +0.000 C 
ATOM     32  C   UNL     1       2.196   3.952  21.239  0.00  0.00    +0.000 C 
ENDBRANCH  29  30
ENDBRANCH   5  24
TORSDOF 5
ENDMDL
MODEL 4
REMARK VINA RESULT:      -7.9      1.181      2.109
REMARK  Name = 
REMARK  8 active torsions:
REMARK  status: ('A' for Active; 'I' for Inactive)
REMARK    1  A    between atoms: C_1  and  C_2
REMARK    2  A    between atoms: C_4  and  N_5
REMARK    3  A    between atoms: C_9  and  C_11
REMARK    4  A    between atoms: C_16  and  N_17
REMARK    5  A    between atoms: N_17  and  C_18
REMARK    6  A    between atoms: N_17  and  C_19
REMARK    7  A    between atoms: C_22  and  O_23
REMARK    8  A    between atoms: O_23  and  C_24
REMARK                            x       y       z     vdW  Elec       q    Type
REMARK                         _______ _______ _______ _____ _____    ______ ____
ROOT
ATOM      1  N   UNL     1       1.200   8.240  20.382  0.00  0.00    +0.000 N 
ATOM      2  C   UNL     1       1.852   8.179  19.182  0.00  0.00    +0.000 C 
ATOM      3  O   UNL     1       2.004   9.093  18.377  0.00  0.00    +0.000 OA
ATOM      4  N   UNL     1       2.374   6.940  18.875  0.00  0.00    +0.000 N 
ATOM      5  C   UNL     1       2.342   5.766  19.628  0.00  0.00    +0.000 C 
ATOM      6  O   UNL     1       1.942   5.738  20.793  0.00  0.00    +0.000 OA
ATOM      7  H   UNL     1       1.313   7.410  20.962  0.00  0.00    +0.000 HD
ATOM      8  H   UNL     1       2.784   6.933  17.952  0.00  0.00    +0.000 HD
ENDROOT
BRANCH   1  12
ATOM      9  C   UNL     1      -0.052  13.059  20.527  0.00  0.00    +0.000 C 
ATOM     10  C   UNL     1      -0.076  11.687  21.139  0.00  0.00    +0.000 A 
ATOM     11  C   UNL     1       0.555  10.627  20.454  0.00  0.00    +0.000 A 
ATOM     12  C   UNL     1       0.531   9.326  20.961  0.00  0.00    +0.000 A 
ATOM     13  C   UNL     1      -0.208   9.059  22.110  0.00  0.00    +0.000 A 
ATOM     14  C   UNL     1      -0.846  10.090  22.789  0.00  0.00    +0.000 A 
ATOM     15  C   UNL     1      -0.721  11.419  22.357  0.00  0.00    +0.000 A 
BRANCH  15  16
ATOM     16  O   UNL     1      -1.245  12.472  23.086  0.00  0.00    +0.000 OA
BRANCH  16  17
ATOM     17  C   UNL     1      -2.637  12.542  23.167  0.00  0.00    +0.000 A 
ATOM     18  N   UNL     1      -3.345  12.833  22.054  0.00  0.00    +0.000 NA
ATOM     19  C   UNL     1      -4.651  13.119  22.228  0.00  0.00    +0.000 A 
ATOM     20  C   UNL     1      -5.276  13.075  23.450  0.00  0.00    +0.000 A 
ATOM     21 BR   UNL     1      -7.080  13.549  23.664  0.00  0.00    +0.000 Br
ATOM     22  C   UNL     1      -4.483  12.691  24.508  0.00  0.00    +0.000 A 
ATOM     23  N   UNL     1      -3.161  12.426  24.400  0.00  0.00    +0.000 NA
ENDBRANCH  16  17
ENDBRANCH  15  16
ENDBRANCH   1  12
BRANCH   5  24
ATOM     24  C   UNL     1       2.907   4.551  18.976  0.00  0.00    +0.000 A 
ATOM     25  C   UNL     1       2.045   3.419  18.986  0.00  0.00    +0.000 A 
ATOM     26  C   UNL     1       2.368   2.251  18.312  0.00  0.00    +0.000 A 
ATOM     27  C   UNL     1       3.533   2.209  17.575  0.00  0.00    +0.000 A 
ATOM     28  C   UNL     1       4.391   3.317  17.561  0.00  0.00    +0.000 A 
ATOM     29  C   UNL     1       4.148   4.516  18.275  0.00  0.00    +0.000 A 
BRANCH  29  30
ATOM     30  N   UNL     1       5.163   5.481  18.298  0.00  0.00    +0.000 N 
ATOM     31  C   UNL     1       6.244   5.399  19.290  0.00  0.00    +0.000 C 
ATOM     32  C   UNL     1       5.459   6.385  17.192  0.00  0.00    +0.000 C 
ENDBRANCH  29  30
ENDBRANCH   5  24
TORSDOF 5
ENDMDL
MODEL 5
REMARK VINA RESULT:      -7.9      1.512      2.354
REMARK  Name = 
REMARK  8 active torsions:
REMARK  status: ('A' for Active; 'I' for Inactive)
REMARK    1  A    between atoms: C_1  and  C_2
REMARK    2  A    between atoms: C_4  and  N_5
REMARK    3  A    between atoms: C_9  and  C_11
REMARK    4  A    between atoms: C_16  and  N_17
REMARK    5  A    between atoms: N_17  and  C_18
REMARK    6  A    between atoms: N_17  and  C_19
REMARK    7  A    between atoms: C_22  and  O_23
REMARK    8  A    between atoms: O_23  and  C_24
REMARK                            x       y       z     vdW  Elec       q    Type
REMARK                         _______ _______ _______ _____ _____    ______ ____
ROOT
ATOM      1  N   UNL     1       1.260   9.006  19.250  0.00  0.00    +0.000 N 
ATOM      2  C   UNL     1       1.954   8.683  18.117  0.00  0.00    +0.000 C 
ATOM      3  O   UNL     1       2.167   9.408  17.150  0.00  0.00    +0.000 OA
ATOM      4  N   UNL     1       2.443   7.393  18.092  0.00  0.00    +0.000 N 
ATOM      5  C   UNL     1       2.342   6.400  19.066  0.00  0.00    +0.000 C 
ATOM      6  O   UNL     1       1.898   6.622  20.193  0.00  0.00    +0.000 OA
ATOM      7  H   UNL     1       1.322   8.310  19.991  0.00  0.00    +0.000 HD
ATOM      8  H   UNL     1       2.886   7.187  17.208  0.00  0.00    +0.000 HD
ENDROOT
BRANCH   1  12
ATOM      9  C   UNL     1       1.158  13.545  21.299  0.00  0.00    +0.000 C 
ATOM     10  C   UNL     1       0.458  12.413  20.601  0.00  0.00    +0.000 A 
ATOM     11  C   UNL     1       1.203  11.269  20.246  0.00  0.00    +0.000 A 
ATOM     12  C   UNL     1       0.609  10.205  19.565  0.00  0.00    +0.000 A 
ATOM     13  C   UNL     1      -0.715  10.320  19.148  0.00  0.00    +0.000 A 
ATOM     14  C   UNL     1      -1.458  11.447  19.478  0.00  0.00    +0.000 A 
ATOM     15  C   UNL     1      -0.906  12.463  20.272  0.00  0.00    +0.000 A 
BRANCH  15  16
ATOM     16  O   UNL     1      -1.665  13.533  20.714  0.00  0.00    +0.000 OA
BRANCH  16  17
ATOM     17  C   UNL     1      -2.853  13.222  21.377  0.00  0.00    +0.000 A 
ATOM     18  N   UNL     1      -4.031  13.527  20.791  0.00  0.00    +0.000 NA
ATOM     19  C   UNL     1      -5.133  13.425  21.561  0.00  0.00    +0.000 A 
ATOM     20  C   UNL     1      -5.106  12.985  22.861  0.00  0.00    +0.000 A 
ATOM     21 BR   UNL     1      -6.651  12.924  23.925  0.00  0.00    +0.000 Br
ATOM     22  C   UNL     1      -3.866  12.624  23.339  0.00  0.00    +0.000 A 
ATOM     23  N   UNL     1      -2.722  12.738  22.625  0.00  0.00    +0.000 NA
ENDBRANCH  16  17
ENDBRANCH  15  16
ENDBRANCH   1  12
BRANCH   5  24
ATOM     24  C   UNL     1       2.887   5.062  18.700  0.00  0.00    +0.000 A 
ATOM     25  C   UNL     1       1.932   4.008  18.721  0.00  0.00    +0.000 A 
ATOM     26  C   UNL     1       2.248   2.730  18.285  0.00  0.00    +0.000 A 
ATOM     27  C   UNL     1       3.508   2.493  17.775  0.00  0.00    +0.000 A 
ATOM     28  C   UNL     1       4.457   3.524  17.754  0.00  0.00    +0.000 A 
ATOM     29  C   UNL     1       4.216   4.833  18.238  0.00  0.00    +0.000 A 
BRANCH  29  30
ATOM     30  N   UNL     1       5.300   5.718  18.300  0.00  0.00    +0.000 N 
ATOM     31  C   UNL     1       6.359   5.526  19.300  0.00  0.00    +0.000 C 
ATOM     32  C   UNL     1       5.678   6.628  17.224  0.00  0.00    +0.000 C 
ENDBRANCH  29  30
ENDBRANCH   5  24
TORSDOF 5
ENDMDL
MODEL 6
REMARK VINA RESULT:      -7.8      1.726      1.927
REMARK  Name = 
REMARK  8 active torsions:
REMARK  status: ('A' for Active; 'I' for Inactive)
REMARK    1  A    between atoms: C_1  and  C_2
REMARK    2  A    between atoms: C_4  and  N_5
REMARK    3  A    between atoms: C_9  and  C_11
REMARK    4  A    between atoms: C_16  and  N_17
REMARK    5  A    between atoms: N_17  and  C_18
REMARK    6  A    between atoms: N_17  and  C_19
REMARK    7  A    between atoms: C_22  and  O_23
REMARK    8  A    between atoms: O_23  and  C_24
REMARK                            x       y       z     vdW  Elec       q    Type
REMARK                         _______ _______ _______ _____ _____    ______ ____
ROOT
ATOM      1  N   UNL     1       0.831   9.204  19.191  0.00  0.00    +0.000 N 
ATOM      2  C   UNL     1       1.804   9.227  18.229  0.00  0.00    +0.000 C 
ATOM      3  O   UNL     1       1.998  10.108  17.397  0.00  0.00    +0.000 OA
ATOM      4  N   UNL     1       2.627   8.121  18.220  0.00  0.00    +0.000 N 
ATOM      5  C   UNL     1       2.611   7.011  19.065  0.00  0.00    +0.000 C 
ATOM      6  O   UNL     1       1.904   6.956  20.071  0.00  0.00    +0.000 OA
ATOM      7  H   UNL     1       0.933   8.452  19.870  0.00  0.00    +0.000 HD
ATOM      8  H   UNL     1       3.281   8.157  17.450  0.00  0.00    +0.000 HD
ENDROOT
BRANCH   1  12
ATOM      9  C   UNL     1      -3.304  11.655  17.884  0.00  0.00    +0.000 C 
ATOM     10  C   UNL     1      -2.166  11.434  18.841  0.00  0.00    +0.000 A 
ATOM     11  C   UNL     1      -1.233  10.414  18.562  0.00  0.00    +0.000 A 
ATOM     12  C   UNL     1      -0.178  10.143  19.436  0.00  0.00    +0.000 A 
ATOM     13  C   UNL     1      -0.106  10.829  20.646  0.00  0.00    +0.000 A 
ATOM     14  C   UNL     1      -1.027  11.827  20.942  0.00  0.00    +0.000 A 
ATOM     15  C   UNL     1      -2.012  12.192  20.013  0.00  0.00    +0.000 A 
BRANCH  15  16
ATOM     16  O   UNL     1      -2.859  13.264  20.235  0.00  0.00    +0.000 OA
BRANCH  16  17
ATOM     17  C   UNL     1      -3.896  13.060  21.147  0.00  0.00    +0.000 A 
ATOM     18  N   UNL     1      -5.125  12.744  20.684  0.00  0.00    +0.000 NA
ATOM     19  C   UNL     1      -6.136  12.788  21.575  0.00  0.00    +0.000 A 
ATOM     20  C   UNL     1      -5.955  13.081  22.904  0.00  0.00    +0.000 A 
ATOM     21 BR   UNL     1      -7.397  13.203  24.102  0.00  0.00    +0.000 Br
ATOM     22  C   UNL     1      -4.654  13.312  23.291  0.00  0.00    +0.000 A 
ATOM     23  N   UNL     1      -3.605  13.315  22.435  0.00  0.00    +0.000 NA
ENDBRANCH  16  17
ENDBRANCH  15  16
ENDBRANCH   1  12
BRANCH   5  24
ATOM     24  C   UNL     1       3.571   5.920  18.735  0.00  0.00    +0.000 A 
ATOM     25  C   UNL     1       4.706   6.336  17.984  0.00  0.00    +0.000 A 
ATOM     26  C   UNL     1       5.753   5.470  17.705  0.00  0.00    +0.000 A 
ATOM     27  C   UNL     1       5.709   4.188  18.213  0.00  0.00    +0.000 A 
ATOM     28  C   UNL     1       4.594   3.767  18.950  0.00  0.00    +0.000 A 
ATOM     29  C   UNL     1       3.467   4.583  19.218  0.00  0.00    +0.000 A 
BRANCH  29  30
ATOM     30  N   UNL     1       2.358   3.986  19.831  0.00  0.00    +0.000 N 
ATOM     31  C   UNL     1       1.318   3.341  19.018  0.00  0.00    +0.000 C 
ATOM     32  C   UNL     1       2.299   3.621  21.243  0.00  0.00    +0.000 C 
ENDBRANCH  29  30
ENDBRANCH   5  24
TORSDOF 5
ENDMDL
MODEL 7
REMARK VINA RESULT:      -7.8      1.300      2.331
REMARK  Name = 
REMARK  8 active torsions:
REMARK  status: ('A' for Active; 'I' for Inactive)
REMARK    1  A    between atoms: C_1  and  C_2
REMARK    2  A    between atoms: C_4  and  N_5
REMARK    3  A    between atoms: C_9  and  C_11
REMARK    4  A    between atoms: C_16  and  N_17
REMARK    5  A    between atoms: N_17  and  C_18
REMARK    6  A    between atoms: N_17  and  C_19
REMARK    7  A    between atoms: C_22  and  O_23
REMARK    8  A    between atoms: O_23  and  C_24
REMARK                            x       y       z     vdW  Elec       q    Type
REMARK                         _______ _______ _______ _____ _____    ______ ____
ROOT
ATOM      1  N   UNL     1       1.328   8.833  19.649  0.00  0.00    +0.000 N 
ATOM      2  C   UNL     1       1.902   8.581  18.433  0.00  0.00    +0.000 C 
ATOM      3  O   UNL     1       2.048   9.373  17.508  0.00  0.00    +0.000 OA
ATOM      4  N   UNL     1       2.342   7.284  18.265  0.00  0.00    +0.000 N 
ATOM      5  C   UNL     1       2.299   6.222  19.167  0.00  0.00    +0.000 C 
ATOM      6  O   UNL     1       1.971   6.367  20.345  0.00  0.00    +0.000 OA
ATOM      7  H   UNL     1       1.436   8.080  20.326  0.00  0.00    +0.000 HD
ATOM      8  H   UNL     1       2.693   7.136  17.329  0.00  0.00    +0.000 HD
ENDROOT
BRANCH   1  12
ATOM      9  C   UNL     1       0.064  13.619  19.090  0.00  0.00    +0.000 C 
ATOM     10  C   UNL     1       0.155  12.385  19.943  0.00  0.00    +0.000 A 
ATOM     11  C   UNL     1       0.677  11.204  19.376  0.00  0.00    +0.000 A 
ATOM     12  C   UNL     1       0.750  10.021  20.114  0.00  0.00    +0.000 A 
ATOM     13  C   UNL     1       0.211   9.987  21.397  0.00  0.00    +0.000 A 
ATOM     14  C   UNL     1      -0.320  11.139  21.965  0.00  0.00    +0.000 A 
ATOM     15  C   UNL     1      -0.281  12.361  21.278  0.00  0.00    +0.000 A 
BRANCH  15  16
ATOM     16  O   UNL     1      -0.691  13.543  21.871  0.00  0.00    +0.000 OA
BRANCH  16  17
ATOM     17  C   UNL     1      -2.005  13.580  22.341  0.00  0.00    +0.000 A 
ATOM     18  N   UNL     1      -2.224  13.702  23.668  0.00  0.00    +0.000 NA
ATOM     19  C   UNL     1      -3.488  13.499  24.092  0.00  0.00    +0.000 A 
ATOM     20  C   UNL     1      -4.534  13.234  23.243  0.00  0.00    +0.000 A 
ATOM     21 BR   UNL     1      -6.267  12.886  23.877  0.00  0.00    +0.000 Br
ATOM     22  C   UNL     1      -4.219  13.208  21.903  0.00  0.00    +0.000 A 
ATOM     23  N   UNL     1      -2.965  13.371  21.422  0.00  0.00    +0.000 NA
ENDBRANCH  16  17
ENDBRANCH  15  16
ENDBRANCH   1  12
BRANCH   5  24
ATOM     24  C   UNL     1       2.763   4.902  18.652  0.00  0.00    +0.000 A 
ATOM     25  C   UNL     1       1.766   3.887  18.644  0.00  0.00    +0.000 A 
ATOM     26  C   UNL     1       1.999   2.642  18.079  0.00  0.00    +0.000 A 
ATOM     27  C   UNL     1       3.213   2.405  17.468  0.00  0.00    +0.000 A 
ATOM     28  C   UNL     1       4.202   3.397  17.473  0.00  0.00    +0.000 A 
ATOM     29  C   UNL     1       4.049   4.666  18.084  0.00  0.00    +0.000 A 
BRANCH  29  30
ATOM     30  N   UNL     1       5.172   5.500  18.150  0.00  0.00    +0.000 N 
ATOM     31  C   UNL     1       6.175   5.314  19.208  0.00  0.00    +0.000 C 
ATOM     32  C   UNL     1       5.641   6.332  17.047  0.00  0.00    +0.000 C 
ENDBRANCH  29  30
ENDBRANCH   5  24
TORSDOF 5
ENDMDL
MODEL 8
REMARK VINA RESULT:      -7.7      1.550      2.716
REMARK  Name = 
REMARK  8 active torsions:
REMARK  status: ('A' for Active; 'I' for Inactive)
REMARK    1  A    between atoms: C_1  and  C_2
REMARK    2  A    between atoms: C_4  and  N_5
REMARK    3  A    between atoms: C_9  and  C_11
REMARK    4  A    between atoms: C_16  and  N_17
REMARK    5  A    between atoms: N_17  and  C_18
REMARK    6  A    between atoms: N_17  and  C_19
REMARK    7  A    between atoms: C_22  and  O_23
REMARK    8  A    between atoms: O_23  and  C_24
REMARK                            x       y       z     vdW  Elec       q    Type
REMARK                         _______ _______ _______ _____ _____    ______ ____
ROOT
ATOM      1  N   UNL     1       1.342   8.845  19.537  0.00  0.00    +0.000 N 
ATOM      2  C   UNL     1       1.921   8.712  18.305  0.00  0.00    +0.000 C 
ATOM      3  O   UNL     1       1.977   9.561  17.421  0.00  0.00    +0.000 OA
ATOM      4  N   UNL     1       2.481   7.474  18.065  0.00  0.00    +0.000 N 
ATOM      5  C   UNL     1       2.552   6.368  18.910  0.00  0.00    +0.000 C 
ATOM      6  O   UNL     1       2.228   6.420  20.097  0.00  0.00    +0.000 OA
ATOM      7  H   UNL     1       1.531   8.072  20.173  0.00  0.00    +0.000 HD
ATOM      8  H   UNL     1       2.832   7.409  17.120  0.00  0.00    +0.000 HD
ENDROOT
BRANCH   1  12
ATOM      9  C   UNL     1      -1.287  11.067  23.138  0.00  0.00    +0.000 C 
ATOM     10  C   UNL     1      -0.689  11.085  21.760  0.00  0.00    +0.000 A 
ATOM     11  C   UNL     1       0.053   9.966  21.326  0.00  0.00    +0.000 A 
ATOM     12  C   UNL     1       0.660   9.946  20.069  0.00  0.00    +0.000 A 
ATOM     13  C   UNL     1       0.610  11.088  19.273  0.00  0.00    +0.000 A 
ATOM     14  C   UNL     1      -0.105  12.204  19.692  0.00  0.00    +0.000 A 
ATOM     15  C   UNL     1      -0.823  12.185  20.897  0.00  0.00    +0.000 A 
BRANCH  15  16
ATOM     16  O   UNL     1      -1.640  13.237  21.273  0.00  0.00    +0.000 OA
BRANCH  16  17
ATOM     17  C   UNL     1      -3.007  13.078  21.042  0.00  0.00    +0.000 A 
ATOM     18  N   UNL     1      -3.869  13.241  22.070  0.00  0.00    +0.000 NA
ATOM     19  C   UNL     1      -5.142  12.850  21.857  0.00  0.00    +0.000 A 
ATOM     20  C   UNL     1      -5.589  12.359  20.656  0.00  0.00    +0.000 A 
ATOM     21 BR   UNL     1      -7.352  11.758  20.418  0.00  0.00    +0.000 Br
ATOM     22  C   UNL     1      -4.650  12.306  19.650  0.00  0.00    +0.000 A 
ATOM     23  N   UNL     1      -3.352  12.652  19.814  0.00  0.00    +0.000 NA
ENDBRANCH  16  17
ENDBRANCH  15  16
ENDBRANCH   1  12
BRANCH   5  24
ATOM     24  C   UNL     1       3.132   5.127  18.322  0.00  0.00    +0.000 A 
ATOM     25  C   UNL     1       2.192   4.083  18.099  0.00  0.00    +0.000 A 
ATOM     26  C   UNL     1       2.546   2.912  17.443  0.00  0.00    +0.000 A 
ATOM     27  C   UNL     1       3.830   2.785  16.955  0.00  0.00    +0.000 A 
ATOM     28  C   UNL     1       4.764   3.807  17.173  0.00  0.00    +0.000 A 
ATOM     29  C   UNL     1       4.483   4.998  17.885  0.00  0.00    +0.000 A 
BRANCH  29  30
ATOM     30  N   UNL     1       5.551   5.862  18.163  0.00  0.00    +0.000 N 
ATOM     31  C   UNL     1       6.520   5.530  19.216  0.00  0.00    +0.000 C 
ATOM     32  C   UNL     1       6.013   6.910  17.260  0.00  0.00    +0.000 C 
ENDBRANCH  29  30
ENDBRANCH   5  24
TORSDOF 5
ENDMDL
MODEL 9
REMARK VINA RESULT:      -7.7      4.380     10.646
REMARK  Name = 
REMARK  8 active torsions:
REMARK  status: ('A' for Active; 'I' for Inactive)
REMARK    1  A    between atoms: C_1  and  C_2
REMARK    2  A    between atoms: C_4  and  N_5
REMARK    3  A    between atoms: C_9  and  C_11
REMARK    4  A    between atoms: C_16  and  N_17
REMARK    5  A    between atoms: N_17  and  C_18
REMARK    6  A    between atoms: N_17  and  C_19
REMARK    7  A    between atoms: C_22  and  O_23
REMARK    8  A    between atoms: O_23  and  C_24
REMARK                            x       y       z     vdW  Elec       q    Type
REMARK                         _______ _______ _______ _____ _____    ______ ____
ROOT
ATOM      1  N   UNL     1       1.398   8.571  18.770  0.00  0.00    +0.000 N 
ATOM      2  C   UNL     1       0.964   9.104  19.952  0.00  0.00    +0.000 C 
ATOM      3  O   UNL     1       1.439   8.910  21.067  0.00  0.00    +0.000 OA
ATOM      4  N   UNL     1      -0.132   9.934  19.839  0.00  0.00    +0.000 N 
ATOM      5  C   UNL     1      -0.829  10.311  18.692  0.00  0.00    +0.000 C 
ATOM      6  O   UNL     1      -0.431  10.042  17.558  0.00  0.00    +0.000 OA
ATOM      7  H   UNL     1       0.956   8.972  17.944  0.00  0.00    +0.000 HD
ATOM      8  H   UNL     1      -0.451  10.244  20.746  0.00  0.00    +0.000 HD
ENDROOT
BRANCH   1  12
ATOM      9  C   UNL     1       3.838   4.340  19.750  0.00  0.00    +0.000 C 
ATOM     10  C   UNL     1       3.736   5.647  19.015  0.00  0.00    +0.000 A 
ATOM     11  C   UNL     1       2.608   6.463  19.234  0.00  0.00    +0.000 A 
ATOM     12  C   UNL     1       2.447   7.670  18.549  0.00  0.00    +0.000 A 
ATOM     13  C   UNL     1       3.370   8.021  17.568  0.00  0.00    +0.000 A 
ATOM     14  C   UNL     1       4.480   7.220  17.330  0.00  0.00    +0.000 A 
ATOM     15  C   UNL     1       4.715   6.072  18.102  0.00  0.00    +0.000 A 
BRANCH  15  16
ATOM     16  O   UNL     1       5.875   5.330  17.967  0.00  0.00    +0.000 OA
BRANCH  16  17
ATOM     17  C   UNL     1       6.139   4.814  16.697  0.00  0.00    +0.000 A 
ATOM     18  N   UNL     1       7.075   5.412  15.928  0.00  0.00    +0.000 NA
ATOM     19  C   UNL     1       7.129   5.030  14.636  0.00  0.00    +0.000 A 
ATOM     20  C   UNL     1       6.327   4.048  14.107  0.00  0.00    +0.000 A 
ATOM     21 BR   UNL     1       6.381   3.592  12.286  0.00  0.00    +0.000 Br
ATOM     22  C   UNL     1       5.462   3.447  14.993  0.00  0.00    +0.000 A 
ATOM     23  N   UNL     1       5.340   3.812  16.290  0.00  0.00    +0.000 NA
ENDBRANCH  16  17
ENDBRANCH  15  16
ENDBRANCH   1  12
BRANCH   5  24
ATOM     24  C   UNL     1      -2.046  11.145  18.906  0.00  0.00    +0.000 A 
ATOM     25  C   UNL     1      -3.159  10.784  18.098  0.00  0.00    +0.000 A 
ATOM     26  C   UNL     1      -4.403  11.376  18.264  0.00  0.00    +0.000 A 
ATOM     27  C   UNL     1      -4.568  12.303  19.273  0.00  0.00    +0.000 A 
ATOM     28  C   UNL     1      -3.477  12.668  20.071  0.00  0.00    +0.000 A 
ATOM     29  C   UNL     1      -2.170  12.145  19.914  0.00  0.00    +0.000 A 
BRANCH  29  30
ATOM     30  N   UNL     1      -1.141  12.713  20.677  0.00  0.00    +0.000 N 
ATOM     31  C   UNL     1      -0.295  13.773  20.112  0.00  0.00    +0.000 C 
ATOM     32  C   UNL     1      -1.043  12.606  22.129  0.00  0.00    +0.000 C 
ENDBRANCH  29  30
ENDBRANCH   5  24
TORSDOF 5
ENDMDL
