MODEL 1
REMARK VINA RESULT:      -8.6      0.000      0.000
REMARK  Name = 
REMARK  9 active torsions:
REMARK  status: ('A' for Active; 'I' for Inactive)
REMARK    1  A    between atoms: C_1  and  N_2
REMARK    2  A    between atoms: C_5  and  N_6
REMARK    3  A    between atoms: N_6  and  C_7
REMARK    4  A    between atoms: C_7  and  C_8
REMARK    5  A    between atoms: C_11  and  C_12
REMARK    6  A    between atoms: C_16  and  S_17
REMARK    7  A    between atoms: S_17  and  N_20
REMARK    8  A    between atoms: N_20  and  C_21
REMARK    9  A    between atoms: C_21  and  C_22
REMARK                            x       y       z     vdW  Elec       q    Type
REMARK                         _______ _______ _______ _____ _____    ______ ____
ROOT
ATOM      1  C   UNL     1       3.341   6.214  18.060  0.00  0.00    +0.000 A 
ATOM      2  C   UNL     1       2.735   4.962  17.843  0.00  0.00    +0.000 A 
ATOM      3  C   UNL     1       3.482   3.833  17.492  0.00  0.00    +0.000 A 
ATOM      4  C   UNL     1       4.855   3.939  17.293  0.00  0.00    +0.000 A 
ATOM      5  C   UNL     1       5.473   5.176  17.470  0.00  0.00    +0.000 A 
ATOM      6  C   UNL     1       4.733   6.287  17.904  0.00  0.00    +0.000 A 
ENDROOT
BRANCH   1  10
ATOM      7  C   UNL     1       1.001   9.667  19.177  0.00  0.00    +0.000 A 
ATOM      8  C   UNL     1       1.508   9.528  17.883  0.00  0.00    +0.000 A 
ATOM      9  C   UNL     1       2.252   8.401  17.532  0.00  0.00    +0.000 A 
ATOM     10  C   UNL     1       2.543   7.390  18.460  0.00  0.00    +0.000 A 
ATOM     11  C   UNL     1       2.045   7.553  19.768  0.00  0.00    +0.000 A 
ATOM     12  C   UNL     1       1.278   8.670  20.119  0.00  0.00    +0.000 A 
BRANCH   7  13
ATOM     13  C   UNL     1       0.182  10.878  19.556  0.00  0.00    +0.000 C 
BRANCH  13  14
ATOM     14  N   UNL     1       0.282  11.931  18.545  0.00  0.00    +0.000 NA
ATOM     15  H   UNL     1       0.674  11.537  17.692  0.00  0.00    +0.000 HD
BRANCH  14  20
ATOM     16  C   UNL     1       3.334  16.724  18.737  0.00  0.00    +0.000 C 
ATOM     17  N   UNL     1       2.490  15.585  18.381  0.00  0.00    +0.000 NA
ATOM     18  C   UNL     1       3.241  14.327  18.482  0.00  0.00    +0.000 C 
ATOM     19  C   UNL     1       2.376  13.121  18.109  0.00  0.00    +0.000 C 
ATOM     20  C   UNL     1       1.108  13.068  18.973  0.00  0.00    +0.000 C 
ATOM     21  C   UNL     1       0.369  14.407  18.859  0.00  0.00    +0.000 C 
ATOM     22  C   UNL     1       1.289  15.567  19.222  0.00  0.00    +0.000 C 
ENDBRANCH  14  20
ENDBRANCH  13  14
ENDBRANCH   7  13
ENDBRANCH   1  10
BRANCH   5  23
ATOM     23  S   UNL     1       7.224   5.346  17.185  0.00  0.00    +0.000 S 
ATOM     24  O   UNL     1       7.473   6.731  16.860  0.00  0.00    +0.000 OA
ATOM     25  O   UNL     1       7.921   4.676  18.266  0.00  0.00    +0.000 OA
BRANCH  23  26
ATOM     26  N   UNL     1       7.498   4.422  15.805  0.00  0.00    +0.000 NA
ATOM     27  H   UNL     1       7.501   3.414  15.969  0.00  0.00    +0.000 HD
BRANCH  26  28
ATOM     28  C   UNL     1       6.915   4.865  14.532  0.00  0.00    +0.000 C 
BRANCH  28  29
ATOM     29  C   UNL     1       6.358   3.691  13.731  0.00  0.00    +0.000 C 
ATOM     30  C   UNL     1       6.951   3.657  12.329  0.00  0.00    +0.000 C 
ATOM     31  C   UNL     1       5.845   3.019  11.532  0.00  0.00    +0.000 C 
ATOM     32  C   UNL     1       4.605   3.586  12.189  0.00  0.00    +0.000 C 
ATOM     33  O   UNL     1       4.935   3.853  13.559  0.00  0.00    +0.000 OA
ENDBRANCH  28  29
ENDBRANCH  26  28
ENDBRANCH  23  26
ENDBRANCH   5  23
TORSDOF 8
ENDMDL
MODEL 2
REMARK VINA RESULT:      -8.5      2.475      3.786
REMARK  Name = 
REMARK  9 active torsions:
REMARK  status: ('A' for Active; 'I' for Inactive)
REMARK    1  A    between atoms: C_1  and  N_2
REMARK    2  A    between atoms: C_5  and  N_6
REMARK    3  A    between atoms: N_6  and  C_7
REMARK    4  A    between atoms: C_7  and  C_8
REMARK    5  A    between atoms: C_11  and  C_12
REMARK    6  A    between atoms: C_16  and  S_17
REMARK    7  A    between atoms: S_17  and  N_20
REMARK    8  A    between atoms: N_20  and  C_21
REMARK    9  A    between atoms: C_21  and  C_22
REMARK                            x       y       z     vdW  Elec       q    Type
REMARK                         _______ _______ _______ _____ _____    ______ ____
ROOT
ATOM      1  C   UNL     1       3.387   6.230  18.717  0.00  0.00    +0.000 A 
ATOM      2  C   UNL     1       2.881   4.923  18.843  0.00  0.00    +0.000 A 
ATOM      3  C   UNL     1       3.713   3.801  18.765  0.00  0.00    +0.000 A 
ATOM      4  C   UNL     1       5.070   3.955  18.501  0.00  0.00    +0.000 A 
ATOM      5  C   UNL     1       5.588   5.239  18.339  0.00  0.00    +0.000 A 
ATOM      6  C   UNL     1       4.766   6.366  18.502  0.00  0.00    +0.000 A 
ENDROOT
BRANCH   1  10
ATOM      7  C   UNL     1       0.800   9.666  19.107  0.00  0.00    +0.000 A 
ATOM      8  C   UNL     1       1.081   8.847  20.203  0.00  0.00    +0.000 A 
ATOM      9  C   UNL     1       1.929   7.747  20.065  0.00  0.00    +0.000 A 
ATOM     10  C   UNL     1       2.501   7.406  18.832  0.00  0.00    +0.000 A 
ATOM     11  C   UNL     1       2.193   8.226  17.728  0.00  0.00    +0.000 A 
ATOM     12  C   UNL     1       1.361   9.344  17.865  0.00  0.00    +0.000 A 
BRANCH   7  13
ATOM     13  C   UNL     1      -0.104  10.867  19.254  0.00  0.00    +0.000 C 
BRANCH  13  14
ATOM     14  N   UNL     1      -0.747  11.213  17.986  0.00  0.00    +0.000 NA
ATOM     15  H   UNL     1      -0.553  12.190  17.771  0.00  0.00    +0.000 HD
BRANCH  14  20
ATOM     16  C   UNL     1      -6.383  11.865  17.619  0.00  0.00    +0.000 C 
ATOM     17  N   UNL     1      -4.928  12.002  17.597  0.00  0.00    +0.000 NA
ATOM     18  C   UNL     1      -4.371  11.873  18.950  0.00  0.00    +0.000 C 
ATOM     19  C   UNL     1      -2.848  12.016  18.951  0.00  0.00    +0.000 C 
ATOM     20  C   UNL     1      -2.201  11.003  17.997  0.00  0.00    +0.000 C 
ATOM     21  C   UNL     1      -2.827  11.155  16.606  0.00  0.00    +0.000 C 
ATOM     22  C   UNL     1      -4.344  11.022  16.676  0.00  0.00    +0.000 C 
ENDBRANCH  14  20
ENDBRANCH  13  14
ENDBRANCH   7  13
ENDBRANCH   1  10
BRANCH   5  23
ATOM     23  S   UNL     1       7.316   5.462  17.964  0.00  0.00    +0.000 S 
ATOM     24  O   UNL     1       7.661   6.818  18.320  0.00  0.00    +0.000 OA
ATOM     25  O   UNL     1       8.040   4.323  18.493  0.00  0.00    +0.000 OA
BRANCH  23  26
ATOM     26  N   UNL     1       7.383   5.323  16.288  0.00  0.00    +0.000 NA
ATOM     27  H   UNL     1       8.324   5.399  15.897  0.00  0.00    +0.000 HD
BRANCH  26  28
ATOM     28  C   UNL     1       6.486   4.370  15.621  0.00  0.00    +0.000 C 
BRANCH  28  29
ATOM     29  C   UNL     1       6.269   4.734  14.156  0.00  0.00    +0.000 C 
ATOM     30  C   UNL     1       6.196   3.485  13.287  0.00  0.00    +0.000 C 
ATOM     31  C   UNL     1       6.720   3.984  11.968  0.00  0.00    +0.000 C 
ATOM     32  C   UNL     1       7.789   4.966  12.395  0.00  0.00    +0.000 C 
ATOM     33  O   UNL     1       7.397   5.491  13.671  0.00  0.00    +0.000 OA
ENDBRANCH  28  29
ENDBRANCH  26  28
ENDBRANCH  23  26
ENDBRANCH   5  23
TORSDOF 8
ENDMDL
MODEL 3
REMARK VINA RESULT:      -8.5      2.436      3.367
REMARK  Name = 
REMARK  9 active torsions:
REMARK  status: ('A' for Active; 'I' for Inactive)
REMARK    1  A    between atoms: C_1  and  N_2
REMARK    2  A    between atoms: C_5  and  N_6
REMARK    3  A    between atoms: N_6  and  C_7
REMARK    4  A    between atoms: C_7  and  C_8
REMARK    5  A    between atoms: C_11  and  C_12
REMARK    6  A    between atoms: C_16  and  S_17
REMARK    7  A    between atoms: S_17  and  N_20
REMARK    8  A    between atoms: N_20  and  C_21
REMARK    9  A    between atoms: C_21  and  C_22
REMARK                            x       y       z     vdW  Elec       q    Type
REMARK                         _______ _______ _______ _____ _____    ______ ____
ROOT
ATOM      1  C   UNL     1       3.295   6.328  18.113  0.00  0.00    +0.000 A 
ATOM      2  C   UNL     1       2.798   5.023  18.285  0.00  0.00    +0.000 A 
ATOM      3  C   UNL     1       3.535   3.898  17.899  0.00  0.00    +0.000 A 
ATOM      4  C   UNL     1       4.770   4.053  17.277  0.00  0.00    +0.000 A 
ATOM      5  C   UNL     1       5.268   5.337  17.066  0.00  0.00    +0.000 A 
ATOM      6  C   UNL     1       4.564   6.460  17.531  0.00  0.00    +0.000 A 
ENDROOT
BRANCH   1  10
ATOM      7  C   UNL     1       1.030   9.754  19.452  0.00  0.00    +0.000 A 
ATOM      8  C   UNL     1       1.297   8.685  20.311  0.00  0.00    +0.000 A 
ATOM      9  C   UNL     1       2.041   7.590  19.869  0.00  0.00    +0.000 A 
ATOM     10  C   UNL     1       2.518   7.505  18.553  0.00  0.00    +0.000 A 
ATOM     11  C   UNL     1       2.224   8.578  17.689  0.00  0.00    +0.000 A 
ATOM     12  C   UNL     1       1.498   9.690  18.134  0.00  0.00    +0.000 A 
BRANCH   7  13
ATOM     13  C   UNL     1       0.239  10.947  19.930  0.00  0.00    +0.000 C 
BRANCH  13  14
ATOM     14  N   UNL     1      -0.320  10.720  21.263  0.00  0.00    +0.000 NA
ATOM     15  H   UNL     1      -0.919   9.896  21.236  0.00  0.00    +0.000 HD
BRANCH  14  20
ATOM     16  C   UNL     1      -4.492  14.227  22.882  0.00  0.00    +0.000 C 
ATOM     17  N   UNL     1      -3.664  13.115  22.419  0.00  0.00    +0.000 NA
ATOM     18  C   UNL     1      -2.949  13.474  21.188  0.00  0.00    +0.000 C 
ATOM     19  C   UNL     1      -2.078  12.321  20.683  0.00  0.00    +0.000 C 
ATOM     20  C   UNL     1      -1.095  11.861  21.769  0.00  0.00    +0.000 C 
ATOM     21  C   UNL     1      -1.879  11.522  23.042  0.00  0.00    +0.000 C 
ATOM     22  C   UNL     1      -2.741  12.700  23.479  0.00  0.00    +0.000 C 
ENDBRANCH  14  20
ENDBRANCH  13  14
ENDBRANCH   7  13
ENDBRANCH   1  10
BRANCH   5  23
ATOM     23  S   UNL     1       6.829   5.563  16.238  0.00  0.00    +0.000 S 
ATOM     24  O   UNL     1       7.346   6.851  16.640  0.00  0.00    +0.000 OA
ATOM     25  O   UNL     1       7.600   4.346  16.396  0.00  0.00    +0.000 OA
BRANCH  23  26
ATOM     26  N   UNL     1       6.412   5.647  14.610  0.00  0.00    +0.000 NA
ATOM     27  H   UNL     1       6.193   6.588  14.280  0.00  0.00    +0.000 HD
BRANCH  26  28
ATOM     28  C   UNL     1       7.113   4.778  13.655  0.00  0.00    +0.000 C 
BRANCH  28  29
ATOM     29  C   UNL     1       6.273   3.559  13.284  0.00  0.00    +0.000 C 
ATOM     30  C   UNL     1       6.794   2.905  12.011  0.00  0.00    +0.000 C 
ATOM     31  C   UNL     1       5.544   2.300  11.431  0.00  0.00    +0.000 C 
ATOM     32  C   UNL     1       4.492   3.327  11.788  0.00  0.00    +0.000 C 
ATOM     33  O   UNL     1       4.920   3.971  12.996  0.00  0.00    +0.000 OA
ENDBRANCH  28  29
ENDBRANCH  26  28
ENDBRANCH  23  26
ENDBRANCH   5  23
TORSDOF 8
ENDMDL
MODEL 4
REMARK VINA RESULT:      -8.4      2.299      3.296
REMARK  Name = 
REMARK  9 active torsions:
REMARK  status: ('A' for Active; 'I' for Inactive)
REMARK    1  A    between atoms: C_1  and  N_2
REMARK    2  A    between atoms: C_5  and  N_6
REMARK    3  A    between atoms: N_6  and  C_7
REMARK    4  A    between atoms: C_7  and  C_8
REMARK    5  A    between atoms: C_11  and  C_12
REMARK    6  A    between atoms: C_16  and  S_17
REMARK    7  A    between atoms: S_17  and  N_20
REMARK    8  A    between atoms: N_20  and  C_21
REMARK    9  A    between atoms: C_21  and  C_22
REMARK                            x       y       z     vdW  Elec       q    Type
REMARK                         _______ _______ _______ _____ _____    ______ ____
ROOT
ATOM      1  C   UNL     1       3.186   6.346  17.983  0.00  0.00    +0.000 A 
ATOM      2  C   UNL     1       2.581   5.079  17.893  0.00  0.00    +0.000 A 
ATOM      3  C   UNL     1       3.270   3.968  17.394  0.00  0.00    +0.000 A 
ATOM      4  C   UNL     1       4.569   4.109  16.918  0.00  0.00    +0.000 A 
ATOM      5  C   UNL     1       5.178   5.361  16.967  0.00  0.00    +0.000 A 
ATOM      6  C   UNL     1       4.514   6.455  17.545  0.00  0.00    +0.000 A 
ENDROOT
BRANCH   1  10
ATOM      7  C   UNL     1       1.044   9.748  19.562  0.00  0.00    +0.000 A 
ATOM      8  C   UNL     1       1.493   9.728  18.239  0.00  0.00    +0.000 A 
ATOM      9  C   UNL     1       2.173   8.618  17.738  0.00  0.00    +0.000 A 
ATOM     10  C   UNL     1       2.456   7.503  18.540  0.00  0.00    +0.000 A 
ATOM     11  C   UNL     1       2.019   7.543  19.879  0.00  0.00    +0.000 A 
ATOM     12  C   UNL     1       1.316   8.645  20.380  0.00  0.00    +0.000 A 
BRANCH   7  13
ATOM     13  C   UNL     1       0.294  10.941  20.103  0.00  0.00    +0.000 C 
BRANCH  13  14
ATOM     14  N   UNL     1      -0.704  11.425  19.149  0.00  0.00    +0.000 NA
ATOM     15  H   UNL     1      -0.233  11.950  18.413  0.00  0.00    +0.000 HD
BRANCH  14  20
ATOM     16  C   UNL     1      -5.259  13.373  21.937  0.00  0.00    +0.000 C 
ATOM     17  N   UNL     1      -4.191  12.582  21.329  0.00  0.00    +0.000 NA
ATOM     18  C   UNL     1      -4.216  12.710  19.866  0.00  0.00    +0.000 C 
ATOM     19  C   UNL     1      -3.106  11.886  19.208  0.00  0.00    +0.000 C 
ATOM     20  C   UNL     1      -1.730  12.277  19.765  0.00  0.00    +0.000 C 
ATOM     21  C   UNL     1      -1.756  12.155  21.292  0.00  0.00    +0.000 C 
ATOM     22  C   UNL     1      -2.893  12.980  21.884  0.00  0.00    +0.000 C 
ENDBRANCH  14  20
ENDBRANCH  13  14
ENDBRANCH   7  13
ENDBRANCH   1  10
BRANCH   5  23
ATOM     23  S   UNL     1       6.828   5.576  16.329  0.00  0.00    +0.000 S 
ATOM     24  O   UNL     1       7.179   6.967  16.504  0.00  0.00    +0.000 OA
ATOM     25  O   UNL     1       7.653   4.506  16.853  0.00  0.00    +0.000 OA
BRANCH  23  26
ATOM     26  N   UNL     1       6.663   5.277  14.680  0.00  0.00    +0.000 NA
ATOM     27  H   UNL     1       7.256   5.858  14.087  0.00  0.00    +0.000 HD
BRANCH  26  28
ATOM     28  C   UNL     1       6.463   3.893  14.230  0.00  0.00    +0.000 C 
BRANCH  28  29
ATOM     29  C   UNL     1       6.102   3.831  12.750  0.00  0.00    +0.000 C 
ATOM     30  C   UNL     1       4.599   3.669  12.560  0.00  0.00    +0.000 C 
ATOM     31  C   UNL     1       4.522   2.917  11.259  0.00  0.00    +0.000 C 
ATOM     32  C   UNL     1       5.725   2.003  11.342  0.00  0.00    +0.000 C 
ATOM     33  O   UNL     1       6.707   2.666  12.151  0.00  0.00    +0.000 OA
ENDBRANCH  28  29
ENDBRANCH  26  28
ENDBRANCH  23  26
ENDBRANCH   5  23
TORSDOF 8
ENDMDL
MODEL 5
REMARK VINA RESULT:      -8.3      2.757      4.550
REMARK  Name = 
REMARK  9 active torsions:
REMARK  status: ('A' for Active; 'I' for Inactive)
REMARK    1  A    between atoms: C_1  and  N_2
REMARK    2  A    between atoms: C_5  and  N_6
REMARK    3  A    between atoms: N_6  and  C_7
REMARK    4  A    between atoms: C_7  and  C_8
REMARK    5  A    between atoms: C_11  and  C_12
REMARK    6  A    between atoms: C_16  and  S_17
REMARK    7  A    between atoms: S_17  and  N_20
REMARK    8  A    between atoms: N_20  and  C_21
REMARK    9  A    between atoms: C_21  and  C_22
REMARK                            x       y       z     vdW  Elec       q    Type
REMARK                         _______ _______ _______ _____ _____    ______ ____
ROOT
ATOM      1  C   UNL     1       2.030   6.220  19.935  0.00  0.00    +0.000 A 
ATOM      2  C   UNL     1       1.887   5.478  21.123  0.00  0.00    +0.000 A 
ATOM      3  C   UNL     1       2.265   4.134  21.200  0.00  0.00    +0.000 A 
ATOM      4  C   UNL     1       2.745   3.477  20.071  0.00  0.00    +0.000 A 
ATOM      5  C   UNL     1       2.864   4.183  18.875  0.00  0.00    +0.000 A 
ATOM      6  C   UNL     1       2.563   5.554  18.823  0.00  0.00    +0.000 A 
ENDROOT
BRANCH   1  10
ATOM      7  C   UNL     1       0.936  10.392  19.711  0.00  0.00    +0.000 A 
ATOM      8  C   UNL     1       1.464   9.725  18.603  0.00  0.00    +0.000 A 
ATOM      9  C   UNL     1       1.802   8.373  18.686  0.00  0.00    +0.000 A 
ATOM     10  C   UNL     1       1.655   7.648  19.877  0.00  0.00    +0.000 A 
ATOM     11  C   UNL     1       1.142   8.337  20.994  0.00  0.00    +0.000 A 
ATOM     12  C   UNL     1       0.780   9.687  20.910  0.00  0.00    +0.000 A 
BRANCH   7  13
ATOM     13  C   UNL     1       0.555  11.850  19.621  0.00  0.00    +0.000 C 
BRANCH  13  14
ATOM     14  N   UNL     1       0.101  12.204  18.276  0.00  0.00    +0.000 NA
ATOM     15  H   UNL     1       0.534  13.084  17.999  0.00  0.00    +0.000 HD
BRANCH  14  20
ATOM     16  C   UNL     1      -5.508  11.285  18.421  0.00  0.00    +0.000 C 
ATOM     17  N   UNL     1      -4.051  11.229  18.529  0.00  0.00    +0.000 NA
ATOM     18  C   UNL     1      -3.428  11.261  17.200  0.00  0.00    +0.000 C 
ATOM     19  C   UNL     1      -1.901  11.201  17.290  0.00  0.00    +0.000 C 
ATOM     20  C   UNL     1      -1.359  12.333  18.172  0.00  0.00    +0.000 C 
ATOM     21  C   UNL     1      -2.053  12.279  19.537  0.00  0.00    +0.000 C 
ATOM     22  C   UNL     1      -3.568  12.322  19.379  0.00  0.00    +0.000 C 
ENDBRANCH  14  20
ENDBRANCH  13  14
ENDBRANCH   7  13
ENDBRANCH   1  10
BRANCH   5  23
ATOM     23  S   UNL     1       3.440   3.356  17.406  0.00  0.00    +0.000 S 
ATOM     24  O   UNL     1       4.205   2.207  17.832  0.00  0.00    +0.000 OA
ATOM     25  O   UNL     1       2.322   3.235  16.492  0.00  0.00    +0.000 OA
BRANCH  23  26
ATOM     26  N   UNL     1       4.497   4.465  16.709  0.00  0.00    +0.000 NA
ATOM     27  H   UNL     1       4.551   5.359  17.200  0.00  0.00    +0.000 HD
BRANCH  26  28
ATOM     28  C   UNL     1       5.754   3.975  16.128  0.00  0.00    +0.000 C 
BRANCH  28  29
ATOM     29  C   UNL     1       6.963   4.702  16.709  0.00  0.00    +0.000 C 
ATOM     30  C   UNL     1       6.847   4.831  18.223  0.00  0.00    +0.000 C 
ATOM     31  C   UNL     1       7.610   6.099  18.493  0.00  0.00    +0.000 C 
ATOM     32  C   UNL     1       7.266   6.947  17.287  0.00  0.00    +0.000 C 
ATOM     33  O   UNL     1       7.011   6.050  16.197  0.00  0.00    +0.000 OA
ENDBRANCH  28  29
ENDBRANCH  26  28
ENDBRANCH  23  26
ENDBRANCH   5  23
TORSDOF 8
ENDMDL
MODEL 6
REMARK VINA RESULT:      -8.3      1.151      1.477
REMARK  Name = 
REMARK  9 active torsions:
REMARK  status: ('A' for Active; 'I' for Inactive)
REMARK    1  A    between atoms: C_1  and  N_2
REMARK    2  A    between atoms: C_5  and  N_6
REMARK    3  A    between atoms: N_6  and  C_7
REMARK    4  A    between atoms: C_7  and  C_8
REMARK    5  A    between atoms: C_11  and  C_12
REMARK    6  A    between atoms: C_16  and  S_17
REMARK    7  A    between atoms: S_17  and  N_20
REMARK    8  A    between atoms: N_20  and  C_21
REMARK    9  A    between atoms: C_21  and  C_22
REMARK                            x       y       z     vdW  Elec       q    Type
REMARK                         _______ _______ _______ _____ _____    ______ ____
ROOT
ATOM      1  C   UNL     1       3.182   6.429  18.347  0.00  0.00    +0.000 A 
ATOM      2  C   UNL     1       2.608   5.171  18.088  0.00  0.00    +0.000 A 
ATOM      3  C   UNL     1       3.389   4.060  17.753  0.00  0.00    +0.000 A 
ATOM      4  C   UNL     1       4.767   4.193  17.612  0.00  0.00    +0.000 A 
ATOM      5  C   UNL     1       5.355   5.437  17.831  0.00  0.00    +0.000 A 
ATOM      6  C   UNL     1       4.578   6.529  18.250  0.00  0.00    +0.000 A 
ENDROOT
BRANCH   1  10
ATOM      7  C   UNL     1       0.732   9.821  19.415  0.00  0.00    +0.000 A 
ATOM      8  C   UNL     1       1.197   9.651  18.109  0.00  0.00    +0.000 A 
ATOM      9  C   UNL     1       1.978   8.543  17.775  0.00  0.00    +0.000 A 
ATOM     10  C   UNL     1       2.347   7.585  18.730  0.00  0.00    +0.000 A 
ATOM     11  C   UNL     1       1.890   7.780  20.049  0.00  0.00    +0.000 A 
ATOM     12  C   UNL     1       1.088   8.877  20.385  0.00  0.00    +0.000 A 
BRANCH   7  13
ATOM     13  C   UNL     1      -0.126  11.010  19.777  0.00  0.00    +0.000 C 
BRANCH  13  14
ATOM     14  N   UNL     1      -0.032  12.066  18.769  0.00  0.00    +0.000 NA
ATOM     15  H   UNL     1       0.346  11.672  17.908  0.00  0.00    +0.000 HD
BRANCH  14  20
ATOM     16  C   UNL     1       4.099  15.317  20.936  0.00  0.00    +0.000 C 
ATOM     17  N   UNL     1       3.235  14.236  20.465  0.00  0.00    +0.000 NA
ATOM     18  C   UNL     1       1.953  14.244  21.181  0.00  0.00    +0.000 C 
ATOM     19  C   UNL     1       1.033  13.117  20.706  0.00  0.00    +0.000 C 
ATOM     20  C   UNL     1       0.809  13.195  19.189  0.00  0.00    +0.000 C 
ATOM     21  C   UNL     1       2.169  13.211  18.483  0.00  0.00    +0.000 C 
ATOM     22  C   UNL     1       3.044  14.341  19.015  0.00  0.00    +0.000 C 
ENDBRANCH  14  20
ENDBRANCH  13  14
ENDBRANCH   7  13
ENDBRANCH   1  10
BRANCH   5  23
ATOM     23  S   UNL     1       7.112   5.642  17.621  0.00  0.00    +0.000 S 
ATOM     24  O   UNL     1       7.481   6.879  18.271  0.00  0.00    +0.000 OA
ATOM     25  O   UNL     1       7.753   4.384  17.949  0.00  0.00    +0.000 OA
BRANCH  23  26
ATOM     26  N   UNL     1       7.297   5.843  15.960  0.00  0.00    +0.000 NA
ATOM     27  H   UNL     1       7.874   6.643  15.695  0.00  0.00    +0.000 HD
BRANCH  26  28
ATOM     28  C   UNL     1       7.427   4.649  15.114  0.00  0.00    +0.000 C 
BRANCH  28  29
ATOM     29  C   UNL     1       6.607   4.777  13.834  0.00  0.00    +0.000 C 
ATOM     30  C   UNL     1       5.508   3.723  13.782  0.00  0.00    +0.000 C 
ATOM     31  C   UNL     1       5.344   3.507  12.302  0.00  0.00    +0.000 C 
ATOM     32  C   UNL     1       6.765   3.641  11.797  0.00  0.00    +0.000 C 
ATOM     33  O   UNL     1       7.451   4.529  12.690  0.00  0.00    +0.000 OA
ENDBRANCH  28  29
ENDBRANCH  26  28
ENDBRANCH  23  26
ENDBRANCH   5  23
TORSDOF 8
ENDMDL
MODEL 7
REMARK VINA RESULT:      -8.3      1.160      1.854
REMARK  Name = 
REMARK  9 active torsions:
REMARK  status: ('A' for Active; 'I' for Inactive)
REMARK    1  A    between atoms: C_1  and  N_2
REMARK    2  A    between atoms: C_5  and  N_6
REMARK    3  A    between atoms: N_6  and  C_7
REMARK    4  A    between atoms: C_7  and  C_8
REMARK    5  A    between atoms: C_11  and  C_12
REMARK    6  A    between atoms: C_16  and  S_17
REMARK    7  A    between atoms: S_17  and  N_20
REMARK    8  A    between atoms: N_20  and  C_21
REMARK    9  A    between atoms: C_21  and  C_22
REMARK                            x       y       z     vdW  Elec       q    Type
REMARK                         _______ _______ _______ _____ _____    ______ ____
ROOT
ATOM      1  C   UNL     1       3.270   6.178  18.602  0.00  0.00    +0.000 A 
ATOM      2  C   UNL     1       2.701   4.891  18.645  0.00  0.00    +0.000 A 
ATOM      3  C   UNL     1       3.477   3.738  18.485  0.00  0.00    +0.000 A 
ATOM      4  C   UNL     1       4.839   3.845  18.220  0.00  0.00    +0.000 A 
ATOM      5  C   UNL     1       5.418   5.109  18.140  0.00  0.00    +0.000 A 
ATOM      6  C   UNL     1       4.652   6.261  18.385  0.00  0.00    +0.000 A 
ENDROOT
BRANCH   1  10
ATOM      7  C   UNL     1       0.856   9.701  19.244  0.00  0.00    +0.000 A 
ATOM      8  C   UNL     1       1.117   8.807  20.284  0.00  0.00    +0.000 A 
ATOM      9  C   UNL     1       1.909   7.679  20.066  0.00  0.00    +0.000 A 
ATOM     10  C   UNL     1       2.443   7.385  18.803  0.00  0.00    +0.000 A 
ATOM     11  C   UNL     1       2.154   8.282  17.756  0.00  0.00    +0.000 A 
ATOM     12  C   UNL     1       1.379   9.428  17.975  0.00  0.00    +0.000 A 
BRANCH   7  13
ATOM     13  C   UNL     1       0.013  10.931  19.479  0.00  0.00    +0.000 C 
BRANCH  13  14
ATOM     14  N   UNL     1      -0.225  11.665  18.236  0.00  0.00    +0.000 NA
ATOM     15  H   UNL     1       0.369  11.279  17.503  0.00  0.00    +0.000 HD
BRANCH  14  20
ATOM     16  C   UNL     1       1.262  16.834  20.077  0.00  0.00    +0.000 C 
ATOM     17  N   UNL     1       1.010  15.407  19.887  0.00  0.00    +0.000 NA
ATOM     18  C   UNL     1      -0.430  15.144  19.772  0.00  0.00    +0.000 C 
ATOM     19  C   UNL     1      -0.718  13.653  19.575  0.00  0.00    +0.000 C 
ATOM     20  C   UNL     1       0.035  13.106  18.354  0.00  0.00    +0.000 C 
ATOM     21  C   UNL     1       1.527  13.425  18.502  0.00  0.00    +0.000 C 
ATOM     22  C   UNL     1       1.744  14.918  18.716  0.00  0.00    +0.000 C 
ENDBRANCH  14  20
ENDBRANCH  13  14
ENDBRANCH   7  13
ENDBRANCH   1  10
BRANCH   5  23
ATOM     23  S   UNL     1       7.152   5.274  17.765  0.00  0.00    +0.000 S 
ATOM     24  O   UNL     1       7.367   6.628  17.310  0.00  0.00    +0.000 OA
ATOM     25  O   UNL     1       7.904   4.708  18.867  0.00  0.00    +0.000 OA
BRANCH  23  26
ATOM     26  N   UNL     1       7.380   4.236  16.459  0.00  0.00    +0.000 NA
ATOM     27  H   UNL     1       8.015   3.459  16.646  0.00  0.00    +0.000 HD
BRANCH  26  28
ATOM     28  C   UNL     1       6.237   3.937  15.587  0.00  0.00    +0.000 C 
BRANCH  28  29
ATOM     29  C   UNL     1       6.320   4.703  14.270  0.00  0.00    +0.000 C 
ATOM     30  C   UNL     1       6.334   3.748  13.083  0.00  0.00    +0.000 C 
ATOM     31  C   UNL     1       7.124   4.522  12.062  0.00  0.00    +0.000 C 
ATOM     32  C   UNL     1       8.153   5.228  12.918  0.00  0.00    +0.000 C 
ATOM     33  O   UNL     1       7.564   5.432  14.210  0.00  0.00    +0.000 OA
ENDBRANCH  28  29
ENDBRANCH  26  28
ENDBRANCH  23  26
ENDBRANCH   5  23
TORSDOF 8
ENDMDL
MODEL 8
REMARK VINA RESULT:      -8.2      2.252      3.424
REMARK  Name = 
REMARK  9 active torsions:
REMARK  status: ('A' for Active; 'I' for Inactive)
REMARK    1  A    between atoms: C_1  and  N_2
REMARK    2  A    between atoms: C_5  and  N_6
REMARK    3  A    between atoms: N_6  and  C_7
REMARK    4  A    between atoms: C_7  and  C_8
REMARK    5  A    between atoms: C_11  and  C_12
REMARK    6  A    between atoms: C_16  and  S_17
REMARK    7  A    between atoms: S_17  and  N_20
REMARK    8  A    between atoms: N_20  and  C_21
REMARK    9  A    between atoms: C_21  and  C_22
REMARK                            x       y       z     vdW  Elec       q    Type
REMARK                         _______ _______ _______ _____ _____    ______ ____
ROOT
ATOM      1  C   UNL     1       3.322   6.311  18.439  0.00  0.00    +0.000 A 
ATOM      2  C   UNL     1       2.749   5.026  18.471  0.00  0.00    +0.000 A 
ATOM      3  C   UNL     1       3.516   3.874  18.274  0.00  0.00    +0.000 A 
ATOM      4  C   UNL     1       4.872   3.980  17.980  0.00  0.00    +0.000 A 
ATOM      5  C   UNL     1       5.455   5.243  17.910  0.00  0.00    +0.000 A 
ATOM      6  C   UNL     1       4.700   6.393  18.192  0.00  0.00    +0.000 A 
ENDROOT
BRANCH   1  10
ATOM      7  C   UNL     1       0.932   9.850  19.089  0.00  0.00    +0.000 A 
ATOM      8  C   UNL     1       1.568   9.624  17.866  0.00  0.00    +0.000 A 
ATOM      9  C   UNL     1       2.327   8.470  17.665  0.00  0.00    +0.000 A 
ATOM     10  C   UNL     1       2.505   7.518  18.679  0.00  0.00    +0.000 A 
ATOM     11  C   UNL     1       1.877   7.767  19.916  0.00  0.00    +0.000 A 
ATOM     12  C   UNL     1       1.095   8.911  20.115  0.00  0.00    +0.000 A 
BRANCH   7  13
ATOM     13  C   UNL     1       0.097  11.089  19.306  0.00  0.00    +0.000 C 
BRANCH  13  14
ATOM     14  N   UNL     1      -0.860  11.287  18.217  0.00  0.00    +0.000 NA
ATOM     15  H   UNL     1      -0.686  12.192  17.781  0.00  0.00    +0.000 HD
BRANCH  14  20
ATOM     16  C   UNL     1      -6.322  12.443  19.291  0.00  0.00    +0.000 C 
ATOM     17  N   UNL     1      -4.928  12.429  18.851  0.00  0.00    +0.000 NA
ATOM     18  C   UNL     1      -4.018  12.442  20.004  0.00  0.00    +0.000 C 
ATOM     19  C   UNL     1      -2.552  12.430  19.566  0.00  0.00    +0.000 C 
ATOM     20  C   UNL     1      -2.260  11.228  18.657  0.00  0.00    +0.000 C 
ATOM     21  C   UNL     1      -3.247  11.238  17.484  0.00  0.00    +0.000 C 
ATOM     22  C   UNL     1      -4.686  11.271  17.985  0.00  0.00    +0.000 C 
ENDBRANCH  14  20
ENDBRANCH  13  14
ENDBRANCH   7  13
ENDBRANCH   1  10
BRANCH   5  23
ATOM     23  S   UNL     1       7.181   5.408  17.499  0.00  0.00    +0.000 S 
ATOM     24  O   UNL     1       7.428   6.806  17.234  0.00  0.00    +0.000 OA
ATOM     25  O   UNL     1       7.947   4.668  18.482  0.00  0.00    +0.000 OA
BRANCH  23  26
ATOM     26  N   UNL     1       7.332   4.561  16.052  0.00  0.00    +0.000 NA
ATOM     27  H   UNL     1       7.462   3.555  16.166  0.00  0.00    +0.000 HD
BRANCH  26  28
ATOM     28  C   UNL     1       6.518   4.978  14.902  0.00  0.00    +0.000 C 
BRANCH  28  29
ATOM     29  C   UNL     1       6.203   3.802  13.983  0.00  0.00    +0.000 C 
ATOM     30  C   UNL     1       7.039   3.863  12.711  0.00  0.00    +0.000 C 
ATOM     31  C   UNL     1       6.144   3.184  11.710  0.00  0.00    +0.000 C 
ATOM     32  C   UNL     1       4.768   3.640  12.145  0.00  0.00    +0.000 C 
ATOM     33  O   UNL     1       4.825   3.874  13.558  0.00  0.00    +0.000 OA
ENDBRANCH  28  29
ENDBRANCH  26  28
ENDBRANCH  23  26
ENDBRANCH   5  23
TORSDOF 8
ENDMDL
MODEL 9
REMARK VINA RESULT:      -8.2      2.417      3.886
REMARK  Name = 
REMARK  9 active torsions:
REMARK  status: ('A' for Active; 'I' for Inactive)
REMARK    1  A    between atoms: C_1  and  N_2
REMARK    2  A    between atoms: C_5  and  N_6
REMARK    3  A    between atoms: N_6  and  C_7
REMARK    4  A    between atoms: C_7  and  C_8
REMARK    5  A    between atoms: C_11  and  C_12
REMARK    6  A    between atoms: C_16  and  S_17
REMARK    7  A    between atoms: S_17  and  N_20
REMARK    8  A    between atoms: N_20  and  C_21
REMARK    9  A    between atoms: C_21  and  C_22
REMARK                            x       y       z     vdW  Elec       q    Type
REMARK                         _______ _______ _______ _____ _____    ______ ____
ROOT
ATOM      1  C   UNL     1       2.383   6.595  18.534  0.00  0.00    +0.000 A 
ATOM      2  C   UNL     1       1.567   5.719  17.795  0.00  0.00    +0.000 A 
ATOM      3  C   UNL     1       1.946   4.396  17.544  0.00  0.00    +0.000 A 
ATOM      4  C   UNL     1       3.183   3.930  17.978  0.00  0.00    +0.000 A 
ATOM      5  C   UNL     1       4.022   4.790  18.684  0.00  0.00    +0.000 A 
ATOM      6  C   UNL     1       3.603   6.091  19.007  0.00  0.00    +0.000 A 
ENDROOT
BRANCH   1  10
ATOM      7  C   UNL     1       1.130  10.633  19.417  0.00  0.00    +0.000 A 
ATOM      8  C   UNL     1       1.015   9.618  20.369  0.00  0.00    +0.000 A 
ATOM      9  C   UNL     1       1.435   8.321  20.075  0.00  0.00    +0.000 A 
ATOM     10  C   UNL     1       1.955   7.980  18.818  0.00  0.00    +0.000 A 
ATOM     11  C   UNL     1       2.045   9.007  17.858  0.00  0.00    +0.000 A 
ATOM     12  C   UNL     1       1.647  10.316  18.155  0.00  0.00    +0.000 A 
BRANCH   7  13
ATOM     13  C   UNL     1       0.691  12.042  19.736  0.00  0.00    +0.000 C 
BRANCH  13  14
ATOM     14  N   UNL     1      -0.283  12.534  18.761  0.00  0.00    +0.000 NA
ATOM     15  H   UNL     1      -0.413  13.535  18.898  0.00  0.00    +0.000 HD
BRANCH  14  20
ATOM     16  C   UNL     1      -5.792  11.183  18.380  0.00  0.00    +0.000 C 
ATOM     17  N   UNL     1      -4.463  11.786  18.294  0.00  0.00    +0.000 NA
ATOM     18  C   UNL     1      -3.972  12.156  19.627  0.00  0.00    +0.000 C 
ATOM     19  C   UNL     1      -2.581  12.793  19.560  0.00  0.00    +0.000 C 
ATOM     20  C   UNL     1      -1.586  11.863  18.853  0.00  0.00    +0.000 C 
ATOM     21  C   UNL     1      -2.149  11.480  17.479  0.00  0.00    +0.000 C 
ATOM     22  C   UNL     1      -3.540  10.873  17.613  0.00  0.00    +0.000 C 
ENDBRANCH  14  20
ENDBRANCH  13  14
ENDBRANCH   7  13
ENDBRANCH   1  10
BRANCH   5  23
ATOM     23  S   UNL     1       5.627   4.229  19.219  0.00  0.00    +0.000 S 
ATOM     24  O   UNL     1       6.263   5.333  19.900  0.00  0.00    +0.000 OA
ATOM     25  O   UNL     1       5.461   2.934  19.849  0.00  0.00    +0.000 OA
BRANCH  23  26
ATOM     26  N   UNL     1       6.455   3.949  17.780  0.00  0.00    +0.000 NA
ATOM     27  H   UNL     1       6.039   3.227  17.190  0.00  0.00    +0.000 HD
BRANCH  26  28
ATOM     28  C   UNL     1       7.051   5.091  17.075  0.00  0.00    +0.000 C 
BRANCH  28  29
ATOM     29  C   UNL     1       6.450   5.268  15.684  0.00  0.00    +0.000 C 
ATOM     30  C   UNL     1       5.759   3.992  15.221  0.00  0.00    +0.000 C 
ATOM     31  C   UNL     1       5.912   4.072  13.726  0.00  0.00    +0.000 C 
ATOM     32  C   UNL     1       7.281   4.699  13.575  0.00  0.00    +0.000 C 
ATOM     33  O   UNL     1       7.502   5.521  14.729  0.00  0.00    +0.000 OA
ENDBRANCH  28  29
ENDBRANCH  26  28
ENDBRANCH  23  26
ENDBRANCH   5  23
TORSDOF 8
ENDMDL
