MODEL 1
REMARK VINA RESULT:      -6.4      0.000      0.000
REMARK  Name = 
REMARK  5 active torsions:
REMARK  status: ('A' for Active; 'I' for Inactive)
REMARK    1  A    between atoms: C_1  and  C_2
REMARK    2  A    between atoms: C_2  and  O_3
REMARK    3  A    between atoms: O_3  and  C_4
REMARK    4  A    between atoms: C_8  and  C_9
REMARK    5  A    between atoms: C_17  and  C_18
REMARK                            x       y       z     vdW  Elec       q    Type
REMARK                         _______ _______ _______ _____ _____    ______ ____
ROOT
ATOM      1  C   UNL     1      -3.522  11.696  18.479  0.00  0.00    +0.000 A 
ATOM      2  N   UNL     1      -4.801  11.344  18.624  0.00  0.00    +0.000 NA
ATOM      3  C   UNL     1      -5.467  11.763  19.724  0.00  0.00    +0.000 A 
ATOM      4  C   UNL     1      -4.936  12.630  20.705  0.00  0.00    +0.000 A 
ATOM      5  C   UNL     1      -3.522  12.916  20.588  0.00  0.00    +0.000 A 
ATOM      6  C   UNL     1      -2.823  12.409  19.437  0.00  0.00    +0.000 A 
ATOM      7  C   UNL     1      -5.888  13.102  21.773  0.00  0.00    +0.000 A 
ATOM      8  C   UNL     1      -5.662  14.213  22.607  0.00  0.00    +0.000 A 
ATOM      9  C   UNL     1      -6.424  14.451  23.762  0.00  0.00    +0.000 A 
ATOM     10  C   UNL     1      -7.515  13.651  24.057  0.00  0.00    +0.000 A 
ATOM     11  C   UNL     1      -7.885  12.669  23.156  0.00  0.00    +0.000 A 
ATOM     12  C   UNL     1      -7.098  12.412  22.011  0.00  0.00    +0.000 A 
ATOM     13  C   UNL     1      -7.635  11.377  21.063  0.00  0.00    +0.000 C 
ATOM     14  C   UNL     1      -6.847  11.181  19.787  0.00  0.00    +0.000 C 
ENDROOT
BRANCH   5  15
ATOM     15  C   UNL     1      -2.734  13.713  21.599  0.00  0.00    +0.000 A 
ATOM     16  C   UNL     1      -2.539  15.111  21.381  0.00  0.00    +0.000 A 
ATOM     17  C   UNL     1      -1.829  15.919  22.283  0.00  0.00    +0.000 A 
ATOM     18  C   UNL     1      -1.411  15.390  23.492  0.00  0.00    +0.000 A 
ATOM     19 CL   UNL     1      -0.666  16.409  24.661  0.00  0.00    +0.000 Cl
ATOM     20  C   UNL     1      -1.587  14.037  23.755  0.00  0.00    +0.000 A 
ATOM     21  C   UNL     1      -2.157  13.198  22.777  0.00  0.00    +0.000 A 
ATOM     22 CL   UNL     1      -2.081  11.497  23.103  0.00  0.00    +0.000 Cl
ENDBRANCH   5  15
BRANCH   6  23
ATOM     23  C   UNL     1      -1.423  12.624  19.197  0.00  0.00    +0.000 C 
ATOM     24  N   UNL     1      -0.293  12.768  18.958  0.00  0.00    +0.000 NA
ENDBRANCH   6  23
BRANCH   1  25
ATOM     25  O   UNL     1      -2.875  11.295  17.325  0.00  0.00    +0.000 OA
BRANCH  25  27
ATOM     26  C   UNL     1      -3.058  10.350  15.130  0.00  0.00    +0.000 C 
ATOM     27  C   UNL     1      -3.781  11.103  16.230  0.00  0.00    +0.000 C 
ENDBRANCH  25  27
ENDBRANCH   1  25
TORSDOF 4
ENDMDL
MODEL 2
REMARK VINA RESULT:      -6.4      4.066      7.799
REMARK  Name = 
REMARK  5 active torsions:
REMARK  status: ('A' for Active; 'I' for Inactive)
REMARK    1  A    between atoms: C_1  and  C_2
REMARK    2  A    between atoms: C_2  and  O_3
REMARK    3  A    between atoms: O_3  and  C_4
REMARK    4  A    between atoms: C_8  and  C_9
REMARK    5  A    between atoms: C_17  and  C_18
REMARK                            x       y       z     vdW  Elec       q    Type
REMARK                         _______ _______ _______ _____ _____    ______ ____
ROOT
ATOM      1  C   UNL     1      -1.846  12.032  22.274  0.00  0.00    +0.000 A 
ATOM      2  N   UNL     1      -0.856  11.327  22.826  0.00  0.00    +0.000 NA
ATOM      3  C   UNL     1      -0.143  10.487  22.041  0.00  0.00    +0.000 A 
ATOM      4  C   UNL     1      -0.306  10.357  20.644  0.00  0.00    +0.000 A 
ATOM      5  C   UNL     1      -1.448  11.047  20.081  0.00  0.00    +0.000 A 
ATOM      6  C   UNL     1      -2.225  11.889  20.951  0.00  0.00    +0.000 A 
ATOM      7  C   UNL     1       0.688   9.481  19.928  0.00  0.00    +0.000 A 
ATOM      8  C   UNL     1       0.913   9.503  18.539  0.00  0.00    +0.000 A 
ATOM      9  C   UNL     1       1.631   8.491  17.880  0.00  0.00    +0.000 A 
ATOM     10  C   UNL     1       2.249   7.486  18.605  0.00  0.00    +0.000 A 
ATOM     11  C   UNL     1       2.213   7.542  19.986  0.00  0.00    +0.000 A 
ATOM     12  C   UNL     1       1.464   8.542  20.645  0.00  0.00    +0.000 A 
ATOM     13  C   UNL     1       1.558   8.554  22.145  0.00  0.00    +0.000 C 
ATOM     14  C   UNL     1       0.844   9.691  22.841  0.00  0.00    +0.000 C 
ENDROOT
BRANCH   5  15
ATOM     15  C   UNL     1      -1.876  10.936  18.637  0.00  0.00    +0.000 A 
ATOM     16  C   UNL     1      -2.595   9.778  18.214  0.00  0.00    +0.000 A 
ATOM     17  C   UNL     1      -3.037   9.611  16.892  0.00  0.00    +0.000 A 
ATOM     18  C   UNL     1      -2.897  10.650  15.988  0.00  0.00    +0.000 A 
ATOM     19 CL   UNL     1      -3.561  10.507  14.407  0.00  0.00    +0.000 Cl
ATOM     20  C   UNL     1      -2.212  11.802  16.356  0.00  0.00    +0.000 A 
ATOM     21  C   UNL     1      -1.631  11.897  17.636  0.00  0.00    +0.000 A 
ATOM     22 CL   UNL     1      -0.581  13.253  17.890  0.00  0.00    +0.000 Cl
ENDBRANCH   5  15
BRANCH   6  23
ATOM     23  C   UNL     1      -3.378  12.631  20.520  0.00  0.00    +0.000 C 
ATOM     24  N   UNL     1      -4.281  13.251  20.129  0.00  0.00    +0.000 NA
ENDBRANCH   6  23
BRANCH   1  25
ATOM     25  O   UNL     1      -2.530  12.917  23.085  0.00  0.00    +0.000 OA
BRANCH  25  27
ATOM     26  C   UNL     1      -4.733  13.027  24.022  0.00  0.00    +0.000 C 
ATOM     27  C   UNL     1      -3.429  12.252  23.982  0.00  0.00    +0.000 C 
ENDBRANCH  25  27
ENDBRANCH   1  25
TORSDOF 4
ENDMDL
MODEL 3
REMARK VINA RESULT:      -6.4      2.705      5.419
REMARK  Name = 
REMARK  5 active torsions:
REMARK  status: ('A' for Active; 'I' for Inactive)
REMARK    1  A    between atoms: C_1  and  C_2
REMARK    2  A    between atoms: C_2  and  O_3
REMARK    3  A    between atoms: O_3  and  C_4
REMARK    4  A    between atoms: C_8  and  C_9
REMARK    5  A    between atoms: C_17  and  C_18
REMARK                            x       y       z     vdW  Elec       q    Type
REMARK                         _______ _______ _______ _____ _____    ______ ____
ROOT
ATOM      1  C   UNL     1      -4.590  13.530  22.021  0.00  0.00    +0.000 A 
ATOM      2  N   UNL     1      -5.489  12.990  21.195  0.00  0.00    +0.000 NA
ATOM      3  C   UNL     1      -5.056  12.442  20.036  0.00  0.00    +0.000 A 
ATOM      4  C   UNL     1      -3.700  12.314  19.663  0.00  0.00    +0.000 A 
ATOM      5  C   UNL     1      -2.750  12.995  20.517  0.00  0.00    +0.000 A 
ATOM      6  C   UNL     1      -3.244  13.621  21.714  0.00  0.00    +0.000 A 
ATOM      7  C   UNL     1      -3.418  11.536  18.405  0.00  0.00    +0.000 A 
ATOM      8  C   UNL     1      -2.162  11.004  18.061  0.00  0.00    +0.000 A 
ATOM      9  C   UNL     1      -1.872  10.538  16.769  0.00  0.00    +0.000 A 
ATOM     10  C   UNL     1      -2.867  10.478  15.807  0.00  0.00    +0.000 A 
ATOM     11  C   UNL     1      -4.161  10.809  16.166  0.00  0.00    +0.000 A 
ATOM     12  C   UNL     1      -4.442  11.307  17.457  0.00  0.00    +0.000 A 
ATOM     13  C   UNL     1      -5.892  11.562  17.763  0.00  0.00    +0.000 C 
ATOM     14  C   UNL     1      -6.201  11.992  19.179  0.00  0.00    +0.000 C 
ENDROOT
BRANCH   5  15
ATOM     15  C   UNL     1      -1.271  13.091  20.228  0.00  0.00    +0.000 A 
ATOM     16  C   UNL     1      -0.800  14.118  19.355  0.00  0.00    +0.000 A 
ATOM     17  C   UNL     1       0.561  14.278  19.051  0.00  0.00    +0.000 A 
ATOM     18  C   UNL     1       1.505  13.510  19.712  0.00  0.00    +0.000 A 
ATOM     19 CL   UNL     1       3.180  13.797  19.449  0.00  0.00    +0.000 Cl
ATOM     20  C   UNL     1       1.096  12.504  20.578  0.00  0.00    +0.000 A 
ATOM     21  C   UNL     1      -0.277  12.243  20.757  0.00  0.00    +0.000 A 
ATOM     22 CL   UNL     1      -0.664  10.803  21.643  0.00  0.00    +0.000 Cl
ENDBRANCH   5  15
BRANCH   6  23
ATOM     23  C   UNL     1      -2.409  14.325  22.648  0.00  0.00    +0.000 C 
ATOM     24  N   UNL     1      -1.706  14.916  23.362  0.00  0.00    +0.000 NA
ENDBRANCH   6  23
BRANCH   1  25
ATOM     25  O   UNL     1      -5.050  14.043  23.219  0.00  0.00    +0.000 OA
BRANCH  25  27
ATOM     26  C   UNL     1      -4.637  12.320  24.833  0.00  0.00    +0.000 C 
ATOM     27  C   UNL     1      -5.695  13.049  24.027  0.00  0.00    +0.000 C 
ENDBRANCH  25  27
ENDBRANCH   1  25
TORSDOF 4
ENDMDL
MODEL 4
REMARK VINA RESULT:      -6.3      2.867      5.585
REMARK  Name = 
REMARK  5 active torsions:
REMARK  status: ('A' for Active; 'I' for Inactive)
REMARK    1  A    between atoms: C_1  and  C_2
REMARK    2  A    between atoms: C_2  and  O_3
REMARK    3  A    between atoms: O_3  and  C_4
REMARK    4  A    between atoms: C_8  and  C_9
REMARK    5  A    between atoms: C_17  and  C_18
REMARK                            x       y       z     vdW  Elec       q    Type
REMARK                         _______ _______ _______ _____ _____    ______ ____
ROOT
ATOM      1  C   UNL     1      -3.625  13.607  22.719  0.00  0.00    +0.000 A 
ATOM      2  N   UNL     1      -4.717  13.164  22.092  0.00  0.00    +0.000 NA
ATOM      3  C   UNL     1      -4.592  12.689  20.831  0.00  0.00    +0.000 A 
ATOM      4  C   UNL     1      -3.367  12.540  20.144  0.00  0.00    +0.000 A 
ATOM      5  C   UNL     1      -2.211  13.121  20.795  0.00  0.00    +0.000 A 
ATOM      6  C   UNL     1      -2.383  13.672  22.113  0.00  0.00    +0.000 A 
ATOM      7  C   UNL     1      -3.424  11.850  18.807  0.00  0.00    +0.000 A 
ATOM      8  C   UNL     1      -2.310  11.300  18.146  0.00  0.00    +0.000 A 
ATOM      9  C   UNL     1      -2.351  10.923  16.795  0.00  0.00    +0.000 A 
ATOM     10  C   UNL     1      -3.542  10.972  16.090  0.00  0.00    +0.000 A 
ATOM     11  C   UNL     1      -4.699  11.322  16.761  0.00  0.00    +0.000 A 
ATOM     12  C   UNL     1      -4.649  11.731  18.112  0.00  0.00    +0.000 A 
ATOM     13  C   UNL     1      -5.975  12.014  18.763  0.00  0.00    +0.000 C 
ATOM     14  C   UNL     1      -5.926  12.347  20.238  0.00  0.00    +0.000 C 
ENDROOT
BRANCH   5  15
ATOM     15  C   UNL     1      -0.836  13.184  20.176  0.00  0.00    +0.000 A 
ATOM     16  C   UNL     1      -0.512  14.278  19.316  0.00  0.00    +0.000 A 
ATOM     17  C   UNL     1       0.750  14.411  18.716  0.00  0.00    +0.000 A 
ATOM     18  C   UNL     1       1.767  13.539  19.061  0.00  0.00    +0.000 A 
ATOM     19 CL   UNL     1       3.352  13.782  18.438  0.00  0.00    +0.000 Cl
ATOM     20  C   UNL     1       1.504  12.465  19.902  0.00  0.00    +0.000 A 
ATOM     21  C   UNL     1       0.195  12.244  20.374  0.00  0.00    +0.000 A 
ATOM     22 CL   UNL     1      -0.071  10.736  21.189  0.00  0.00    +0.000 Cl
ENDBRANCH   5  15
BRANCH   6  23
ATOM     23  C   UNL     1      -1.319  14.273  22.870  0.00  0.00    +0.000 C 
ATOM     24  N   UNL     1      -0.437  14.776  23.436  0.00  0.00    +0.000 NA
ENDBRANCH   6  23
BRANCH   1  25
ATOM     25  O   UNL     1      -3.769  14.044  24.021  0.00  0.00    +0.000 OA
BRANCH  25  27
ATOM     26  C   UNL     1      -3.881  16.272  24.899  0.00  0.00    +0.000 C 
ATOM     27  C   UNL     1      -4.616  15.198  24.120  0.00  0.00    +0.000 C 
ENDBRANCH  25  27
ENDBRANCH   1  25
TORSDOF 4
ENDMDL
MODEL 5
REMARK VINA RESULT:      -6.2      2.201      3.262
REMARK  Name = 
REMARK  5 active torsions:
REMARK  status: ('A' for Active; 'I' for Inactive)
REMARK    1  A    between atoms: C_1  and  C_2
REMARK    2  A    between atoms: C_2  and  O_3
REMARK    3  A    between atoms: O_3  and  C_4
REMARK    4  A    between atoms: C_8  and  C_9
REMARK    5  A    between atoms: C_17  and  C_18
REMARK                            x       y       z     vdW  Elec       q    Type
REMARK                         _______ _______ _______ _____ _____    ______ ____
ROOT
ATOM      1  C   UNL     1      -0.758  11.314  18.796  0.00  0.00    +0.000 A 
ATOM      2  N   UNL     1      -1.752  10.981  17.970  0.00  0.00    +0.000 NA
ATOM      3  C   UNL     1      -3.013  11.357  18.289  0.00  0.00    +0.000 A 
ATOM      4  C   UNL     1      -3.356  12.161  19.398  0.00  0.00    +0.000 A 
ATOM      5  C   UNL     1      -2.285  12.423  20.336  0.00  0.00    +0.000 A 
ATOM      6  C   UNL     1      -0.965  11.962  20.001  0.00  0.00    +0.000 A 
ATOM      7  C   UNL     1      -4.795  12.596  19.494  0.00  0.00    +0.000 A 
ATOM      8  C   UNL     1      -5.254  13.657  20.296  0.00  0.00    +0.000 A 
ATOM      9  C   UNL     1      -6.616  13.851  20.577  0.00  0.00    +0.000 A 
ATOM     10  C   UNL     1      -7.575  13.060  19.967  0.00  0.00    +0.000 A 
ATOM     11  C   UNL     1      -7.173  12.134  19.022  0.00  0.00    +0.000 A 
ATOM     12  C   UNL     1      -5.800  11.920  18.766  0.00  0.00    +0.000 A 
ATOM     13  C   UNL     1      -5.479  10.946  17.666  0.00  0.00    +0.000 C 
ATOM     14  C   UNL     1      -4.014  10.801  17.321  0.00  0.00    +0.000 C 
ENDROOT
BRANCH   5  15
ATOM     15  C   UNL     1      -2.468  13.150  21.647  0.00  0.00    +0.000 A 
ATOM     16  C   UNL     1      -2.990  12.438  22.769  0.00  0.00    +0.000 A 
ATOM     17  C   UNL     1      -3.175  13.042  24.022  0.00  0.00    +0.000 A 
ATOM     18  C   UNL     1      -2.718  14.332  24.232  0.00  0.00    +0.000 A 
ATOM     19 CL   UNL     1      -2.813  15.029  25.802  0.00  0.00    +0.000 Cl
ATOM     20  C   UNL     1      -2.193  15.063  23.174  0.00  0.00    +0.000 A 
ATOM     21  C   UNL     1      -2.159  14.505  21.881  0.00  0.00    +0.000 A 
ATOM     22 CL   UNL     1      -1.737  15.594  20.598  0.00  0.00    +0.000 Cl
ENDBRANCH   5  15
BRANCH   6  23
ATOM     23  C   UNL     1       0.186  12.160  20.839  0.00  0.00    +0.000 C 
ATOM     24  N   UNL     1       1.143  12.284  21.487  0.00  0.00    +0.000 NA
ENDBRANCH   6  23
BRANCH   1  25
ATOM     25  O   UNL     1       0.525  10.960  18.426  0.00  0.00    +0.000 OA
BRANCH  25  27
ATOM     26  C   UNL     1       2.103   9.253  17.842  0.00  0.00    +0.000 C 
ATOM     27  C   UNL     1       0.669   9.545  18.239  0.00  0.00    +0.000 C 
ENDBRANCH  25  27
ENDBRANCH   1  25
TORSDOF 4
ENDMDL
MODEL 6
REMARK VINA RESULT:      -6.1      2.788      5.472
REMARK  Name = 
REMARK  5 active torsions:
REMARK  status: ('A' for Active; 'I' for Inactive)
REMARK    1  A    between atoms: C_1  and  C_2
REMARK    2  A    between atoms: C_2  and  O_3
REMARK    3  A    between atoms: O_3  and  C_4
REMARK    4  A    between atoms: C_8  and  C_9
REMARK    5  A    between atoms: C_17  and  C_18
REMARK                            x       y       z     vdW  Elec       q    Type
REMARK                         _______ _______ _______ _____ _____    ______ ____
ROOT
ATOM      1  C   UNL     1      -5.217  12.902  22.648  0.00  0.00    +0.000 A 
ATOM      2  N   UNL     1      -6.052  12.442  21.714  0.00  0.00    +0.000 NA
ATOM      3  C   UNL     1      -5.557  12.148  20.490  0.00  0.00    +0.000 A 
ATOM      4  C   UNL     1      -4.190  12.207  20.139  0.00  0.00    +0.000 A 
ATOM      5  C   UNL     1      -3.316  12.806  21.126  0.00  0.00    +0.000 A 
ATOM      6  C   UNL     1      -3.881  13.164  22.400  0.00  0.00    +0.000 A 
ATOM      7  C   UNL     1      -3.822  11.694  18.772  0.00  0.00    +0.000 A 
ATOM      8  C   UNL     1      -2.518  11.343  18.376  0.00  0.00    +0.000 A 
ATOM      9  C   UNL     1      -2.171  11.141  17.031  0.00  0.00    +0.000 A 
ATOM     10  C   UNL     1      -3.144  11.167  16.046  0.00  0.00    +0.000 A 
ATOM     11  C   UNL     1      -4.467  11.316  16.420  0.00  0.00    +0.000 A 
ATOM     12  C   UNL     1      -4.809  11.549  17.770  0.00  0.00    +0.000 A 
ATOM     13  C   UNL     1      -6.280  11.618  18.074  0.00  0.00    +0.000 C 
ATOM     14  C   UNL     1      -6.645  11.761  19.535  0.00  0.00    +0.000 C 
ENDROOT
BRANCH   5  15
ATOM     15  C   UNL     1      -1.849  13.080  20.902  0.00  0.00    +0.000 A 
ATOM     16  C   UNL     1      -0.904  12.035  21.135  0.00  0.00    +0.000 A 
ATOM     17  C   UNL     1       0.474  12.212  20.935  0.00  0.00    +0.000 A 
ATOM     18  C   UNL     1       0.938  13.386  20.367  0.00  0.00    +0.000 A 
ATOM     19 CL   UNL     1       2.608  13.553  19.989  0.00  0.00    +0.000 Cl
ATOM     20  C   UNL     1       0.056  14.428  20.112  0.00  0.00    +0.000 A 
ATOM     21  C   UNL     1      -1.303  14.304  20.465  0.00  0.00    +0.000 A 
ATOM     22 CL   UNL     1      -2.249  15.752  20.351  0.00  0.00    +0.000 Cl
ENDBRANCH   5  15
BRANCH   6  23
ATOM     23  C   UNL     1      -3.125  13.760  23.467  0.00  0.00    +0.000 C 
ATOM     24  N   UNL     1      -2.471  14.247  24.297  0.00  0.00    +0.000 NA
ENDBRANCH   6  23
BRANCH   1  25
ATOM     25  O   UNL     1      -5.737  13.152  23.903  0.00  0.00    +0.000 OA
BRANCH  25  27
ATOM     26  C   UNL     1      -7.916  14.068  24.297  0.00  0.00    +0.000 C 
ATOM     27  C   UNL     1      -7.126  12.808  23.997  0.00  0.00    +0.000 C 
ENDBRANCH  25  27
ENDBRANCH   1  25
TORSDOF 4
ENDMDL
MODEL 7
REMARK VINA RESULT:      -6.1      2.497      4.189
REMARK  Name = 
REMARK  5 active torsions:
REMARK  status: ('A' for Active; 'I' for Inactive)
REMARK    1  A    between atoms: C_1  and  C_2
REMARK    2  A    between atoms: C_2  and  O_3
REMARK    3  A    between atoms: O_3  and  C_4
REMARK    4  A    between atoms: C_8  and  C_9
REMARK    5  A    between atoms: C_17  and  C_18
REMARK                            x       y       z     vdW  Elec       q    Type
REMARK                         _______ _______ _______ _____ _____    ______ ____
ROOT
ATOM      1  C   UNL     1       0.422  12.146  19.468  0.00  0.00    +0.000 A 
ATOM      2  N   UNL     1      -0.125  11.352  18.546  0.00  0.00    +0.000 NA
ATOM      3  C   UNL     1      -1.474  11.260  18.487  0.00  0.00    +0.000 A 
ATOM      4  C   UNL     1      -2.367  12.015  19.278  0.00  0.00    +0.000 A 
ATOM      5  C   UNL     1      -1.760  12.790  20.340  0.00  0.00    +0.000 A 
ATOM      6  C   UNL     1      -0.324  12.823  20.416  0.00  0.00    +0.000 A 
ATOM      7  C   UNL     1      -3.832  11.881  18.956  0.00  0.00    +0.000 A 
ATOM      8  C   UNL     1      -4.826  12.786  19.371  0.00  0.00    +0.000 A 
ATOM      9  C   UNL     1      -6.195  12.484  19.295  0.00  0.00    +0.000 A 
ATOM     10  C   UNL     1      -6.621  11.313  18.691  0.00  0.00    +0.000 A 
ATOM     11  C   UNL     1      -5.681  10.490  18.096  0.00  0.00    +0.000 A 
ATOM     12  C   UNL     1      -4.303  10.782  18.202  0.00  0.00    +0.000 A 
ATOM     13  C   UNL     1      -3.377   9.863  17.454  0.00  0.00    +0.000 C 
ATOM     14  C   UNL     1      -1.913  10.240  17.480  0.00  0.00    +0.000 C 
ENDROOT
BRANCH   5  15
ATOM     15  C   UNL     1      -2.541  13.564  21.375  0.00  0.00    +0.000 A 
ATOM     16  C   UNL     1      -2.960  14.896  21.076  0.00  0.00    +0.000 A 
ATOM     17  C   UNL     1      -3.700  15.671  21.982  0.00  0.00    +0.000 A 
ATOM     18  C   UNL     1      -4.162  15.098  23.154  0.00  0.00    +0.000 A 
ATOM     19 CL   UNL     1      -5.187  15.998  24.202  0.00  0.00    +0.000 Cl
ATOM     20  C   UNL     1      -3.790  13.801  23.485  0.00  0.00    +0.000 A 
ATOM     21  C   UNL     1      -2.914  13.083  22.647  0.00  0.00    +0.000 A 
ATOM     22 CL   UNL     1      -2.308  11.590  23.287  0.00  0.00    +0.000 Cl
ENDBRANCH   5  15
BRANCH   6  23
ATOM     23  C   UNL     1       0.404  13.555  21.416  0.00  0.00    +0.000 C 
ATOM     24  N   UNL     1       1.039  14.129  22.204  0.00  0.00    +0.000 NA
ENDBRANCH   6  23
BRANCH   1  25
ATOM     25  O   UNL     1       1.799  12.259  19.479  0.00  0.00    +0.000 OA
BRANCH  25  27
ATOM     26  C   UNL     1       2.572  14.132  18.200  0.00  0.00    +0.000 C 
ATOM     27  C   UNL     1       2.325  12.635  18.200  0.00  0.00    +0.000 C 
ENDBRANCH  25  27
ENDBRANCH   1  25
TORSDOF 4
ENDMDL
MODEL 8
REMARK VINA RESULT:      -6.1      2.963      6.138
REMARK  Name = 
REMARK  5 active torsions:
REMARK  status: ('A' for Active; 'I' for Inactive)
REMARK    1  A    between atoms: C_1  and  C_2
REMARK    2  A    between atoms: C_2  and  O_3
REMARK    3  A    between atoms: O_3  and  C_4
REMARK    4  A    between atoms: C_8  and  C_9
REMARK    5  A    between atoms: C_17  and  C_18
REMARK                            x       y       z     vdW  Elec       q    Type
REMARK                         _______ _______ _______ _____ _____    ______ ____
ROOT
ATOM      1  C   UNL     1      -3.465  13.210  21.730  0.00  0.00    +0.000 A 
ATOM      2  N   UNL     1      -4.539  13.280  20.940  0.00  0.00    +0.000 NA
ATOM      3  C   UNL     1      -4.483  12.700  19.719  0.00  0.00    +0.000 A 
ATOM      4  C   UNL     1      -3.395  11.939  19.238  0.00  0.00    +0.000 A 
ATOM      5  C   UNL     1      -2.204  11.961  20.061  0.00  0.00    +0.000 A 
ATOM      6  C   UNL     1      -2.272  12.635  21.330  0.00  0.00    +0.000 A 
ATOM      7  C   UNL     1      -3.589  11.248  17.914  0.00  0.00    +0.000 A 
ATOM      8  C   UNL     1      -2.792  10.188  17.444  0.00  0.00    +0.000 A 
ATOM      9  C   UNL     1      -2.821   9.763  16.106  0.00  0.00    +0.000 A 
ATOM     10  C   UNL     1      -3.736  10.306  15.220  0.00  0.00    +0.000 A 
ATOM     11  C   UNL     1      -4.667  11.212  15.694  0.00  0.00    +0.000 A 
ATOM     12  C   UNL     1      -4.615  11.660  17.033  0.00  0.00    +0.000 A 
ATOM     13  C   UNL     1      -5.721  12.584  17.461  0.00  0.00    +0.000 C 
ATOM     14  C   UNL     1      -5.723  12.975  18.922  0.00  0.00    +0.000 C 
ENDROOT
BRANCH   5  15
ATOM     15  C   UNL     1      -0.894  11.322  19.670  0.00  0.00    +0.000 A 
ATOM     16  C   UNL     1      -0.597  10.005  20.137  0.00  0.00    +0.000 A 
ATOM     17  C   UNL     1       0.594   9.342  19.804  0.00  0.00    +0.000 A 
ATOM     18  C   UNL     1       1.461   9.911  18.887  0.00  0.00    +0.000 A 
ATOM     19 CL   UNL     1       2.851   9.041  18.368  0.00  0.00    +0.000 Cl
ATOM     20  C   UNL     1       1.210  11.186  18.396  0.00  0.00    +0.000 A 
ATOM     21  C   UNL     1       0.095  11.913  18.858  0.00  0.00    +0.000 A 
ATOM     22 CL   UNL     1       0.031  13.580  18.386  0.00  0.00    +0.000 Cl
ENDBRANCH   5  15
BRANCH   6  23
ATOM     23  C   UNL     1      -1.166  12.728  22.243  0.00  0.00    +0.000 C 
ATOM     24  N   UNL     1      -0.285  12.854  22.992  0.00  0.00    +0.000 NA
ENDBRANCH   6  23
BRANCH   1  25
ATOM     25  O   UNL     1      -3.562  13.770  22.989  0.00  0.00    +0.000 OA
BRANCH  25  27
ATOM     26  C   UNL     1      -4.409  12.350  24.724  0.00  0.00    +0.000 C 
ATOM     27  C   UNL     1      -4.762  13.381  23.670  0.00  0.00    +0.000 C 
ENDBRANCH  25  27
ENDBRANCH   1  25
TORSDOF 4
ENDMDL
MODEL 9
REMARK VINA RESULT:      -6.1      2.091      5.089
REMARK  Name = 
REMARK  5 active torsions:
REMARK  status: ('A' for Active; 'I' for Inactive)
REMARK    1  A    between atoms: C_1  and  C_2
REMARK    2  A    between atoms: C_2  and  O_3
REMARK    3  A    between atoms: O_3  and  C_4
REMARK    4  A    between atoms: C_8  and  C_9
REMARK    5  A    between atoms: C_17  and  C_18
REMARK                            x       y       z     vdW  Elec       q    Type
REMARK                         _______ _______ _______ _____ _____    ______ ____
ROOT
ATOM      1  C   UNL     1      -5.393  12.497  19.360  0.00  0.00    +0.000 A 
ATOM      2  N   UNL     1      -5.005  11.534  18.522  0.00  0.00    +0.000 NA
ATOM      3  C   UNL     1      -3.697  11.185  18.497  0.00  0.00    +0.000 A 
ATOM      4  C   UNL     1      -2.709  11.706  19.361  0.00  0.00    +0.000 A 
ATOM      5  C   UNL     1      -3.124  12.819  20.188  0.00  0.00    +0.000 A 
ATOM      6  C   UNL     1      -4.509  13.208  20.152  0.00  0.00    +0.000 A 
ATOM      7  C   UNL     1      -1.343  11.078  19.277  0.00  0.00    +0.000 A 
ATOM      8  C   UNL     1      -0.348  11.200  20.264  0.00  0.00    +0.000 A 
ATOM      9  C   UNL     1       0.991  10.845  20.029  0.00  0.00    +0.000 A 
ATOM     10  C   UNL     1       1.356  10.245  18.836  0.00  0.00    +0.000 A 
ATOM     11  C   UNL     1       0.369   9.931  17.919  0.00  0.00    +0.000 A 
ATOM     12  C   UNL     1      -0.971  10.317  18.145  0.00  0.00    +0.000 A 
ATOM     13  C   UNL     1      -1.970   9.857  17.121  0.00  0.00    +0.000 C 
ATOM     14  C   UNL     1      -3.417  10.180  17.421  0.00  0.00    +0.000 C 
ENDROOT
BRANCH   5  15
ATOM     15  C   UNL     1      -2.194  13.600  21.084  0.00  0.00    +0.000 A 
ATOM     16  C   UNL     1      -1.453  14.690  20.534  0.00  0.00    +0.000 A 
ATOM     17  C   UNL     1      -0.580  15.470  21.309  0.00  0.00    +0.000 A 
ATOM     18  C   UNL     1      -0.522  15.277  22.678  0.00  0.00    +0.000 A 
ATOM     19 CL   UNL     1       0.438  16.320  23.651  0.00  0.00    +0.000 Cl
ATOM     20  C   UNL     1      -1.233  14.235  23.262  0.00  0.00    +0.000 A 
ATOM     21  C   UNL     1      -1.982  13.355  22.456  0.00  0.00    +0.000 A 
ATOM     22 CL   UNL     1      -2.604  11.945  23.251  0.00  0.00    +0.000 Cl
ENDBRANCH   5  15
BRANCH   6  23
ATOM     23  C   UNL     1      -5.053  14.291  20.925  0.00  0.00    +0.000 C 
ATOM     24  N   UNL     1      -5.484  15.138  21.596  0.00  0.00    +0.000 NA
ENDBRANCH   6  23
BRANCH   1  25
ATOM     25  O   UNL     1      -6.740  12.803  19.402  0.00  0.00    +0.000 OA
BRANCH  25  27
ATOM     26  C   UNL     1      -7.594  11.503  21.225  0.00  0.00    +0.000 C 
ATOM     27  C   UNL     1      -7.550  11.663  19.717  0.00  0.00    +0.000 C 
ENDBRANCH  25  27
ENDBRANCH   1  25
TORSDOF 4
ENDMDL
