MODEL 1
REMARK VINA RESULT:      -7.2      0.000      0.000
REMARK  Name = 
REMARK  6 active torsions:
REMARK  status: ('A' for Active; 'I' for Inactive)
REMARK    1  A    between atoms: N_1  and  S_2
REMARK    2  A    between atoms: S_2  and  C_5
REMARK    3  A    between atoms: C_8  and  N_9
REMARK    4  A    between atoms: N_9  and  C_10
REMARK    5  A    between atoms: C_10  and  C_11
REMARK    6  A    between atoms: C_17  and  O_18
REMARK                            x       y       z     vdW  Elec       q    Type
REMARK                         _______ _______ _______ _____ _____    ______ ____
ROOT
ATOM      1  C   UNL     1       6.155   5.514  17.787  0.00  0.00    +0.000 A 
ATOM      2  C   UNL     1       7.157   5.330  18.738  0.00  0.00    +0.000 A 
ATOM      3  C   UNL     1       8.045   6.376  19.006  0.00  0.00    +0.000 A 
ATOM      4  C   UNL     1       7.963   7.602  18.322  0.00  0.00    +0.000 A 
ATOM      5  C   UNL     1       6.956   7.747  17.357  0.00  0.00    +0.000 A 
ATOM      6  C   UNL     1       6.056   6.714  17.084  0.00  0.00    +0.000 A 
ENDROOT
BRANCH   1   7
ATOM      7  S   UNL     1       4.930   4.265  17.549  0.00  0.00    +0.000 S 
ATOM      8  O   UNL     1       5.245   3.513  16.364  0.00  0.00    +0.000 OA
ATOM      9  O   UNL     1       3.618   4.831  17.787  0.00  0.00    +0.000 OA
BRANCH   7  10
ATOM     10  N   UNL     1       5.215   3.264  18.874  0.00  0.00    +0.000 NA
ATOM     11  H   UNL     1       6.223   3.118  18.969  0.00  0.00    +0.000 HD
ATOM     12  H   UNL     1       4.697   2.392  18.785  0.00  0.00    +0.000 HD
ENDBRANCH   7  10
ENDBRANCH   1   7
BRANCH   4  13
ATOM     13  N   UNL     1       8.799   8.646  18.703  0.00  0.00    +0.000 N 
ATOM     14  H   UNL     1       9.791   8.439  18.663  0.00  0.00    +0.000 HD
BRANCH  13  15
ATOM     15  C   UNL     1       8.483  10.032  18.353  0.00  0.00    +0.000 C 
BRANCH  15  16
ATOM     16  C   UNL     1       9.592  10.991  18.726  0.00  0.00    +0.000 A 
ATOM     17  C   UNL     1      10.270  11.769  17.773  0.00  0.00    +0.000 A 
ATOM     18  C   UNL     1      11.380  12.533  18.140  0.00  0.00    +0.000 A 
ATOM     19 BR   UNL     1      12.333  13.491  16.819  0.00  0.00    +0.000 Br
ATOM     20  C   UNL     1      11.808  12.571  19.465  0.00  0.00    +0.000 A 
ATOM     21  C   UNL     1      11.107  11.855  20.436  0.00  0.00    +0.000 A 
ATOM     22  C   UNL     1      10.012  11.074  20.061  0.00  0.00    +0.000 A 
BRANCH  22  23
ATOM     23  O   UNL     1       9.328  10.364  21.009  0.00  0.00    +0.000 OA
ATOM     24  H   UNL     1       8.376  10.531  20.901  0.00  0.00    +0.000 HD
ENDBRANCH  22  23
ENDBRANCH  15  16
ENDBRANCH  13  15
ENDBRANCH   4  13
TORSDOF 6
ENDMDL
MODEL 2
REMARK VINA RESULT:      -6.9      4.534      6.625
REMARK  Name = 
REMARK  6 active torsions:
REMARK  status: ('A' for Active; 'I' for Inactive)
REMARK    1  A    between atoms: N_1  and  S_2
REMARK    2  A    between atoms: S_2  and  C_5
REMARK    3  A    between atoms: C_8  and  N_9
REMARK    4  A    between atoms: N_9  and  C_10
REMARK    5  A    between atoms: C_10  and  C_11
REMARK    6  A    between atoms: C_17  and  O_18
REMARK                            x       y       z     vdW  Elec       q    Type
REMARK                         _______ _______ _______ _____ _____    ______ ____
ROOT
ATOM      1  C   UNL     1       1.728   7.933  20.104  0.00  0.00    +0.000 A 
ATOM      2  C   UNL     1       2.064   8.294  18.800  0.00  0.00    +0.000 A 
ATOM      3  C   UNL     1       2.664   7.349  17.963  0.00  0.00    +0.000 A 
ATOM      4  C   UNL     1       2.956   6.049  18.413  0.00  0.00    +0.000 A 
ATOM      5  C   UNL     1       2.624   5.725  19.737  0.00  0.00    +0.000 A 
ATOM      6  C   UNL     1       2.017   6.656  20.583  0.00  0.00    +0.000 A 
ENDROOT
BRANCH   1   7
ATOM      7  S   UNL     1       0.829   9.060  21.124  0.00  0.00    +0.000 S 
ATOM      8  O   UNL     1      -0.390   8.434  21.561  0.00  0.00    +0.000 OA
ATOM      9  O   UNL     1       0.857  10.376  20.521  0.00  0.00    +0.000 OA
BRANCH   7  10
ATOM     10  N   UNL     1       1.845   9.176  22.463  0.00  0.00    +0.000 NA
ATOM     11  H   UNL     1       1.354   9.671  23.211  0.00  0.00    +0.000 HD
ATOM     12  H   UNL     1       2.725   9.619  22.209  0.00  0.00    +0.000 HD
ENDBRANCH   7  10
ENDBRANCH   1   7
BRANCH   4  13
ATOM     13  N   UNL     1       3.451   5.115  17.509  0.00  0.00    +0.000 N 
ATOM     14  H   UNL     1       2.747   4.557  17.040  0.00  0.00    +0.000 HD
BRANCH  13  15
ATOM     15  C   UNL     1       4.605   5.424  16.662  0.00  0.00    +0.000 C 
BRANCH  15  16
ATOM     16  C   UNL     1       5.801   5.892  17.462  0.00  0.00    +0.000 A 
ATOM     17  C   UNL     1       6.319   7.193  17.353  0.00  0.00    +0.000 A 
ATOM     18  C   UNL     1       7.508   7.540  18.000  0.00  0.00    +0.000 A 
ATOM     19 BR   UNL     1       8.234   9.267  17.755  0.00  0.00    +0.000 Br
ATOM     20  C   UNL     1       8.177   6.616  18.797  0.00  0.00    +0.000 A 
ATOM     21  C   UNL     1       7.642   5.338  18.969  0.00  0.00    +0.000 A 
ATOM     22  C   UNL     1       6.466   4.988  18.302  0.00  0.00    +0.000 A 
BRANCH  22  23
ATOM     23  O   UNL     1       5.944   3.733  18.459  0.00  0.00    +0.000 OA
ATOM     24  H   UNL     1       4.974   3.793  18.448  0.00  0.00    +0.000 HD
ENDBRANCH  22  23
ENDBRANCH  15  16
ENDBRANCH  13  15
ENDBRANCH   4  13
TORSDOF 6
ENDMDL
MODEL 3
REMARK VINA RESULT:      -6.9      6.234      7.913
REMARK  Name = 
REMARK  6 active torsions:
REMARK  status: ('A' for Active; 'I' for Inactive)
REMARK    1  A    between atoms: N_1  and  S_2
REMARK    2  A    between atoms: S_2  and  C_5
REMARK    3  A    between atoms: C_8  and  N_9
REMARK    4  A    between atoms: N_9  and  C_10
REMARK    5  A    between atoms: C_10  and  C_11
REMARK    6  A    between atoms: C_17  and  O_18
REMARK                            x       y       z     vdW  Elec       q    Type
REMARK                         _______ _______ _______ _____ _____    ______ ____
ROOT
ATOM      1  C   UNL     1       1.157   9.275  19.096  0.00  0.00    +0.000 A 
ATOM      2  C   UNL     1       1.160   8.611  20.322  0.00  0.00    +0.000 A 
ATOM      3  C   UNL     1       1.944   7.464  20.475  0.00  0.00    +0.000 A 
ATOM      4  C   UNL     1       2.712   6.952  19.414  0.00  0.00    +0.000 A 
ATOM      5  C   UNL     1       2.670   7.632  18.189  0.00  0.00    +0.000 A 
ATOM      6  C   UNL     1       1.899   8.784  18.022  0.00  0.00    +0.000 A 
ENDROOT
BRANCH   1   7
ATOM      7  S   UNL     1       0.300  10.810  18.930  0.00  0.00    +0.000 S 
ATOM      8  O   UNL     1       0.145  11.408  20.229  0.00  0.00    +0.000 OA
ATOM      9  O   UNL     1      -0.806  10.641  18.011  0.00  0.00    +0.000 OA
BRANCH   7  10
ATOM     10  N   UNL     1       1.430  11.729  18.083  0.00  0.00    +0.000 NA
ATOM     11  H   UNL     1       1.914  12.347  18.738  0.00  0.00    +0.000 HD
ATOM     12  H   UNL     1       0.983  12.235  17.320  0.00  0.00    +0.000 HD
ENDBRANCH   7  10
ENDBRANCH   1   7
BRANCH   4  13
ATOM     13  N   UNL     1       3.559   5.874  19.651  0.00  0.00    +0.000 N 
ATOM     14  H   UNL     1       3.659   5.612  20.625  0.00  0.00    +0.000 HD
BRANCH  13  15
ATOM     15  C   UNL     1       3.595   4.730  18.738  0.00  0.00    +0.000 C 
BRANCH  15  16
ATOM     16  C   UNL     1       4.839   4.718  17.875  0.00  0.00    +0.000 A 
ATOM     17  C   UNL     1       4.787   4.568  16.479  0.00  0.00    +0.000 A 
ATOM     18  C   UNL     1       5.961   4.419  15.737  0.00  0.00    +0.000 A 
ATOM     19 BR   UNL     1       5.857   4.120  13.874  0.00  0.00    +0.000 Br
ATOM     20  C   UNL     1       7.204   4.459  16.362  0.00  0.00    +0.000 A 
ATOM     21  C   UNL     1       7.277   4.672  17.740  0.00  0.00    +0.000 A 
ATOM     22  C   UNL     1       6.100   4.797  18.481  0.00  0.00    +0.000 A 
BRANCH  22  23
ATOM     23  O   UNL     1       6.167   4.995  19.833  0.00  0.00    +0.000 OA
ATOM     24  H   UNL     1       6.076   4.137  20.281  0.00  0.00    +0.000 HD
ENDBRANCH  22  23
ENDBRANCH  15  16
ENDBRANCH  13  15
ENDBRANCH   4  13
TORSDOF 6
ENDMDL
MODEL 4
REMARK VINA RESULT:      -6.8      6.072      7.805
REMARK  Name = 
REMARK  6 active torsions:
REMARK  status: ('A' for Active; 'I' for Inactive)
REMARK    1  A    between atoms: N_1  and  S_2
REMARK    2  A    between atoms: S_2  and  C_5
REMARK    3  A    between atoms: C_8  and  N_9
REMARK    4  A    between atoms: N_9  and  C_10
REMARK    5  A    between atoms: C_10  and  C_11
REMARK    6  A    between atoms: C_17  and  O_18
REMARK                            x       y       z     vdW  Elec       q    Type
REMARK                         _______ _______ _______ _____ _____    ______ ____
ROOT
ATOM      1  C   UNL     1       1.470   8.961  19.386  0.00  0.00    +0.000 A 
ATOM      2  C   UNL     1       1.978   8.545  18.157  0.00  0.00    +0.000 A 
ATOM      3  C   UNL     1       2.466   7.241  18.026  0.00  0.00    +0.000 A 
ATOM      4  C   UNL     1       2.477   6.349  19.112  0.00  0.00    +0.000 A 
ATOM      5  C   UNL     1       1.978   6.806  20.340  0.00  0.00    +0.000 A 
ATOM      6  C   UNL     1       1.479   8.103  20.485  0.00  0.00    +0.000 A 
ENDROOT
BRANCH   1   7
ATOM      7  S   UNL     1       0.706  10.547  19.530  0.00  0.00    +0.000 S 
ATOM      8  O   UNL     1       1.126  11.165  20.759  0.00  0.00    +0.000 OA
ATOM      9  O   UNL     1      -0.686  10.442  19.145  0.00  0.00    +0.000 OA
BRANCH   7  10
ATOM     10  N   UNL     1       1.442  11.384  18.267  0.00  0.00    +0.000 NA
ATOM     11  H   UNL     1       2.027  12.127  18.656  0.00  0.00    +0.000 HD
ATOM     12  H   UNL     1       0.745  11.734  17.612  0.00  0.00    +0.000 HD
ENDBRANCH   7  10
ENDBRANCH   1   7
BRANCH   4  13
ATOM     13  N   UNL     1       2.870   5.031  18.901  0.00  0.00    +0.000 N 
ATOM     14  H   UNL     1       2.580   4.633  18.015  0.00  0.00    +0.000 HD
BRANCH  13  15
ATOM     15  C   UNL     1       4.180   4.554  19.349  0.00  0.00    +0.000 C 
BRANCH  15  16
ATOM     16  C   UNL     1       5.241   4.685  18.277  0.00  0.00    +0.000 A 
ATOM     17  C   UNL     1       4.972   4.455  16.917  0.00  0.00    +0.000 A 
ATOM     18  C   UNL     1       6.008   4.447  15.981  0.00  0.00    +0.000 A 
ATOM     19 BR   UNL     1       5.632   4.036  14.175  0.00  0.00    +0.000 Br
ATOM     20  C   UNL     1       7.319   4.709  16.371  0.00  0.00    +0.000 A 
ATOM     21  C   UNL     1       7.594   5.003  17.707  0.00  0.00    +0.000 A 
ATOM     22  C   UNL     1       6.559   4.987  18.644  0.00  0.00    +0.000 A 
BRANCH  22  23
ATOM     23  O   UNL     1       6.827   5.265  19.957  0.00  0.00    +0.000 OA
ATOM     24  H   UNL     1       6.025   5.104  20.483  0.00  0.00    +0.000 HD
ENDBRANCH  22  23
ENDBRANCH  15  16
ENDBRANCH  13  15
ENDBRANCH   4  13
TORSDOF 6
ENDMDL
MODEL 5
REMARK VINA RESULT:      -6.8      7.400      8.443
REMARK  Name = 
REMARK  6 active torsions:
REMARK  status: ('A' for Active; 'I' for Inactive)
REMARK    1  A    between atoms: N_1  and  S_2
REMARK    2  A    between atoms: S_2  and  C_5
REMARK    3  A    between atoms: C_8  and  N_9
REMARK    4  A    between atoms: N_9  and  C_10
REMARK    5  A    between atoms: C_10  and  C_11
REMARK    6  A    between atoms: C_17  and  O_18
REMARK                            x       y       z     vdW  Elec       q    Type
REMARK                         _______ _______ _______ _____ _____    ______ ____
ROOT
ATOM      1  C   UNL     1       2.720   4.269  18.816  0.00  0.00    +0.000 A 
ATOM      2  C   UNL     1       2.920   5.417  18.051  0.00  0.00    +0.000 A 
ATOM      3  C   UNL     1       2.611   6.665  18.600  0.00  0.00    +0.000 A 
ATOM      4  C   UNL     1       2.083   6.787  19.897  0.00  0.00    +0.000 A 
ATOM      5  C   UNL     1       1.873   5.611  20.631  0.00  0.00    +0.000 A 
ATOM      6  C   UNL     1       2.185   4.357  20.100  0.00  0.00    +0.000 A 
ENDROOT
BRANCH   1   7
ATOM      7  S   UNL     1       3.250   2.701  18.201  0.00  0.00    +0.000 S 
ATOM      8  O   UNL     1       2.263   2.192  17.287  0.00  0.00    +0.000 OA
ATOM      9  O   UNL     1       3.778   1.914  19.296  0.00  0.00    +0.000 OA
BRANCH   7  10
ATOM     10  N   UNL     1       4.599   3.140  17.294  0.00  0.00    +0.000 NA
ATOM     11  H   UNL     1       5.398   2.574  17.590  0.00  0.00    +0.000 HD
ATOM     12  H   UNL     1       4.775   4.140  17.370  0.00  0.00    +0.000 HD
ENDBRANCH   7  10
ENDBRANCH   1   7
BRANCH   4  13
ATOM     13  N   UNL     1       1.896   8.056  20.435  0.00  0.00    +0.000 N 
ATOM     14  H   UNL     1       1.789   8.800  19.755  0.00  0.00    +0.000 HD
BRANCH  13  15
ATOM     15  C   UNL     1       1.088   8.253  21.640  0.00  0.00    +0.000 C 
BRANCH  15  16
ATOM     16  C   UNL     1       0.179   9.458  21.536  0.00  0.00    +0.000 A 
ATOM     17  C   UNL     1      -0.166  10.040  20.304  0.00  0.00    +0.000 A 
ATOM     18  C   UNL     1      -0.889  11.233  20.261  0.00  0.00    +0.000 A 
ATOM     19 BR   UNL     1      -1.252  12.046  18.594  0.00  0.00    +0.000 Br
ATOM     20  C   UNL     1      -1.318  11.846  21.435  0.00  0.00    +0.000 A 
ATOM     21  C   UNL     1      -1.041  11.248  22.665  0.00  0.00    +0.000 A 
ATOM     22  C   UNL     1      -0.297  10.067  22.705  0.00  0.00    +0.000 A 
BRANCH  22  23
ATOM     23  O   UNL     1      -0.014   9.483  23.910  0.00  0.00    +0.000 OA
ATOM     24  H   UNL     1       0.865   9.069  23.861  0.00  0.00    +0.000 HD
ENDBRANCH  22  23
ENDBRANCH  15  16
ENDBRANCH  13  15
ENDBRANCH   4  13
TORSDOF 6
ENDMDL
MODEL 6
REMARK VINA RESULT:      -6.8      6.095      7.842
REMARK  Name = 
REMARK  6 active torsions:
REMARK  status: ('A' for Active; 'I' for Inactive)
REMARK    1  A    between atoms: N_1  and  S_2
REMARK    2  A    between atoms: S_2  and  C_5
REMARK    3  A    between atoms: C_8  and  N_9
REMARK    4  A    between atoms: N_9  and  C_10
REMARK    5  A    between atoms: C_10  and  C_11
REMARK    6  A    between atoms: C_17  and  O_18
REMARK                            x       y       z     vdW  Elec       q    Type
REMARK                         _______ _______ _______ _____ _____    ______ ____
ROOT
ATOM      1  C   UNL     1       1.435   8.945  19.621  0.00  0.00    +0.000 A 
ATOM      2  C   UNL     1       1.966   8.626  18.373  0.00  0.00    +0.000 A 
ATOM      3  C   UNL     1       2.449   7.334  18.146  0.00  0.00    +0.000 A 
ATOM      4  C   UNL     1       2.431   6.355  19.155  0.00  0.00    +0.000 A 
ATOM      5  C   UNL     1       1.909   6.715  20.406  0.00  0.00    +0.000 A 
ATOM      6  C   UNL     1       1.415   8.000  20.646  0.00  0.00    +0.000 A 
ENDROOT
BRANCH   1   7
ATOM      7  S   UNL     1       0.679  10.520  19.878  0.00  0.00    +0.000 S 
ATOM      8  O   UNL     1      -0.751  10.375  19.811  0.00  0.00    +0.000 OA
ATOM      9  O   UNL     1       1.397  11.523  19.121  0.00  0.00    +0.000 OA
BRANCH   7  10
ATOM     10  N   UNL     1       1.081  10.821  21.486  0.00  0.00    +0.000 NA
ATOM     11  H   UNL     1       1.995  10.409  21.683  0.00  0.00    +0.000 HD
ATOM     12  H   UNL     1       0.352  10.481  22.110  0.00  0.00    +0.000 HD
ENDBRANCH   7  10
ENDBRANCH   1   7
BRANCH   4  13
ATOM     13  N   UNL     1       2.820   5.056  18.846  0.00  0.00    +0.000 N 
ATOM     14  H   UNL     1       2.558   4.738  17.920  0.00  0.00    +0.000 HD
BRANCH  13  15
ATOM     15  C   UNL     1       4.110   4.528  19.295  0.00  0.00    +0.000 C 
BRANCH  15  16
ATOM     16  C   UNL     1       5.189   4.664  18.243  0.00  0.00    +0.000 A 
ATOM     17  C   UNL     1       4.943   4.443  16.877  0.00  0.00    +0.000 A 
ATOM     18  C   UNL     1       5.995   4.439  15.959  0.00  0.00    +0.000 A 
ATOM     19 BR   UNL     1       5.650   4.040  14.144  0.00  0.00    +0.000 Br
ATOM     20  C   UNL     1       7.299   4.697  16.373  0.00  0.00    +0.000 A 
ATOM     21  C   UNL     1       7.552   4.983  17.715  0.00  0.00    +0.000 A 
ATOM     22  C   UNL     1       6.501   4.962  18.634  0.00  0.00    +0.000 A 
BRANCH  22  23
ATOM     23  O   UNL     1       6.746   5.232  19.953  0.00  0.00    +0.000 OA
ATOM     24  H   UNL     1       6.859   6.193  20.061  0.00  0.00    +0.000 HD
ENDBRANCH  22  23
ENDBRANCH  15  16
ENDBRANCH  13  15
ENDBRANCH   4  13
TORSDOF 6
ENDMDL
MODEL 7
REMARK VINA RESULT:      -6.8      6.090      7.882
REMARK  Name = 
REMARK  6 active torsions:
REMARK  status: ('A' for Active; 'I' for Inactive)
REMARK    1  A    between atoms: N_1  and  S_2
REMARK    2  A    between atoms: S_2  and  C_5
REMARK    3  A    between atoms: C_8  and  N_9
REMARK    4  A    between atoms: N_9  and  C_10
REMARK    5  A    between atoms: C_10  and  C_11
REMARK    6  A    between atoms: C_17  and  O_18
REMARK                            x       y       z     vdW  Elec       q    Type
REMARK                         _______ _______ _______ _____ _____    ______ ____
ROOT
ATOM      1  C   UNL     1       1.565   7.757  20.450  0.00  0.00    +0.000 A 
ATOM      2  C   UNL     1       2.241   7.843  19.234  0.00  0.00    +0.000 A 
ATOM      3  C   UNL     1       2.637   6.668  18.588  0.00  0.00    +0.000 A 
ATOM      4  C   UNL     1       2.390   5.403  19.148  0.00  0.00    +0.000 A 
ATOM      5  C   UNL     1       1.727   5.352  20.383  0.00  0.00    +0.000 A 
ATOM      6  C   UNL     1       1.317   6.516  21.036  0.00  0.00    +0.000 A 
ENDROOT
BRANCH   1   7
ATOM      7  S   UNL     1       0.918   9.217  21.201  0.00  0.00    +0.000 S 
ATOM      8  O   UNL     1       0.633  10.189  20.180  0.00  0.00    +0.000 OA
ATOM      9  O   UNL     1       1.696   9.531  22.382  0.00  0.00    +0.000 OA
BRANCH   7  10
ATOM     10  N   UNL     1      -0.558   8.659  21.792  0.00  0.00    +0.000 NA
ATOM     11  H   UNL     1      -0.600   8.831  22.799  0.00  0.00    +0.000 HD
ATOM     12  H   UNL     1      -0.693   7.678  21.554  0.00  0.00    +0.000 HD
ENDBRANCH   7  10
ENDBRANCH   1   7
BRANCH   4  13
ATOM     13  N   UNL     1       2.707   4.264  18.414  0.00  0.00    +0.000 N 
ATOM     14  H   UNL     1       2.417   4.285  17.443  0.00  0.00    +0.000 HD
BRANCH  13  15
ATOM     15  C   UNL     1       3.972   3.558  18.626  0.00  0.00    +0.000 C 
BRANCH  15  16
ATOM     16  C   UNL     1       5.079   4.073  17.731  0.00  0.00    +0.000 A 
ATOM     17  C   UNL     1       5.063   3.901  16.336  0.00  0.00    +0.000 A 
ATOM     18  C   UNL     1       6.169   4.264  15.565  0.00  0.00    +0.000 A 
ATOM     19 BR   UNL     1       6.160   3.929  13.705  0.00  0.00    +0.000 Br
ATOM     20  C   UNL     1       7.289   4.841  16.157  0.00  0.00    +0.000 A 
ATOM     21  C   UNL     1       7.296   5.078  17.533  0.00  0.00    +0.000 A 
ATOM     22  C   UNL     1       6.197   4.693  18.304  0.00  0.00    +0.000 A 
BRANCH  22  23
ATOM     23  O   UNL     1       6.204   4.915  19.654  0.00  0.00    +0.000 OA
ATOM     24  H   UNL     1       6.412   4.080  20.109  0.00  0.00    +0.000 HD
ENDBRANCH  22  23
ENDBRANCH  15  16
ENDBRANCH  13  15
ENDBRANCH   4  13
TORSDOF 6
ENDMDL
MODEL 8
REMARK VINA RESULT:      -6.7      7.474      8.464
REMARK  Name = 
REMARK  6 active torsions:
REMARK  status: ('A' for Active; 'I' for Inactive)
REMARK    1  A    between atoms: N_1  and  S_2
REMARK    2  A    between atoms: S_2  and  C_5
REMARK    3  A    between atoms: C_8  and  N_9
REMARK    4  A    between atoms: N_9  and  C_10
REMARK    5  A    between atoms: C_10  and  C_11
REMARK    6  A    between atoms: C_17  and  O_18
REMARK                            x       y       z     vdW  Elec       q    Type
REMARK                         _______ _______ _______ _____ _____    ______ ____
ROOT
ATOM      1  C   UNL     1       2.449   4.194  18.901  0.00  0.00    +0.000 A 
ATOM      2  C   UNL     1       1.970   4.370  20.198  0.00  0.00    +0.000 A 
ATOM      3  C   UNL     1       1.819   5.667  20.699  0.00  0.00    +0.000 A 
ATOM      4  C   UNL     1       2.160   6.795  19.933  0.00  0.00    +0.000 A 
ATOM      5  C   UNL     1       2.659   6.581  18.640  0.00  0.00    +0.000 A 
ATOM      6  C   UNL     1       2.808   5.293  18.122  0.00  0.00    +0.000 A 
ENDROOT
BRANCH   1   7
ATOM      7  S   UNL     1       2.498   2.576  18.195  0.00  0.00    +0.000 S 
ATOM      8  O   UNL     1       3.530   1.809  18.839  0.00  0.00    +0.000 OA
ATOM      9  O   UNL     1       2.387   2.680  16.755  0.00  0.00    +0.000 OA
BRANCH   7  10
ATOM     10  N   UNL     1       1.017   1.951  18.699  0.00  0.00    +0.000 NA
ATOM     11  H   UNL     1       1.169   1.347  19.509  0.00  0.00    +0.000 HD
ATOM     12  H   UNL     1       0.549   1.471  17.932  0.00  0.00    +0.000 HD
ENDBRANCH   7  10
ENDBRANCH   1   7
BRANCH   4  13
ATOM     13  N   UNL     1       1.888   8.063  20.437  0.00  0.00    +0.000 N 
ATOM     14  H   UNL     1       1.756   8.784  19.737  0.00  0.00    +0.000 HD
BRANCH  13  15
ATOM     15  C   UNL     1       1.038   8.239  21.616  0.00  0.00    +0.000 C 
BRANCH  15  16
ATOM     16  C   UNL     1       0.154   9.463  21.513  0.00  0.00    +0.000 A 
ATOM     17  C   UNL     1      -0.249  10.002  20.280  0.00  0.00    +0.000 A 
ATOM     18  C   UNL     1      -0.945  11.212  20.228  0.00  0.00    +0.000 A 
ATOM     19 BR   UNL     1      -1.386  11.964  18.551  0.00  0.00    +0.000 Br
ATOM     20  C   UNL     1      -1.289  11.883  21.398  0.00  0.00    +0.000 A 
ATOM     21  C   UNL     1      -0.953  11.329  22.634  0.00  0.00    +0.000 A 
ATOM     22  C   UNL     1      -0.237  10.132  22.681  0.00  0.00    +0.000 A 
BRANCH  22  23
ATOM     23  O   UNL     1       0.102   9.591  23.891  0.00  0.00    +0.000 OA
ATOM     24  H   UNL     1       0.769  10.159  24.314  0.00  0.00    +0.000 HD
ENDBRANCH  22  23
ENDBRANCH  15  16
ENDBRANCH  13  15
ENDBRANCH   4  13
TORSDOF 6
ENDMDL
MODEL 9
REMARK VINA RESULT:      -6.7      6.161      7.936
REMARK  Name = 
REMARK  6 active torsions:
REMARK  status: ('A' for Active; 'I' for Inactive)
REMARK    1  A    between atoms: N_1  and  S_2
REMARK    2  A    between atoms: S_2  and  C_5
REMARK    3  A    between atoms: C_8  and  N_9
REMARK    4  A    between atoms: N_9  and  C_10
REMARK    5  A    between atoms: C_10  and  C_11
REMARK    6  A    between atoms: C_17  and  O_18
REMARK                            x       y       z     vdW  Elec       q    Type
REMARK                         _______ _______ _______ _____ _____    ______ ____
ROOT
ATOM      1  C   UNL     1       1.547   7.529  20.548  0.00  0.00    +0.000 A 
ATOM      2  C   UNL     1       2.170   7.733  19.318  0.00  0.00    +0.000 A 
ATOM      3  C   UNL     1       2.569   6.626  18.563  0.00  0.00    +0.000 A 
ATOM      4  C   UNL     1       2.375   5.313  19.025  0.00  0.00    +0.000 A 
ATOM      5  C   UNL     1       1.764   5.143  20.276  0.00  0.00    +0.000 A 
ATOM      6  C   UNL     1       1.353   6.239  21.039  0.00  0.00    +0.000 A 
ENDROOT
BRANCH   1   7
ATOM      7  S   UNL     1       0.896   8.906  21.442  0.00  0.00    +0.000 S 
ATOM      8  O   UNL     1       1.835   9.296  22.459  0.00  0.00    +0.000 OA
ATOM      9  O   UNL     1      -0.506   8.673  21.721  0.00  0.00    +0.000 OA
BRANCH   7  10
ATOM     10  N   UNL     1       0.908  10.104  20.258  0.00  0.00    +0.000 NA
ATOM     11  H   UNL     1       0.814   9.665  19.339  0.00  0.00    +0.000 HD
ATOM     12  H   UNL     1       1.744  10.679  20.336  0.00  0.00    +0.000 HD
ENDBRANCH   7  10
ENDBRANCH   1   7
BRANCH   4  13
ATOM     13  N   UNL     1       2.688   4.247  18.188  0.00  0.00    +0.000 N 
ATOM     14  H   UNL     1       2.431   4.374  17.216  0.00  0.00    +0.000 HD
BRANCH  13  15
ATOM     15  C   UNL     1       3.929   3.489  18.364  0.00  0.00    +0.000 C 
BRANCH  15  16
ATOM     16  C   UNL     1       5.050   4.004  17.488  0.00  0.00    +0.000 A 
ATOM     17  C   UNL     1       5.046   3.854  16.091  0.00  0.00    +0.000 A 
ATOM     18  C   UNL     1       6.164   4.215  15.336  0.00  0.00    +0.000 A 
ATOM     19 BR   UNL     1       6.170   3.909  13.471  0.00  0.00    +0.000 Br
ATOM     20  C   UNL     1       7.285   4.769  15.949  0.00  0.00    +0.000 A 
ATOM     21  C   UNL     1       7.281   4.985  17.327  0.00  0.00    +0.000 A 
ATOM     22  C   UNL     1       6.171   4.601  18.082  0.00  0.00    +0.000 A 
BRANCH  22  23
ATOM     23  O   UNL     1       6.167   4.802  19.435  0.00  0.00    +0.000 OA
ATOM     24  H   UNL     1       6.589   4.040  19.867  0.00  0.00    +0.000 HD
ENDBRANCH  22  23
ENDBRANCH  15  16
ENDBRANCH  13  15
ENDBRANCH   4  13
TORSDOF 6
ENDMDL
