MODEL 1
REMARK VINA RESULT:      -7.5      0.000      0.000
REMARK  Name = 
REMARK  6 active torsions:
REMARK  status: ('A' for Active; 'I' for Inactive)
REMARK    1  A    between atoms: C_3  and  C_4
REMARK    2  A    between atoms: C_9  and  C_10
REMARK    3  A    between atoms: C_10  and  O_11
REMARK    4  A    between atoms: O_11  and  C_12
REMARK    5  A    between atoms: C_18  and  C_19
REMARK    6  A    between atoms: C_18  and  C_20
REMARK                            x       y       z     vdW  Elec       q    Type
REMARK                         _______ _______ _______ _____ _____    ______ ____
ROOT
ATOM      1  C   UNL     1       4.253   2.076  19.527  0.00  0.00    +0.000 C 
ATOM      2  C   UNL     1       3.407   3.120  19.522  0.00  0.00    +0.000 C 
ATOM      3  C   UNL     1       3.636   4.503  18.894  0.00  0.00    +0.000 C 
ATOM      4  C   UNL     1       2.655   4.669  17.713  0.00  0.00    +0.000 C 
ATOM      5  C   UNL     1       1.277   4.799  18.382  0.00  0.00    +0.000 C 
ATOM      6  C   UNL     1       1.602   4.613  19.874  0.00  0.00    +0.000 C 
ATOM      7  C   UNL     1       2.929   5.380  19.945  0.00  0.00    +0.000 C 
ATOM      8  C   UNL     1       2.046   3.156  20.217  0.00  0.00    +0.000 C 
ATOM      9  C   UNL     1       1.101   2.075  19.676  0.00  0.00    +0.000 C 
ATOM     10  C   UNL     1       2.175   2.979  21.742  0.00  0.00    +0.000 C 
ENDROOT
BRANCH   3  11
ATOM     11  C   UNL     1       5.121   4.897  18.728  0.00  0.00    +0.000 C 
ATOM     12  O   UNL     1       5.708   5.486  19.640  0.00  0.00    +0.000 OA
ATOM     13  N   UNL     1       5.814   4.474  17.610  0.00  0.00    +0.000 N 
ATOM     14  C   UNL     1       7.263   4.527  17.563  0.00  0.00    +0.000 C 
ATOM     15  C   UNL     1       7.574   4.692  16.090  0.00  0.00    +0.000 C 
ATOM     16  C   UNL     1       6.429   3.969  15.367  0.00  0.00    +0.000 C 
ATOM     17  C   UNL     1       5.289   3.903  16.386  0.00  0.00    +0.000 C 
BRANCH  16  18
ATOM     18  C   UNL     1       5.991   4.724  14.110  0.00  0.00    +0.000 C 
BRANCH  18  19
ATOM     19  O   UNL     1       5.484   3.794  13.158  0.00  0.00    +0.000 OA
ATOM     20  C   UNL     1       6.477   3.439  12.205  0.00  0.00    +0.000 C 
ENDBRANCH  18  19
ENDBRANCH  16  18
ENDBRANCH   3  11
TORSDOF 3
ENDMDL
MODEL 2
REMARK VINA RESULT:      -6.8      1.632      2.382
REMARK  Name = 
REMARK  6 active torsions:
REMARK  status: ('A' for Active; 'I' for Inactive)
REMARK    1  A    between atoms: C_3  and  C_4
REMARK    2  A    between atoms: C_9  and  C_10
REMARK    3  A    between atoms: C_10  and  O_11
REMARK    4  A    between atoms: O_11  and  C_12
REMARK    5  A    between atoms: C_18  and  C_19
REMARK    6  A    between atoms: C_18  and  C_20
REMARK                            x       y       z     vdW  Elec       q    Type
REMARK                         _______ _______ _______ _____ _____    ______ ____
ROOT
ATOM      1  C   UNL     1       1.382   4.064  17.296  0.00  0.00    +0.000 C 
ATOM      2  C   UNL     1       2.004   3.913  18.478  0.00  0.00    +0.000 C 
ATOM      3  C   UNL     1       2.733   4.992  19.293  0.00  0.00    +0.000 C 
ATOM      4  C   UNL     1       1.940   5.237  20.594  0.00  0.00    +0.000 C 
ATOM      5  C   UNL     1       2.157   3.956  21.416  0.00  0.00    +0.000 C 
ATOM      6  C   UNL     1       2.984   3.075  20.465  0.00  0.00    +0.000 C 
ATOM      7  C   UNL     1       3.895   4.146  19.851  0.00  0.00    +0.000 C 
ATOM      8  C   UNL     1       2.166   2.590  19.227  0.00  0.00    +0.000 C 
ATOM      9  C   UNL     1       0.809   1.967  19.583  0.00  0.00    +0.000 C 
ATOM     10  C   UNL     1       2.980   1.566  18.413  0.00  0.00    +0.000 C 
ENDROOT
BRANCH   3  11
ATOM     11  C   UNL     1       3.247   6.188  18.461  0.00  0.00    +0.000 C 
ATOM     12  O   UNL     1       2.797   7.319  18.663  0.00  0.00    +0.000 OA
ATOM     13  N   UNL     1       4.298   6.002  17.584  0.00  0.00    +0.000 N 
ATOM     14  C   UNL     1       5.026   7.131  17.037  0.00  0.00    +0.000 C 
ATOM     15  C   UNL     1       5.524   6.630  15.698  0.00  0.00    +0.000 C 
ATOM     16  C   UNL     1       5.731   5.122  15.899  0.00  0.00    +0.000 C 
ATOM     17  C   UNL     1       4.866   4.757  17.107  0.00  0.00    +0.000 C 
BRANCH  16  18
ATOM     18  C   UNL     1       5.304   4.326  14.664  0.00  0.00    +0.000 C 
BRANCH  18  19
ATOM     19  O   UNL     1       6.458   3.767  14.046  0.00  0.00    +0.000 OA
ATOM     20  C   UNL     1       6.251   3.566  12.653  0.00  0.00    +0.000 C 
ENDBRANCH  18  19
ENDBRANCH  16  18
ENDBRANCH   3  11
TORSDOF 3
ENDMDL
MODEL 3
REMARK VINA RESULT:      -6.7      1.394      2.414
REMARK  Name = 
REMARK  6 active torsions:
REMARK  status: ('A' for Active; 'I' for Inactive)
REMARK    1  A    between atoms: C_3  and  C_4
REMARK    2  A    between atoms: C_9  and  C_10
REMARK    3  A    between atoms: C_10  and  O_11
REMARK    4  A    between atoms: O_11  and  C_12
REMARK    5  A    between atoms: C_18  and  C_19
REMARK    6  A    between atoms: C_18  and  C_20
REMARK                            x       y       z     vdW  Elec       q    Type
REMARK                         _______ _______ _______ _____ _____    ______ ____
ROOT
ATOM      1  C   UNL     1       1.844   5.630  20.331  0.00  0.00    +0.000 C 
ATOM      2  C   UNL     1       2.334   4.458  19.894  0.00  0.00    +0.000 C 
ATOM      3  C   UNL     1       3.434   4.241  18.843  0.00  0.00    +0.000 C 
ATOM      4  C   UNL     1       4.667   3.635  19.547  0.00  0.00    +0.000 C 
ATOM      5  C   UNL     1       4.229   2.207  19.912  0.00  0.00    +0.000 C 
ATOM      6  C   UNL     1       2.762   2.170  19.451  0.00  0.00    +0.000 C 
ATOM      7  C   UNL     1       2.881   2.979  18.153  0.00  0.00    +0.000 C 
ATOM      8  C   UNL     1       1.835   3.078  20.320  0.00  0.00    +0.000 C 
ATOM      9  C   UNL     1       1.988   2.858  21.831  0.00  0.00    +0.000 C 
ATOM     10  C   UNL     1       0.358   2.859  19.937  0.00  0.00    +0.000 C 
ENDROOT
BRANCH   3  11
ATOM     11  C   UNL     1       3.608   5.407  17.844  0.00  0.00    +0.000 C 
ATOM     12  O   UNL     1       2.844   6.375  17.886  0.00  0.00    +0.000 OA
ATOM     13  N   UNL     1       4.697   5.414  16.993  0.00  0.00    +0.000 N 
ATOM     14  C   UNL     1       5.085   6.619  16.284  0.00  0.00    +0.000 C 
ATOM     15  C   UNL     1       5.752   6.102  15.026  0.00  0.00    +0.000 C 
ATOM     16  C   UNL     1       6.378   4.763  15.440  0.00  0.00    +0.000 C 
ATOM     17  C   UNL     1       5.615   4.335  16.695  0.00  0.00    +0.000 C 
BRANCH  16  18
ATOM     18  C   UNL     1       6.241   3.712  14.335  0.00  0.00    +0.000 C 
BRANCH  18  19
ATOM     19  O   UNL     1       6.626   4.289  13.092  0.00  0.00    +0.000 OA
ATOM     20  C   UNL     1       6.444   3.372  12.021  0.00  0.00    +0.000 C 
ENDBRANCH  18  19
ENDBRANCH  16  18
ENDBRANCH   3  11
TORSDOF 3
ENDMDL
MODEL 4
REMARK VINA RESULT:      -6.6      1.297      1.416
REMARK  Name = 
REMARK  6 active torsions:
REMARK  status: ('A' for Active; 'I' for Inactive)
REMARK    1  A    between atoms: C_3  and  C_4
REMARK    2  A    between atoms: C_9  and  C_10
REMARK    3  A    between atoms: C_10  and  O_11
REMARK    4  A    between atoms: O_11  and  C_12
REMARK    5  A    between atoms: C_18  and  C_19
REMARK    6  A    between atoms: C_18  and  C_20
REMARK                            x       y       z     vdW  Elec       q    Type
REMARK                         _______ _______ _______ _____ _____    ______ ____
ROOT
ATOM      1  C   UNL     1       4.969   3.485  19.631  0.00  0.00    +0.000 C 
ATOM      2  C   UNL     1       3.782   3.912  19.166  0.00  0.00    +0.000 C 
ATOM      3  C   UNL     1       3.516   4.698  17.873  0.00  0.00    +0.000 C 
ATOM      4  C   UNL     1       2.719   3.794  16.909  0.00  0.00    +0.000 C 
ATOM      5  C   UNL     1       1.329   3.683  17.558  0.00  0.00    +0.000 C 
ATOM      6  C   UNL     1       1.499   4.469  18.869  0.00  0.00    +0.000 C 
ATOM      7  C   UNL     1       2.382   5.619  18.365  0.00  0.00    +0.000 C 
ATOM      8  C   UNL     1       2.443   3.751  19.884  0.00  0.00    +0.000 C 
ATOM      9  C   UNL     1       2.096   2.275  20.119  0.00  0.00    +0.000 C 
ATOM     10  C   UNL     1       2.428   4.482  21.240  0.00  0.00    +0.000 C 
ENDROOT
BRANCH   3  11
ATOM     11  C   UNL     1       4.724   5.510  17.353  0.00  0.00    +0.000 C 
ATOM     12  O   UNL     1       5.003   6.597  17.865  0.00  0.00    +0.000 OA
ATOM     13  N   UNL     1       5.557   4.951  16.402  0.00  0.00    +0.000 N 
ATOM     14  C   UNL     1       6.865   5.516  16.128  0.00  0.00    +0.000 C 
ATOM     15  C   UNL     1       7.122   5.155  14.680  0.00  0.00    +0.000 C 
ATOM     16  C   UNL     1       6.380   3.826  14.473  0.00  0.00    +0.000 C 
ATOM     17  C   UNL     1       5.336   3.772  15.590  0.00  0.00    +0.000 C 
BRANCH  16  18
ATOM     18  C   UNL     1       5.710   3.764  13.099  0.00  0.00    +0.000 C 
BRANCH  18  19
ATOM     19  O   UNL     1       6.448   2.884  12.258  0.00  0.00    +0.000 OA
ATOM     20  C   UNL     1       5.582   2.064  11.484  0.00  0.00    +0.000 C 
ENDBRANCH  18  19
ENDBRANCH  16  18
ENDBRANCH   3  11
TORSDOF 3
ENDMDL
MODEL 5
REMARK VINA RESULT:      -6.4      2.103      3.266
REMARK  Name = 
REMARK  6 active torsions:
REMARK  status: ('A' for Active; 'I' for Inactive)
REMARK    1  A    between atoms: C_3  and  C_4
REMARK    2  A    between atoms: C_9  and  C_10
REMARK    3  A    between atoms: C_10  and  O_11
REMARK    4  A    between atoms: O_11  and  C_12
REMARK    5  A    between atoms: C_18  and  C_19
REMARK    6  A    between atoms: C_18  and  C_20
REMARK                            x       y       z     vdW  Elec       q    Type
REMARK                         _______ _______ _______ _____ _____    ______ ____
ROOT
ATOM      1  C   UNL     1       4.548   3.538  20.081  0.00  0.00    +0.000 C 
ATOM      2  C   UNL     1       3.324   3.531  19.526  0.00  0.00    +0.000 C 
ATOM      3  C   UNL     1       2.937   3.018  18.130  0.00  0.00    +0.000 C 
ATOM      4  C   UNL     1       2.044   1.771  18.300  0.00  0.00    +0.000 C 
ATOM      5  C   UNL     1       0.724   2.325  18.861  0.00  0.00    +0.000 C 
ATOM      6  C   UNL     1       1.026   3.823  19.031  0.00  0.00    +0.000 C 
ATOM      7  C   UNL     1       1.862   4.061  17.766  0.00  0.00    +0.000 C 
ATOM      8  C   UNL     1       2.061   4.105  20.166  0.00  0.00    +0.000 C 
ATOM      9  C   UNL     1       1.730   3.412  21.494  0.00  0.00    +0.000 C 
ATOM     10  C   UNL     1       2.182   5.620  20.417  0.00  0.00    +0.000 C 
ENDROOT
BRANCH   3  11
ATOM     11  C   UNL     1       4.093   3.010  17.105  0.00  0.00    +0.000 C 
ATOM     12  O   UNL     1       4.500   1.941  16.642  0.00  0.00    +0.000 OA
ATOM     13  N   UNL     1       4.578   4.210  16.619  0.00  0.00    +0.000 N 
ATOM     14  C   UNL     1       5.413   4.255  15.434  0.00  0.00    +0.000 C 
ATOM     15  C   UNL     1       6.271   5.486  15.640  0.00  0.00    +0.000 C 
ATOM     16  C   UNL     1       5.391   6.440  16.460  0.00  0.00    +0.000 C 
ATOM     17  C   UNL     1       4.339   5.548  17.121  0.00  0.00    +0.000 C 
BRANCH  16  18
ATOM     18  C   UNL     1       6.207   7.191  17.516  0.00  0.00    +0.000 C 
BRANCH  18  19
ATOM     19  O   UNL     1       7.388   7.709  16.912  0.00  0.00    +0.000 OA
ATOM     20  C   UNL     1       8.018   8.668  17.752  0.00  0.00    +0.000 C 
ENDBRANCH  18  19
ENDBRANCH  16  18
ENDBRANCH   3  11
TORSDOF 3
ENDMDL
MODEL 6
REMARK VINA RESULT:      -6.3      0.886      1.228
REMARK  Name = 
REMARK  6 active torsions:
REMARK  status: ('A' for Active; 'I' for Inactive)
REMARK    1  A    between atoms: C_3  and  C_4
REMARK    2  A    between atoms: C_9  and  C_10
REMARK    3  A    between atoms: C_10  and  O_11
REMARK    4  A    between atoms: O_11  and  C_12
REMARK    5  A    between atoms: C_18  and  C_19
REMARK    6  A    between atoms: C_18  and  C_20
REMARK                            x       y       z     vdW  Elec       q    Type
REMARK                         _______ _______ _______ _____ _____    ______ ____
ROOT
ATOM      1  C   UNL     1       4.092   1.934  19.496  0.00  0.00    +0.000 C 
ATOM      2  C   UNL     1       3.238   2.971  19.525  0.00  0.00    +0.000 C 
ATOM      3  C   UNL     1       3.484   4.397  19.008  0.00  0.00    +0.000 C 
ATOM      4  C   UNL     1       2.559   4.641  17.797  0.00  0.00    +0.000 C 
ATOM      5  C   UNL     1       1.150   4.716  18.407  0.00  0.00    +0.000 C 
ATOM      6  C   UNL     1       1.405   4.426  19.895  0.00  0.00    +0.000 C 
ATOM      7  C   UNL     1       2.721   5.193  20.084  0.00  0.00    +0.000 C 
ATOM      8  C   UNL     1       1.845   2.950  20.155  0.00  0.00    +0.000 C 
ATOM      9  C   UNL     1       0.937   1.905  19.493  0.00  0.00    +0.000 C 
ATOM     10  C   UNL     1       1.904   2.666  21.668  0.00  0.00    +0.000 C 
ENDROOT
BRANCH   3  11
ATOM     11  C   UNL     1       4.972   4.809  18.942  0.00  0.00    +0.000 C 
ATOM     12  O   UNL     1       5.489   5.407  19.889  0.00  0.00    +0.000 OA
ATOM     13  N   UNL     1       5.744   4.393  17.874  0.00  0.00    +0.000 N 
ATOM     14  C   UNL     1       7.192   4.464  17.924  0.00  0.00    +0.000 C 
ATOM     15  C   UNL     1       7.599   4.631  16.476  0.00  0.00    +0.000 C 
ATOM     16  C   UNL     1       6.515   3.891  15.679  0.00  0.00    +0.000 C 
ATOM     17  C   UNL     1       5.310   3.813  16.619  0.00  0.00    +0.000 C 
BRANCH  16  18
ATOM     18  C   UNL     1       6.153   4.638  14.393  0.00  0.00    +0.000 C 
BRANCH  18  19
ATOM     19  O   UNL     1       6.348   6.034  14.592  0.00  0.00    +0.000 OA
ATOM     20  C   UNL     1       5.209   6.631  15.199  0.00  0.00    +0.000 C 
ENDBRANCH  18  19
ENDBRANCH  16  18
ENDBRANCH   3  11
TORSDOF 3
ENDMDL
MODEL 7
REMARK VINA RESULT:      -6.3      0.968      2.181
REMARK  Name = 
REMARK  6 active torsions:
REMARK  status: ('A' for Active; 'I' for Inactive)
REMARK    1  A    between atoms: C_3  and  C_4
REMARK    2  A    between atoms: C_9  and  C_10
REMARK    3  A    between atoms: C_10  and  O_11
REMARK    4  A    between atoms: O_11  and  C_12
REMARK    5  A    between atoms: C_18  and  C_19
REMARK    6  A    between atoms: C_18  and  C_20
REMARK                            x       y       z     vdW  Elec       q    Type
REMARK                         _______ _______ _______ _____ _____    ______ ____
ROOT
ATOM      1  C   UNL     1       3.065   6.155  19.006  0.00  0.00    +0.000 C 
ATOM      2  C   UNL     1       3.069   4.813  19.067  0.00  0.00    +0.000 C 
ATOM      3  C   UNL     1       4.285   3.890  19.237  0.00  0.00    +0.000 C 
ATOM      4  C   UNL     1       4.185   3.202  20.615  0.00  0.00    +0.000 C 
ATOM      5  C   UNL     1       3.008   2.224  20.464  0.00  0.00    +0.000 C 
ATOM      6  C   UNL     1       2.504   2.512  19.040  0.00  0.00    +0.000 C 
ATOM      7  C   UNL     1       3.848   2.724  18.330  0.00  0.00    +0.000 C 
ATOM      8  C   UNL     1       1.839   3.919  18.909  0.00  0.00    +0.000 C 
ATOM      9  C   UNL     1       0.782   4.208  19.983  0.00  0.00    +0.000 C 
ATOM     10  C   UNL     1       1.188   4.078  17.521  0.00  0.00    +0.000 C 
ENDROOT
BRANCH   3  11
ATOM     11  C   UNL     1       5.626   4.502  18.772  0.00  0.00    +0.000 C 
ATOM     12  O   UNL     1       6.332   5.121  19.573  0.00  0.00    +0.000 OA
ATOM     13  N   UNL     1       6.083   4.243  17.494  0.00  0.00    +0.000 N 
ATOM     14  C   UNL     1       7.460   4.506  17.123  0.00  0.00    +0.000 C 
ATOM     15  C   UNL     1       7.390   4.792  15.638  0.00  0.00    +0.000 C 
ATOM     16  C   UNL     1       6.208   3.950  15.136  0.00  0.00    +0.000 C 
ATOM     17  C   UNL     1       5.360   3.667  16.378  0.00  0.00    +0.000 C 
BRANCH  16  18
ATOM     18  C   UNL     1       5.392   4.699  14.079  0.00  0.00    +0.000 C 
BRANCH  18  19
ATOM     19  O   UNL     1       5.103   3.817  13.000  0.00  0.00    +0.000 OA
ATOM     20  C   UNL     1       6.285   3.467  12.291  0.00  0.00    +0.000 C 
ENDBRANCH  18  19
ENDBRANCH  16  18
ENDBRANCH   3  11
TORSDOF 3
ENDMDL
MODEL 8
REMARK VINA RESULT:      -6.3      3.740      6.881
REMARK  Name = 
REMARK  6 active torsions:
REMARK  status: ('A' for Active; 'I' for Inactive)
REMARK    1  A    between atoms: C_3  and  C_4
REMARK    2  A    between atoms: C_9  and  C_10
REMARK    3  A    between atoms: C_10  and  O_11
REMARK    4  A    between atoms: O_11  and  C_12
REMARK    5  A    between atoms: C_18  and  C_19
REMARK    6  A    between atoms: C_18  and  C_20
REMARK                            x       y       z     vdW  Elec       q    Type
REMARK                         _______ _______ _______ _____ _____    ______ ____
ROOT
ATOM      1  C   UNL     1       1.213   4.703  17.467  0.00  0.00    +0.000 C 
ATOM      2  C   UNL     1       2.003   4.413  18.516  0.00  0.00    +0.000 C 
ATOM      3  C   UNL     1       2.522   5.383  19.588  0.00  0.00    +0.000 C 
ATOM      4  C   UNL     1       1.871   5.010  20.937  0.00  0.00    +0.000 C 
ATOM      5  C   UNL     1       2.525   3.670  21.314  0.00  0.00    +0.000 C 
ATOM      6  C   UNL     1       3.423   3.374  20.102  0.00  0.00    +0.000 C 
ATOM      7  C   UNL     1       3.929   4.792  19.805  0.00  0.00    +0.000 C 
ATOM      8  C   UNL     1       2.606   3.041  18.813  0.00  0.00    +0.000 C 
ATOM      9  C   UNL     1       1.521   1.975  19.024  0.00  0.00    +0.000 C 
ATOM     10  C   UNL     1       3.547   2.571  17.688  0.00  0.00    +0.000 C 
ENDROOT
BRANCH   3  11
ATOM     11  C   UNL     1       2.588   6.861  19.141  0.00  0.00    +0.000 C 
ATOM     12  O   UNL     1       3.351   7.197  18.232  0.00  0.00    +0.000 OA
ATOM     13  N   UNL     1       1.699   7.772  19.680  0.00  0.00    +0.000 N 
ATOM     14  C   UNL     1       1.496   9.071  19.068  0.00  0.00    +0.000 C 
ATOM     15  C   UNL     1       1.092   9.960  20.225  0.00  0.00    +0.000 C 
ATOM     16  C   UNL     1       0.360   9.024  21.198  0.00  0.00    +0.000 C 
ATOM     17  C   UNL     1       0.836   7.616  20.833  0.00  0.00    +0.000 C 
BRANCH  16  18
ATOM     18  C   UNL     1       0.697   9.351  22.655  0.00  0.00    +0.000 C 
BRANCH  18  19
ATOM     19  O   UNL     1       0.235  10.663  22.958  0.00  0.00    +0.000 OA
ATOM     20  C   UNL     1      -1.178  10.688  23.114  0.00  0.00    +0.000 C 
ENDBRANCH  18  19
ENDBRANCH  16  18
ENDBRANCH   3  11
TORSDOF 3
ENDMDL
MODEL 9
REMARK VINA RESULT:      -6.2      3.494      6.365
REMARK  Name = 
REMARK  6 active torsions:
REMARK  status: ('A' for Active; 'I' for Inactive)
REMARK    1  A    between atoms: C_3  and  C_4
REMARK    2  A    between atoms: C_9  and  C_10
REMARK    3  A    between atoms: C_10  and  O_11
REMARK    4  A    between atoms: O_11  and  C_12
REMARK    5  A    between atoms: C_18  and  C_19
REMARK    6  A    between atoms: C_18  and  C_20
REMARK                            x       y       z     vdW  Elec       q    Type
REMARK                         _______ _______ _______ _____ _____    ______ ____
ROOT
ATOM      1  C   UNL     1       1.306   4.544  17.267  0.00  0.00    +0.000 C 
ATOM      2  C   UNL     1       2.025   4.420  18.396  0.00  0.00    +0.000 C 
ATOM      3  C   UNL     1       2.610   5.549  19.258  0.00  0.00    +0.000 C 
ATOM      4  C   UNL     1       1.878   5.552  20.617  0.00  0.00    +0.000 C 
ATOM      5  C   UNL     1       2.370   4.273  21.314  0.00  0.00    +0.000 C 
ATOM      6  C   UNL     1       3.271   3.627  20.248  0.00  0.00    +0.000 C 
ATOM      7  C   UNL     1       3.937   4.886  19.677  0.00  0.00    +0.000 C 
ATOM      8  C   UNL     1       2.466   3.096  19.020  0.00  0.00    +0.000 C 
ATOM      9  C   UNL     1       1.266   2.216  19.396  0.00  0.00    +0.000 C 
ATOM     10  C   UNL     1       3.387   2.297  18.079  0.00  0.00    +0.000 C 
ENDROOT
BRANCH   3  11
ATOM     11  C   UNL     1       2.849   6.876  18.503  0.00  0.00    +0.000 C 
ATOM     12  O   UNL     1       3.706   6.936  17.617  0.00  0.00    +0.000 OA
ATOM     13  N   UNL     1       2.015   7.951  18.741  0.00  0.00    +0.000 N 
ATOM     14  C   UNL     1       1.983   9.088  17.841  0.00  0.00    +0.000 C 
ATOM     15  C   UNL     1       1.582  10.246  18.730  0.00  0.00    +0.000 C 
ATOM     16  C   UNL     1       0.694   9.616  19.813  0.00  0.00    +0.000 C 
ATOM     17  C   UNL     1       1.058   8.130  19.815  0.00  0.00    +0.000 C 
BRANCH  16  18
ATOM     18  C   UNL     1       0.953  10.241  21.186  0.00  0.00    +0.000 C 
BRANCH  18  19
ATOM     19  O   UNL     1       0.871   9.228  22.183  0.00  0.00    +0.000 OA
ATOM     20  C   UNL     1      -0.071   9.573  23.191  0.00  0.00    +0.000 C 
ENDBRANCH  18  19
ENDBRANCH  16  18
ENDBRANCH   3  11
TORSDOF 3
ENDMDL
