MODEL 1
REMARK VINA RESULT:      -6.6      0.000      0.000
REMARK  Name = 
REMARK  4 active torsions:
REMARK  status: ('A' for Active; 'I' for Inactive)
REMARK    1  A    between atoms: C_1  and  N_2
REMARK    2  A    between atoms: C_6  and  S_7
REMARK    3  A    between atoms: S_7  and  C_10
REMARK    4  A    between atoms: C_10  and  C_11
REMARK                            x       y       z     vdW  Elec       q    Type
REMARK                         _______ _______ _______ _____ _____    ______ ____
ROOT
ATOM      1  S   UNL     1       5.014   4.474  18.357  0.00  0.00    +0.000 S 
ATOM      2  O   UNL     1       6.106   4.277  19.295  0.00  0.00    +0.000 OA
ATOM      3  O   UNL     1       4.195   5.672  18.363  0.00  0.00    +0.000 OA
ENDROOT
BRANCH   1   9
ATOM      4  C   UNL     1       7.266   6.516  17.139  0.00  0.00    +0.000 C 
ATOM      5  N   UNL     1       6.743   5.419  16.361  0.00  0.00    +0.000 N 
ATOM      6  C   UNL     1       7.103   5.120  15.075  0.00  0.00    +0.000 A 
ATOM      7  C   UNL     1       6.359   4.014  14.741  0.00  0.00    +0.000 A 
ATOM      8  N   UNL     1       5.559   3.632  15.786  0.00  0.00    +0.000 NA
ATOM      9  C   UNL     1       5.803   4.497  16.761  0.00  0.00    +0.000 A 
ENDBRANCH   1   9
BRANCH   1  10
ATOM     10  C   UNL     1       3.985   3.012  18.266  0.00  0.00    +0.000 C 
BRANCH  10  11
ATOM     11  C   UNL     1       3.046   2.972  19.441  0.00  0.00    +0.000 A 
ATOM     12  C   UNL     1       1.703   3.344  19.329  0.00  0.00    +0.000 A 
ATOM     13  C   UNL     1       0.881   3.323  20.453  0.00  0.00    +0.000 A 
ATOM     14  C   UNL     1       1.431   2.928  21.662  0.00  0.00    +0.000 A 
ATOM     15  N   UNL     1       2.718   2.556  21.808  0.00  0.00    +0.000 NA
ATOM     16  C   UNL     1       3.494   2.580  20.701  0.00  0.00    +0.000 A 
ENDBRANCH  10  11
ENDBRANCH   1  10
TORSDOF 3
ENDMDL
MODEL 2
REMARK VINA RESULT:      -6.4      1.677      1.936
REMARK  Name = 
REMARK  4 active torsions:
REMARK  status: ('A' for Active; 'I' for Inactive)
REMARK    1  A    between atoms: C_1  and  N_2
REMARK    2  A    between atoms: C_6  and  S_7
REMARK    3  A    between atoms: S_7  and  C_10
REMARK    4  A    between atoms: C_10  and  C_11
REMARK                            x       y       z     vdW  Elec       q    Type
REMARK                         _______ _______ _______ _____ _____    ______ ____
ROOT
ATOM      1  S   UNL     1       5.495   4.654  19.073  0.00  0.00    +0.000 S 
ATOM      2  O   UNL     1       5.196   3.271  19.402  0.00  0.00    +0.000 OA
ATOM      3  O   UNL     1       6.576   5.385  19.707  0.00  0.00    +0.000 OA
ENDROOT
BRANCH   1   9
ATOM      4  C   UNL     1       7.287   6.749  17.304  0.00  0.00    +0.000 C 
ATOM      5  N   UNL     1       6.717   5.560  16.717  0.00  0.00    +0.000 N 
ATOM      6  C   UNL     1       6.844   5.189  15.406  0.00  0.00    +0.000 A 
ATOM      7  C   UNL     1       6.146   4.010  15.297  0.00  0.00    +0.000 A 
ATOM      8  N   UNL     1       5.599   3.654  16.503  0.00  0.00    +0.000 NA
ATOM      9  C   UNL     1       5.954   4.608  17.354  0.00  0.00    +0.000 A 
ENDBRANCH   1   9
BRANCH   1  10
ATOM     10  C   UNL     1       4.000   5.638  19.054  0.00  0.00    +0.000 C 
BRANCH  10  11
ATOM     11  C   UNL     1       2.795   4.741  19.158  0.00  0.00    +0.000 A 
ATOM     12  C   UNL     1       2.190   4.453  20.385  0.00  0.00    +0.000 A 
ATOM     13  C   UNL     1       1.098   3.590  20.435  0.00  0.00    +0.000 A 
ATOM     14  C   UNL     1       0.641   3.040  19.248  0.00  0.00    +0.000 A 
ATOM     15  N   UNL     1       1.193   3.299  18.046  0.00  0.00    +0.000 NA
ATOM     16  C   UNL     1       2.249   4.144  18.024  0.00  0.00    +0.000 A 
ENDBRANCH  10  11
ENDBRANCH   1  10
TORSDOF 3
ENDMDL
MODEL 3
REMARK VINA RESULT:      -6.2      1.264      1.506
REMARK  Name = 
REMARK  4 active torsions:
REMARK  status: ('A' for Active; 'I' for Inactive)
REMARK    1  A    between atoms: C_1  and  N_2
REMARK    2  A    between atoms: C_6  and  S_7
REMARK    3  A    between atoms: S_7  and  C_10
REMARK    4  A    between atoms: C_10  and  C_11
REMARK                            x       y       z     vdW  Elec       q    Type
REMARK                         _______ _______ _______ _____ _____    ______ ____
ROOT
ATOM      1  S   UNL     1       5.339   4.823  19.044  0.00  0.00    +0.000 S 
ATOM      2  O   UNL     1       6.554   5.115  19.784  0.00  0.00    +0.000 OA
ATOM      3  O   UNL     1       4.223   5.749  18.991  0.00  0.00    +0.000 OA
ENDROOT
BRANCH   1   9
ATOM      4  C   UNL     1       7.271   6.792  17.278  0.00  0.00    +0.000 C 
ATOM      5  N   UNL     1       6.693   5.596  16.713  0.00  0.00    +0.000 N 
ATOM      6  C   UNL     1       6.869   5.167  15.425  0.00  0.00    +0.000 A 
ATOM      7  C   UNL     1       6.142   4.005  15.331  0.00  0.00    +0.000 A 
ATOM      8  N   UNL     1       5.531   3.715  16.524  0.00  0.00    +0.000 NA
ATOM      9  C   UNL     1       5.874   4.693  17.351  0.00  0.00    +0.000 A 
ENDBRANCH   1   9
BRANCH   1  10
ATOM     10  C   UNL     1       4.762   3.167  19.401  0.00  0.00    +0.000 C 
BRANCH  10  11
ATOM     11  C   UNL     1       3.257   3.146  19.444  0.00  0.00    +0.000 A 
ATOM     12  C   UNL     1       2.547   3.347  20.632  0.00  0.00    +0.000 A 
ATOM     13  C   UNL     1       1.156   3.283  20.627  0.00  0.00    +0.000 A 
ATOM     14  C   UNL     1       0.514   3.022  19.428  0.00  0.00    +0.000 A 
ATOM     15  N   UNL     1       1.163   2.830  18.262  0.00  0.00    +0.000 NA
ATOM     16  C   UNL     1       2.513   2.902  18.292  0.00  0.00    +0.000 A 
ENDBRANCH  10  11
ENDBRANCH   1  10
TORSDOF 3
ENDMDL
MODEL 4
REMARK VINA RESULT:      -6.2      0.777      1.225
REMARK  Name = 
REMARK  4 active torsions:
REMARK  status: ('A' for Active; 'I' for Inactive)
REMARK    1  A    between atoms: C_1  and  N_2
REMARK    2  A    between atoms: C_6  and  S_7
REMARK    3  A    between atoms: S_7  and  C_10
REMARK    4  A    between atoms: C_10  and  C_11
REMARK                            x       y       z     vdW  Elec       q    Type
REMARK                         _______ _______ _______ _____ _____    ______ ____
ROOT
ATOM      1  S   UNL     1       5.048   4.483  18.182  0.00  0.00    +0.000 S 
ATOM      2  O   UNL     1       6.125   4.218  19.120  0.00  0.00    +0.000 OA
ATOM      3  O   UNL     1       4.281   5.714  18.211  0.00  0.00    +0.000 OA
ENDROOT
BRANCH   1   9
ATOM      4  C   UNL     1       7.310   6.524  16.979  0.00  0.00    +0.000 C 
ATOM      5  N   UNL     1       6.789   5.428  16.198  0.00  0.00    +0.000 N 
ATOM      6  C   UNL     1       7.157   5.130  14.913  0.00  0.00    +0.000 A 
ATOM      7  C   UNL     1       6.413   4.026  14.573  0.00  0.00    +0.000 A 
ATOM      8  N   UNL     1       5.607   3.642  15.614  0.00  0.00    +0.000 NA
ATOM      9  C   UNL     1       5.846   4.507  16.591  0.00  0.00    +0.000 A 
ENDBRANCH   1   9
BRANCH   1  10
ATOM     10  C   UNL     1       3.959   3.069  18.054  0.00  0.00    +0.000 C 
BRANCH  10  11
ATOM     11  C   UNL     1       3.002   3.051  19.216  0.00  0.00    +0.000 A 
ATOM     12  C   UNL     1       3.411   2.700  20.507  0.00  0.00    +0.000 A 
ATOM     13  C   UNL     1       2.481   2.664  21.543  0.00  0.00    +0.000 A 
ATOM     14  C   UNL     1       1.164   2.985  21.256  0.00  0.00    +0.000 A 
ATOM     15  N   UNL     1       0.734   3.335  20.027  0.00  0.00    +0.000 NA
ATOM     16  C   UNL     1       1.657   3.367  19.040  0.00  0.00    +0.000 A 
ENDBRANCH  10  11
ENDBRANCH   1  10
TORSDOF 3
ENDMDL
MODEL 5
REMARK VINA RESULT:      -6.1      1.475      1.631
REMARK  Name = 
REMARK  4 active torsions:
REMARK  status: ('A' for Active; 'I' for Inactive)
REMARK    1  A    between atoms: C_1  and  N_2
REMARK    2  A    between atoms: C_6  and  S_7
REMARK    3  A    between atoms: S_7  and  C_10
REMARK    4  A    between atoms: C_10  and  C_11
REMARK                            x       y       z     vdW  Elec       q    Type
REMARK                         _______ _______ _______ _____ _____    ______ ____
ROOT
ATOM      1  S   UNL     1       5.568   4.649  19.081  0.00  0.00    +0.000 S 
ATOM      2  O   UNL     1       5.288   3.262  19.409  0.00  0.00    +0.000 OA
ATOM      3  O   UNL     1       6.652   5.388  19.700  0.00  0.00    +0.000 OA
ENDROOT
BRANCH   1   9
ATOM      4  C   UNL     1       7.340   6.751  17.301  0.00  0.00    +0.000 C 
ATOM      5  N   UNL     1       6.756   5.569  16.713  0.00  0.00    +0.000 N 
ATOM      6  C   UNL     1       6.861   5.208  15.397  0.00  0.00    +0.000 A 
ATOM      7  C   UNL     1       6.156   4.033  15.290  0.00  0.00    +0.000 A 
ATOM      8  N   UNL     1       5.627   3.670  16.502  0.00  0.00    +0.000 NA
ATOM      9  C   UNL     1       5.999   4.615  17.354  0.00  0.00    +0.000 A 
ENDBRANCH   1   9
BRANCH   1  10
ATOM     10  C   UNL     1       4.064   5.618  19.091  0.00  0.00    +0.000 C 
BRANCH  10  11
ATOM     11  C   UNL     1       2.875   4.718  19.300  0.00  0.00    +0.000 A 
ATOM     12  C   UNL     1       2.249   4.060  18.237  0.00  0.00    +0.000 A 
ATOM     13  C   UNL     1       1.130   3.265  18.476  0.00  0.00    +0.000 A 
ATOM     14  C   UNL     1       0.672   3.150  19.778  0.00  0.00    +0.000 A 
ATOM     15  N   UNL     1       1.253   3.763  20.829  0.00  0.00    +0.000 NA
ATOM     16  C   UNL     1       2.340   4.524  20.571  0.00  0.00    +0.000 A 
ENDBRANCH  10  11
ENDBRANCH   1  10
TORSDOF 3
ENDMDL
MODEL 6
REMARK VINA RESULT:      -6.0      0.955      1.107
REMARK  Name = 
REMARK  4 active torsions:
REMARK  status: ('A' for Active; 'I' for Inactive)
REMARK    1  A    between atoms: C_1  and  N_2
REMARK    2  A    between atoms: C_6  and  S_7
REMARK    3  A    between atoms: S_7  and  C_10
REMARK    4  A    between atoms: C_10  and  C_11
REMARK                            x       y       z     vdW  Elec       q    Type
REMARK                         _______ _______ _______ _____ _____    ______ ____
ROOT
ATOM      1  S   UNL     1       5.323   4.812  19.041  0.00  0.00    +0.000 S 
ATOM      2  O   UNL     1       6.538   5.128  19.771  0.00  0.00    +0.000 OA
ATOM      3  O   UNL     1       4.192   5.719  18.990  0.00  0.00    +0.000 OA
ENDROOT
BRANCH   1   9
ATOM      4  C   UNL     1       7.272   6.764  17.275  0.00  0.00    +0.000 C 
ATOM      5  N   UNL     1       6.678   5.578  16.707  0.00  0.00    +0.000 N 
ATOM      6  C   UNL     1       6.843   5.152  15.417  0.00  0.00    +0.000 A 
ATOM      7  C   UNL     1       6.101   3.999  15.321  0.00  0.00    +0.000 A 
ATOM      8  N   UNL     1       5.491   3.712  16.515  0.00  0.00    +0.000 NA
ATOM      9  C   UNL     1       5.850   4.683  17.345  0.00  0.00    +0.000 A 
ENDBRANCH   1   9
BRANCH   1  10
ATOM     10  C   UNL     1       4.777   3.149  19.410  0.00  0.00    +0.000 C 
BRANCH  10  11
ATOM     11  C   UNL     1       3.277   3.120  19.546  0.00  0.00    +0.000 A 
ATOM     12  C   UNL     1       2.439   2.897  18.449  0.00  0.00    +0.000 A 
ATOM     13  C   UNL     1       1.056   2.915  18.619  0.00  0.00    +0.000 A 
ATOM     14  C   UNL     1       0.553   3.153  19.887  0.00  0.00    +0.000 A 
ATOM     15  N   UNL     1       1.329   3.365  20.969  0.00  0.00    +0.000 NA
ATOM     16  C   UNL     1       2.667   3.338  20.779  0.00  0.00    +0.000 A 
ENDBRANCH  10  11
ENDBRANCH   1  10
TORSDOF 3
ENDMDL
MODEL 7
REMARK VINA RESULT:      -6.0      2.206      5.864
REMARK  Name = 
REMARK  4 active torsions:
REMARK  status: ('A' for Active; 'I' for Inactive)
REMARK    1  A    between atoms: C_1  and  N_2
REMARK    2  A    between atoms: C_6  and  S_7
REMARK    3  A    between atoms: S_7  and  C_10
REMARK    4  A    between atoms: C_10  and  C_11
REMARK                            x       y       z     vdW  Elec       q    Type
REMARK                         _______ _______ _______ _____ _____    ______ ____
ROOT
ATOM      1  S   UNL     1       2.508   4.364  17.842  0.00  0.00    +0.000 S 
ATOM      2  O   UNL     1       3.394   3.337  17.321  0.00  0.00    +0.000 OA
ATOM      3  O   UNL     1       1.192   4.609  17.283  0.00  0.00    +0.000 OA
ENDROOT
BRANCH   1   9
ATOM      4  C   UNL     1       0.636   1.931  18.984  0.00  0.00    +0.000 C 
ATOM      5  N   UNL     1       1.363   2.806  19.873  0.00  0.00    +0.000 N 
ATOM      6  C   UNL     1       1.348   2.731  21.240  0.00  0.00    +0.000 A 
ATOM      7  C   UNL     1       2.168   3.749  21.664  0.00  0.00    +0.000 A 
ATOM      8  N   UNL     1       2.681   4.439  20.596  0.00  0.00    +0.000 NA
ATOM      9  C   UNL     1       2.179   3.854  19.516  0.00  0.00    +0.000 A 
ENDBRANCH   1   9
BRANCH   1  10
ATOM     10  C   UNL     1       3.390   5.905  18.068  0.00  0.00    +0.000 C 
BRANCH  10  11
ATOM     11  C   UNL     1       4.872   5.669  17.955  0.00  0.00    +0.000 A 
ATOM     12  C   UNL     1       5.561   5.843  16.751  0.00  0.00    +0.000 A 
ATOM     13  C   UNL     1       6.927   5.578  16.689  0.00  0.00    +0.000 A 
ATOM     14  C   UNL     1       7.566   5.147  17.840  0.00  0.00    +0.000 A 
ATOM     15  N   UNL     1       6.938   4.974  19.020  0.00  0.00    +0.000 NA
ATOM     16  C   UNL     1       5.613   5.243  19.056  0.00  0.00    +0.000 A 
ENDBRANCH  10  11
ENDBRANCH   1  10
TORSDOF 3
ENDMDL
MODEL 8
REMARK VINA RESULT:      -6.0      2.027      5.832
REMARK  Name = 
REMARK  4 active torsions:
REMARK  status: ('A' for Active; 'I' for Inactive)
REMARK    1  A    between atoms: C_1  and  N_2
REMARK    2  A    between atoms: C_6  and  S_7
REMARK    3  A    between atoms: S_7  and  C_10
REMARK    4  A    between atoms: C_10  and  C_11
REMARK                            x       y       z     vdW  Elec       q    Type
REMARK                         _______ _______ _______ _____ _____    ______ ____
ROOT
ATOM      1  S   UNL     1       2.279   4.682  17.869  0.00  0.00    +0.000 S 
ATOM      2  O   UNL     1       0.995   4.447  17.233  0.00  0.00    +0.000 OA
ATOM      3  O   UNL     1       2.809   6.017  18.075  0.00  0.00    +0.000 OA
ENDROOT
BRANCH   1   9
ATOM      4  C   UNL     1       0.689   2.019  18.922  0.00  0.00    +0.000 C 
ATOM      5  N   UNL     1       1.378   2.898  19.836  0.00  0.00    +0.000 N 
ATOM      6  C   UNL     1       1.437   2.734  21.194  0.00  0.00    +0.000 A 
ATOM      7  C   UNL     1       2.183   3.794  21.651  0.00  0.00    +0.000 A 
ATOM      8  N   UNL     1       2.580   4.595  20.611  0.00  0.00    +0.000 NA
ATOM      9  C   UNL     1       2.079   4.038  19.517  0.00  0.00    +0.000 A 
ENDBRANCH   1   9
BRANCH   1  10
ATOM     10  C   UNL     1       3.534   3.610  17.178  0.00  0.00    +0.000 C 
BRANCH  10  11
ATOM     11  C   UNL     1       4.888   4.258  17.303  0.00  0.00    +0.000 A 
ATOM     12  C   UNL     1       5.504   4.899  16.224  0.00  0.00    +0.000 A 
ATOM     13  C   UNL     1       6.772   5.453  16.379  0.00  0.00    +0.000 A 
ATOM     14  C   UNL     1       7.388   5.350  17.617  0.00  0.00    +0.000 A 
ATOM     15  N   UNL     1       6.823   4.747  18.681  0.00  0.00    +0.000 NA
ATOM     16  C   UNL     1       5.589   4.221  18.506  0.00  0.00    +0.000 A 
ENDBRANCH  10  11
ENDBRANCH   1  10
TORSDOF 3
ENDMDL
MODEL 9
REMARK VINA RESULT:      -6.0      2.215      5.555
REMARK  Name = 
REMARK  4 active torsions:
REMARK  status: ('A' for Active; 'I' for Inactive)
REMARK    1  A    between atoms: C_1  and  N_2
REMARK    2  A    between atoms: C_6  and  S_7
REMARK    3  A    between atoms: S_7  and  C_10
REMARK    4  A    between atoms: C_10  and  C_11
REMARK                            x       y       z     vdW  Elec       q    Type
REMARK                         _______ _______ _______ _____ _____    ______ ____
ROOT
ATOM      1  S   UNL     1       2.746   3.776  17.804  0.00  0.00    +0.000 S 
ATOM      2  O   UNL     1       3.832   2.870  17.473  0.00  0.00    +0.000 OA
ATOM      3  O   UNL     1       1.472   3.745  17.111  0.00  0.00    +0.000 OA
ENDROOT
BRANCH   1   9
ATOM      4  C   UNL     1       4.470   2.170  20.079  0.00  0.00    +0.000 C 
ATOM      5  N   UNL     1       3.148   2.682  20.355  0.00  0.00    +0.000 N 
ATOM      6  C   UNL     1       2.484   2.553  21.545  0.00  0.00    +0.000 A 
ATOM      7  C   UNL     1       1.276   3.178  21.351  0.00  0.00    +0.000 A 
ATOM      8  N   UNL     1       1.187   3.684  20.080  0.00  0.00    +0.000 NA
ATOM      9  C   UNL     1       2.332   3.371  19.488  0.00  0.00    +0.000 A 
ENDBRANCH   1   9
BRANCH   1  10
ATOM     10  C   UNL     1       3.344   5.458  17.941  0.00  0.00    +0.000 C 
BRANCH  10  11
ATOM     11  C   UNL     1       4.842   5.459  18.085  0.00  0.00    +0.000 A 
ATOM     12  C   UNL     1       5.693   5.527  16.977  0.00  0.00    +0.000 A 
ATOM     13  C   UNL     1       7.073   5.489  17.159  0.00  0.00    +0.000 A 
ATOM     14  C   UNL     1       7.563   5.388  18.451  0.00  0.00    +0.000 A 
ATOM     15  N   UNL     1       6.776   5.328  19.543  0.00  0.00    +0.000 NA
ATOM     16  C   UNL     1       5.440   5.371  19.340  0.00  0.00    +0.000 A 
ENDBRANCH  10  11
ENDBRANCH   1  10
TORSDOF 3
ENDMDL
