MODEL 1
REMARK VINA RESULT:      -7.6      0.000      0.000
REMARK  Name = 
REMARK  9 active torsions:
REMARK  status: ('A' for Active; 'I' for Inactive)
REMARK    1  A    between atoms: C_4  and  N_5
REMARK    2  A    between atoms: C_6  and  N_7
REMARK    3  A    between atoms: N_10  and  C_11
REMARK    4  A    between atoms: C_14  and  C_15
REMARK    5  A    between atoms: N_17  and  C_18
REMARK    6  A    between atoms: C_18  and  C_19
REMARK    7  A    between atoms: C_19  and  C_20
REMARK    8  A    between atoms: C_20  and  C_21
REMARK    9  A    between atoms: C_21  and  O_23
REMARK                            x       y       z     vdW  Elec       q    Type
REMARK                         _______ _______ _______ _____ _____    ______ ____
ROOT
ATOM      1  N   UNL     1      -1.553  11.431  18.601  0.00  0.00    +0.000 N 
ATOM      2  C   UNL     1      -0.841  10.268  18.430  0.00  0.00    +0.000 C 
ATOM      3  O   UNL     1      -1.256   9.296  17.805  0.00  0.00    +0.000 OA
ATOM      4  N   UNL     1       0.383  10.262  19.078  0.00  0.00    +0.000 N 
ATOM      5  H   UNL     1      -1.231  12.079  19.313  0.00  0.00    +0.000 HD
ATOM      6  H   UNL     1       0.403  10.748  19.961  0.00  0.00    +0.000 HD
ENDROOT
BRANCH   1  11
ATOM      7  N   UNL     1      -6.814  12.280  17.269  0.00  0.00    +0.000 N 
ATOM      8  C   UNL     1      -5.494  12.138  17.538  0.00  0.00    +0.000 A 
ATOM      9  N   UNL     1      -4.694  11.731  16.612  0.00  0.00    +0.000 NA
ATOM     10  C   UNL     1      -3.359  11.557  16.887  0.00  0.00    +0.000 A 
ATOM     11  C   UNL     1      -2.843  11.697  18.137  0.00  0.00    +0.000 A 
ATOM     12  C   UNL     1      -3.780  12.245  19.169  0.00  0.00    +0.000 A 
ATOM     13  O   UNL     1      -3.392  12.478  20.315  0.00  0.00    +0.000 OA
ATOM     14  N   UNL     1      -5.072  12.434  18.788  0.00  0.00    +0.000 N 
ATOM     15  H   UNL     1      -6.996  12.217  16.270  0.00  0.00    +0.000 HD
ATOM     16  H   UNL     1      -7.296  13.053  17.704  0.00  0.00    +0.000 HD
ATOM     17  H   UNL     1      -5.724  12.735  19.493  0.00  0.00    +0.000 HD
BRANCH  10  18
ATOM     18  N   UNL     1      -2.602  11.211  15.786  0.00  0.00    +0.000 N 
ATOM     19  H   UNL     1      -2.905  10.299  15.461  0.00  0.00    +0.000 HD
ATOM     20  H   UNL     1      -1.602  11.189  16.009  0.00  0.00    +0.000 HD
ENDBRANCH  10  18
ENDBRANCH   1  11
BRANCH   4  21
ATOM     21  C   UNL     1       1.238   9.136  18.952  0.00  0.00    +0.000 A 
ATOM     22  C   UNL     1       1.387   8.222  19.999  0.00  0.00    +0.000 A 
ATOM     23  C   UNL     1       2.273   7.147  19.881  0.00  0.00    +0.000 A 
ATOM     24  C   UNL     1       3.042   6.988  18.723  0.00  0.00    +0.000 A 
ATOM     25  C   UNL     1       2.881   7.893  17.666  0.00  0.00    +0.000 A 
ATOM     26  C   UNL     1       1.962   8.951  17.772  0.00  0.00    +0.000 A 
BRANCH  24  27
ATOM     27  C   UNL     1       3.962   5.818  18.661  0.00  0.00    +0.000 C 
ATOM     28  O   UNL     1       4.648   5.529  19.637  0.00  0.00    +0.000 OA
ATOM     29  N   UNL     1       4.004   5.103  17.482  0.00  0.00    +0.000 N 
ATOM     30  H   UNL     1       3.544   5.462  16.654  0.00  0.00    +0.000 HD
BRANCH  29  31
ATOM     31  C   UNL     1       4.888   3.966  17.317  0.00  0.00    +0.000 C 
BRANCH  31  32
ATOM     32  C   UNL     1       6.034   4.232  16.336  0.00  0.00    +0.000 C 
BRANCH  32  33
ATOM     33  C   UNL     1       5.566   4.653  14.947  0.00  0.00    +0.000 C 
BRANCH  33  34
ATOM     34  C   UNL     1       6.693   4.592  13.951  0.00  0.00    +0.000 C 
ATOM     35  O   UNL     1       6.657   3.932  12.923  0.00  0.00    +0.000 OA
BRANCH  34  36
ATOM     36  O   UNL     1       7.741   5.381  14.275  0.00  0.00    +0.000 OA
ATOM     37  H   UNL     1       7.489   6.220  14.704  0.00  0.00    +0.000 HD
ENDBRANCH  34  36
ENDBRANCH  33  34
ENDBRANCH  32  33
ENDBRANCH  31  32
ENDBRANCH  29  31
ENDBRANCH  24  27
ENDBRANCH   4  21
TORSDOF 9
ENDMDL
MODEL 2
REMARK VINA RESULT:      -7.5      2.209      3.493
REMARK  Name = 
REMARK  9 active torsions:
REMARK  status: ('A' for Active; 'I' for Inactive)
REMARK    1  A    between atoms: C_4  and  N_5
REMARK    2  A    between atoms: C_6  and  N_7
REMARK    3  A    between atoms: N_10  and  C_11
REMARK    4  A    between atoms: C_14  and  C_15
REMARK    5  A    between atoms: N_17  and  C_18
REMARK    6  A    between atoms: C_18  and  C_19
REMARK    7  A    between atoms: C_19  and  C_20
REMARK    8  A    between atoms: C_20  and  C_21
REMARK    9  A    between atoms: C_21  and  O_23
REMARK                            x       y       z     vdW  Elec       q    Type
REMARK                         _______ _______ _______ _____ _____    ______ ____
ROOT
ATOM      1  N   UNL     1      -1.476  11.413  18.444  0.00  0.00    +0.000 N 
ATOM      2  C   UNL     1      -0.802  10.216  18.376  0.00  0.00    +0.000 C 
ATOM      3  O   UNL     1      -1.277   9.189  17.901  0.00  0.00    +0.000 OA
ATOM      4  N   UNL     1       0.459  10.253  18.948  0.00  0.00    +0.000 N 
ATOM      5  H   UNL     1      -1.096  12.133  19.050  0.00  0.00    +0.000 HD
ATOM      6  H   UNL     1       0.544  10.842  19.762  0.00  0.00    +0.000 HD
ENDROOT
BRANCH   1  11
ATOM      7  N   UNL     1      -6.794  12.179  17.301  0.00  0.00    +0.000 N 
ATOM      8  C   UNL     1      -5.463  12.058  17.524  0.00  0.00    +0.000 A 
ATOM      9  N   UNL     1      -4.689  11.668  16.568  0.00  0.00    +0.000 NA
ATOM     10  C   UNL     1      -3.343  11.515  16.795  0.00  0.00    +0.000 A 
ATOM     11  C   UNL     1      -2.786  11.659  18.027  0.00  0.00    +0.000 A 
ATOM     12  C   UNL     1      -3.694  12.188  19.094  0.00  0.00    +0.000 A 
ATOM     13  O   UNL     1      -3.270  12.423  20.226  0.00  0.00    +0.000 OA
ATOM     14  N   UNL     1      -5.002  12.357  18.759  0.00  0.00    +0.000 N 
ATOM     15  H   UNL     1      -7.010  12.117  16.310  0.00  0.00    +0.000 HD
ATOM     16  H   UNL     1      -7.273  12.942  17.757  0.00  0.00    +0.000 HD
ATOM     17  H   UNL     1      -5.634  12.644  19.488  0.00  0.00    +0.000 HD
BRANCH  10  18
ATOM     18  N   UNL     1      -2.619  11.186  15.666  0.00  0.00    +0.000 N 
ATOM     19  H   UNL     1      -2.846  11.850  14.934  0.00  0.00    +0.000 HD
ATOM     20  H   UNL     1      -2.827  10.233  15.352  0.00  0.00    +0.000 HD
ENDBRANCH  10  18
ENDBRANCH   1  11
BRANCH   4  21
ATOM     21  C   UNL     1       1.279   9.095  18.911  0.00  0.00    +0.000 A 
ATOM     22  C   UNL     1       1.370   8.240  20.015  0.00  0.00    +0.000 A 
ATOM     23  C   UNL     1       2.222   7.133  19.985  0.00  0.00    +0.000 A 
ATOM     24  C   UNL     1       3.015   6.881  18.860  0.00  0.00    +0.000 A 
ATOM     25  C   UNL     1       2.912   7.726  17.747  0.00  0.00    +0.000 A 
ATOM     26  C   UNL     1       2.026   8.816  17.765  0.00  0.00    +0.000 A 
BRANCH  24  27
ATOM     27  C   UNL     1       3.897   5.680  18.892  0.00  0.00    +0.000 C 
ATOM     28  O   UNL     1       5.045   5.778  19.315  0.00  0.00    +0.000 OA
ATOM     29  N   UNL     1       3.371   4.491  18.430  0.00  0.00    +0.000 N 
ATOM     30  H   UNL     1       2.481   4.483  17.948  0.00  0.00    +0.000 HD
BRANCH  29  31
ATOM     31  C   UNL     1       4.161   3.277  18.397  0.00  0.00    +0.000 C 
BRANCH  31  32
ATOM     32  C   UNL     1       3.601   2.169  19.296  0.00  0.00    +0.000 C 
BRANCH  32  33
ATOM     33  C   UNL     1       3.395   2.603  20.744  0.00  0.00    +0.000 C 
BRANCH  33  34
ATOM     34  C   UNL     1       1.931   2.647  21.095  0.00  0.00    +0.000 C 
ATOM     35  O   UNL     1       1.496   2.457  22.220  0.00  0.00    +0.000 OA
BRANCH  34  36
ATOM     36  O   UNL     1       1.137   2.968  20.051  0.00  0.00    +0.000 OA
ATOM     37  H   UNL     1       1.616   3.087  19.209  0.00  0.00    +0.000 HD
ENDBRANCH  34  36
ENDBRANCH  33  34
ENDBRANCH  32  33
ENDBRANCH  31  32
ENDBRANCH  29  31
ENDBRANCH  24  27
ENDBRANCH   4  21
TORSDOF 9
ENDMDL
MODEL 3
REMARK VINA RESULT:      -7.4      2.712      4.130
REMARK  Name = 
REMARK  9 active torsions:
REMARK  status: ('A' for Active; 'I' for Inactive)
REMARK    1  A    between atoms: C_4  and  N_5
REMARK    2  A    between atoms: C_6  and  N_7
REMARK    3  A    between atoms: N_10  and  C_11
REMARK    4  A    between atoms: C_14  and  C_15
REMARK    5  A    between atoms: N_17  and  C_18
REMARK    6  A    between atoms: C_18  and  C_19
REMARK    7  A    between atoms: C_19  and  C_20
REMARK    8  A    between atoms: C_20  and  C_21
REMARK    9  A    between atoms: C_21  and  O_23
REMARK                            x       y       z     vdW  Elec       q    Type
REMARK                         _______ _______ _______ _____ _____    ______ ____
ROOT
ATOM      1  N   UNL     1       1.002   9.051  19.602  0.00  0.00    +0.000 N 
ATOM      2  C   UNL     1       1.859   8.565  18.643  0.00  0.00    +0.000 C 
ATOM      3  O   UNL     1       2.065   9.116  17.566  0.00  0.00    +0.000 OA
ATOM      4  N   UNL     1       2.438   7.351  18.977  0.00  0.00    +0.000 N 
ATOM      5  H   UNL     1       0.724   8.421  20.348  0.00  0.00    +0.000 HD
ATOM      6  H   UNL     1       1.847   6.724  19.500  0.00  0.00    +0.000 HD
ENDROOT
BRANCH   1  11
ATOM      7  N   UNL     1      -2.151  13.544  19.813  0.00  0.00    +0.000 N 
ATOM      8  C   UNL     1      -1.335  12.470  19.685  0.00  0.00    +0.000 A 
ATOM      9  N   UNL     1      -1.471  11.684  18.672  0.00  0.00    +0.000 NA
ATOM     10  C   UNL     1      -0.666  10.577  18.551  0.00  0.00    +0.000 A 
ATOM     11  C   UNL     1       0.217  10.204  19.514  0.00  0.00    +0.000 A 
ATOM     12  C   UNL     1       0.407  11.177  20.636  0.00  0.00    +0.000 A 
ATOM     13  O   UNL     1       1.237  10.968  21.522  0.00  0.00    +0.000 OA
ATOM     14  N   UNL     1      -0.401  12.272  20.642  0.00  0.00    +0.000 N 
ATOM     15  H   UNL     1      -2.680  13.710  18.961  0.00  0.00    +0.000 HD
ATOM     16  H   UNL     1      -1.749  14.390  20.192  0.00  0.00    +0.000 HD
ATOM     17  H   UNL     1      -0.330  12.896  21.429  0.00  0.00    +0.000 HD
BRANCH  10  18
ATOM     18  N   UNL     1      -0.852   9.876  17.376  0.00  0.00    +0.000 N 
ATOM     19  H   UNL     1      -1.720  10.185  16.951  0.00  0.00    +0.000 HD
ATOM     20  H   UNL     1      -0.885   8.865  17.542  0.00  0.00    +0.000 HD
ENDBRANCH  10  18
ENDBRANCH   1  11
BRANCH   4  21
ATOM     21  C   UNL     1       3.374   6.755  18.092  0.00  0.00    +0.000 A 
ATOM     22  C   UNL     1       4.439   7.492  17.564  0.00  0.00    +0.000 A 
ATOM     23  C   UNL     1       5.321   6.907  16.652  0.00  0.00    +0.000 A 
ATOM     24  C   UNL     1       5.135   5.585  16.235  0.00  0.00    +0.000 A 
ATOM     25  C   UNL     1       4.079   4.839  16.777  0.00  0.00    +0.000 A 
ATOM     26  C   UNL     1       3.216   5.417  17.722  0.00  0.00    +0.000 A 
BRANCH  24  27
ATOM     27  C   UNL     1       6.116   5.021  15.265  0.00  0.00    +0.000 C 
ATOM     28  O   UNL     1       7.297   5.347  15.334  0.00  0.00    +0.000 OA
ATOM     29  N   UNL     1       5.638   4.146  14.312  0.00  0.00    +0.000 N 
ATOM     30  H   UNL     1       4.640   4.024  14.190  0.00  0.00    +0.000 HD
BRANCH  29  31
ATOM     31  C   UNL     1       6.510   3.568  13.310  0.00  0.00    +0.000 C 
BRANCH  31  32
ATOM     32  C   UNL     1       5.869   3.498  11.920  0.00  0.00    +0.000 C 
BRANCH  32  33
ATOM     33  C   UNL     1       5.258   2.138  11.597  0.00  0.00    +0.000 C 
BRANCH  33  34
ATOM     34  C   UNL     1       6.317   1.147  11.194  0.00  0.00    +0.000 C 
ATOM     35  O   UNL     1       6.097  -0.034  10.979  0.00  0.00    +0.000 OA
BRANCH  34  36
ATOM     36  O   UNL     1       7.541   1.700  11.043  0.00  0.00    +0.000 OA
ATOM     37  H   UNL     1       7.564   2.452  10.421  0.00  0.00    +0.000 HD
ENDBRANCH  34  36
ENDBRANCH  33  34
ENDBRANCH  32  33
ENDBRANCH  31  32
ENDBRANCH  29  31
ENDBRANCH  24  27
ENDBRANCH   4  21
TORSDOF 9
ENDMDL
MODEL 4
REMARK VINA RESULT:      -7.4      0.897      1.426
REMARK  Name = 
REMARK  9 active torsions:
REMARK  status: ('A' for Active; 'I' for Inactive)
REMARK    1  A    between atoms: C_4  and  N_5
REMARK    2  A    between atoms: C_6  and  N_7
REMARK    3  A    between atoms: N_10  and  C_11
REMARK    4  A    between atoms: C_14  and  C_15
REMARK    5  A    between atoms: N_17  and  C_18
REMARK    6  A    between atoms: C_18  and  C_19
REMARK    7  A    between atoms: C_19  and  C_20
REMARK    8  A    between atoms: C_20  and  C_21
REMARK    9  A    between atoms: C_21  and  O_23
REMARK                            x       y       z     vdW  Elec       q    Type
REMARK                         _______ _______ _______ _____ _____    ______ ____
ROOT
ATOM      1  N   UNL     1      -2.068  11.796  18.958  0.00  0.00    +0.000 N 
ATOM      2  C   UNL     1      -1.320  10.654  18.787  0.00  0.00    +0.000 C 
ATOM      3  O   UNL     1      -1.761   9.613  18.310  0.00  0.00    +0.000 OA
ATOM      4  N   UNL     1      -0.021  10.763  19.255  0.00  0.00    +0.000 N 
ATOM      5  H   UNL     1      -1.689  12.520  19.561  0.00  0.00    +0.000 HD
ATOM      6  H   UNL     1       0.090  11.327  20.083  0.00  0.00    +0.000 HD
ENDROOT
BRANCH   1  11
ATOM      7  N   UNL     1      -7.502  12.241  18.296  0.00  0.00    +0.000 N 
ATOM      8  C   UNL     1      -6.152  12.199  18.398  0.00  0.00    +0.000 A 
ATOM      9  N   UNL     1      -5.447  11.835  17.381  0.00  0.00    +0.000 NA
ATOM     10  C   UNL     1      -4.079  11.762  17.486  0.00  0.00    +0.000 A 
ATOM     11  C   UNL     1      -3.422  11.961  18.659  0.00  0.00    +0.000 A 
ATOM     12  C   UNL     1      -4.259  12.458  19.797  0.00  0.00    +0.000 A 
ATOM     13  O   UNL     1      -3.748  12.737  20.883  0.00  0.00    +0.000 OA
ATOM     14  N   UNL     1      -5.599  12.547  19.582  0.00  0.00    +0.000 N 
ATOM     15  H   UNL     1      -7.803  12.149  17.329  0.00  0.00    +0.000 HD
ATOM     16  H   UNL     1      -7.981  12.985  18.783  0.00  0.00    +0.000 HD
ATOM     17  H   UNL     1      -6.178  12.812  20.361  0.00  0.00    +0.000 HD
BRANCH  10  18
ATOM     18  N   UNL     1      -3.443  11.452  16.300  0.00  0.00    +0.000 N 
ATOM     19  H   UNL     1      -2.443  11.560  16.434  0.00  0.00    +0.000 HD
ATOM     20  H   UNL     1      -3.761  12.054  15.534  0.00  0.00    +0.000 HD
ENDBRANCH  10  18
ENDBRANCH   1  11
BRANCH   4  21
ATOM     21  C   UNL     1       0.871   9.670  19.105  0.00  0.00    +0.000 A 
ATOM     22  C   UNL     1       1.514   9.424  17.887  0.00  0.00    +0.000 A 
ATOM     23  C   UNL     1       2.348   8.312  17.738  0.00  0.00    +0.000 A 
ATOM     24  C   UNL     1       2.530   7.417  18.797  0.00  0.00    +0.000 A 
ATOM     25  C   UNL     1       1.901   7.671  20.023  0.00  0.00    +0.000 A 
ATOM     26  C   UNL     1       1.093   8.809  20.183  0.00  0.00    +0.000 A 
BRANCH  24  27
ATOM     27  C   UNL     1       3.436   6.256  18.572  0.00  0.00    +0.000 C 
ATOM     28  O   UNL     1       3.259   5.214  19.196  0.00  0.00    +0.000 OA
ATOM     29  N   UNL     1       4.456   6.414  17.656  0.00  0.00    +0.000 N 
ATOM     30  H   UNL     1       4.664   7.330  17.280  0.00  0.00    +0.000 HD
BRANCH  29  31
ATOM     31  C   UNL     1       5.405   5.350  17.390  0.00  0.00    +0.000 C 
BRANCH  31  32
ATOM     32  C   UNL     1       5.008   4.475  16.196  0.00  0.00    +0.000 C 
BRANCH  32  33
ATOM     33  C   UNL     1       6.177   3.712  15.582  0.00  0.00    +0.000 C 
BRANCH  33  34
ATOM     34  C   UNL     1       6.781   4.475  14.432  0.00  0.00    +0.000 C 
ATOM     35  O   UNL     1       7.543   5.419  14.568  0.00  0.00    +0.000 OA
BRANCH  34  36
ATOM     36  O   UNL     1       6.438   3.982  13.222  0.00  0.00    +0.000 OA
ATOM     37  H   UNL     1       6.543   4.618  12.489  0.00  0.00    +0.000 HD
ENDBRANCH  34  36
ENDBRANCH  33  34
ENDBRANCH  32  33
ENDBRANCH  31  32
ENDBRANCH  29  31
ENDBRANCH  24  27
ENDBRANCH   4  21
TORSDOF 9
ENDMDL
MODEL 5
REMARK VINA RESULT:      -7.3      1.199      1.609
REMARK  Name = 
REMARK  9 active torsions:
REMARK  status: ('A' for Active; 'I' for Inactive)
REMARK    1  A    between atoms: C_4  and  N_5
REMARK    2  A    between atoms: C_6  and  N_7
REMARK    3  A    between atoms: N_10  and  C_11
REMARK    4  A    between atoms: C_14  and  C_15
REMARK    5  A    between atoms: N_17  and  C_18
REMARK    6  A    between atoms: C_18  and  C_19
REMARK    7  A    between atoms: C_19  and  C_20
REMARK    8  A    between atoms: C_20  and  C_21
REMARK    9  A    between atoms: C_21  and  O_23
REMARK                            x       y       z     vdW  Elec       q    Type
REMARK                         _______ _______ _______ _____ _____    ______ ____
ROOT
ATOM      1  N   UNL     1      -1.913  11.787  18.651  0.00  0.00    +0.000 N 
ATOM      2  C   UNL     1      -1.216  10.601  18.648  0.00  0.00    +0.000 C 
ATOM      3  O   UNL     1      -1.730   9.506  18.442  0.00  0.00    +0.000 OA
ATOM      4  N   UNL     1       0.127  10.743  18.956  0.00  0.00    +0.000 N 
ATOM      5  H   UNL     1      -1.456  12.600  19.052  0.00  0.00    +0.000 HD
ATOM      6  H   UNL     1       0.338  11.458  19.634  0.00  0.00    +0.000 HD
ENDROOT
BRANCH   1  11
ATOM      7  N   UNL     1      -7.383  12.221  18.409  0.00  0.00    +0.000 N 
ATOM      8  C   UNL     1      -6.029  12.182  18.407  0.00  0.00    +0.000 A 
ATOM      9  N   UNL     1      -5.403  11.823  17.338  0.00  0.00    +0.000 NA
ATOM     10  C   UNL     1      -4.031  11.753  17.337  0.00  0.00    +0.000 A 
ATOM     11  C   UNL     1      -3.287  11.949  18.458  0.00  0.00    +0.000 A 
ATOM     12  C   UNL     1      -4.035  12.440  19.658  0.00  0.00    +0.000 A 
ATOM     13  O   UNL     1      -3.443  12.717  20.703  0.00  0.00    +0.000 OA
ATOM     14  N   UNL     1      -5.388  12.526  19.546  0.00  0.00    +0.000 N 
ATOM     15  H   UNL     1      -7.757  12.131  17.468  0.00  0.00    +0.000 HD
ATOM     16  H   UNL     1      -7.825  12.962  18.934  0.00  0.00    +0.000 HD
ATOM     17  H   UNL     1      -5.906  12.788  20.369  0.00  0.00    +0.000 HD
BRANCH  10  18
ATOM     18  N   UNL     1      -3.487  11.449  16.105  0.00  0.00    +0.000 N 
ATOM     19  H   UNL     1      -3.911  12.053  15.409  0.00  0.00    +0.000 HD
ATOM     20  H   UNL     1      -3.641  10.467  15.858  0.00  0.00    +0.000 HD
ENDBRANCH  10  18
ENDBRANCH   1  11
BRANCH   4  21
ATOM     21  C   UNL     1       0.972   9.602  18.949  0.00  0.00    +0.000 A 
ATOM     22  C   UNL     1       1.619   9.190  17.780  0.00  0.00    +0.000 A 
ATOM     23  C   UNL     1       2.404   8.034  17.774  0.00  0.00    +0.000 A 
ATOM     24  C   UNL     1       2.531   7.260  18.932  0.00  0.00    +0.000 A 
ATOM     25  C   UNL     1       1.898   7.681  20.110  0.00  0.00    +0.000 A 
ATOM     26  C   UNL     1       1.140   8.864  20.122  0.00  0.00    +0.000 A 
BRANCH  24  27
ATOM     27  C   UNL     1       3.388   6.043  18.859  0.00  0.00    +0.000 C 
ATOM     28  O   UNL     1       3.902   5.597  19.880  0.00  0.00    +0.000 OA
ATOM     29  N   UNL     1       3.569   5.466  17.619  0.00  0.00    +0.000 N 
ATOM     30  H   UNL     1       3.260   5.949  16.784  0.00  0.00    +0.000 HD
BRANCH  29  31
ATOM     31  C   UNL     1       4.407   4.296  17.444  0.00  0.00    +0.000 C 
BRANCH  31  32
ATOM     32  C   UNL     1       4.913   4.127  16.007  0.00  0.00    +0.000 C 
BRANCH  32  33
ATOM     33  C   UNL     1       5.583   5.376  15.444  0.00  0.00    +0.000 C 
BRANCH  33  34
ATOM     34  C   UNL     1       6.673   5.868  16.359  0.00  0.00    +0.000 C 
ATOM     35  O   UNL     1       7.694   5.243  16.599  0.00  0.00    +0.000 OA
BRANCH  34  36
ATOM     36  O   UNL     1       6.439   7.102  16.858  0.00  0.00    +0.000 OA
ATOM     37  H   UNL     1       5.498   7.360  16.857  0.00  0.00    +0.000 HD
ENDBRANCH  34  36
ENDBRANCH  33  34
ENDBRANCH  32  33
ENDBRANCH  31  32
ENDBRANCH  29  31
ENDBRANCH  24  27
ENDBRANCH   4  21
TORSDOF 9
ENDMDL
MODEL 6
REMARK VINA RESULT:      -7.3      2.260      2.810
REMARK  Name = 
REMARK  9 active torsions:
REMARK  status: ('A' for Active; 'I' for Inactive)
REMARK    1  A    between atoms: C_4  and  N_5
REMARK    2  A    between atoms: C_6  and  N_7
REMARK    3  A    between atoms: N_10  and  C_11
REMARK    4  A    between atoms: C_14  and  C_15
REMARK    5  A    between atoms: N_17  and  C_18
REMARK    6  A    between atoms: C_18  and  C_19
REMARK    7  A    between atoms: C_19  and  C_20
REMARK    8  A    between atoms: C_20  and  C_21
REMARK    9  A    between atoms: C_21  and  O_23
REMARK                            x       y       z     vdW  Elec       q    Type
REMARK                         _______ _______ _______ _____ _____    ______ ____
ROOT
ATOM      1  N   UNL     1      -2.090  11.820  19.007  0.00  0.00    +0.000 N 
ATOM      2  C   UNL     1      -1.353  10.666  18.889  0.00  0.00    +0.000 C 
ATOM      3  O   UNL     1      -1.798   9.611  18.446  0.00  0.00    +0.000 OA
ATOM      4  N   UNL     1      -0.058  10.779  19.369  0.00  0.00    +0.000 N 
ATOM      5  H   UNL     1      -1.711  12.562  19.587  0.00  0.00    +0.000 HD
ATOM      6  H   UNL     1       0.049  11.373  20.176  0.00  0.00    +0.000 HD
ENDROOT
BRANCH   1  11
ATOM      7  N   UNL     1      -7.511  12.282  18.256  0.00  0.00    +0.000 N 
ATOM      8  C   UNL     1      -6.163  12.235  18.378  0.00  0.00    +0.000 A 
ATOM      9  N   UNL     1      -5.445  11.851  17.378  0.00  0.00    +0.000 NA
ATOM     10  C   UNL     1      -4.079  11.773  17.505  0.00  0.00    +0.000 A 
ATOM     11  C   UNL     1      -3.439  11.987  18.685  0.00  0.00    +0.000 A 
ATOM     12  C   UNL     1      -4.290  12.506  19.802  0.00  0.00    +0.000 A 
ATOM     13  O   UNL     1      -3.794  12.801  20.891  0.00  0.00    +0.000 OA
ATOM     14  N   UNL     1      -5.627  12.599  19.565  0.00  0.00    +0.000 N 
ATOM     15  H   UNL     1      -7.798  12.176  17.286  0.00  0.00    +0.000 HD
ATOM     16  H   UNL     1      -7.993  13.037  18.723  0.00  0.00    +0.000 HD
ATOM     17  H   UNL     1      -6.215  12.880  20.331  0.00  0.00    +0.000 HD
BRANCH  10  18
ATOM     18  N   UNL     1      -3.426  11.441  16.335  0.00  0.00    +0.000 N 
ATOM     19  H   UNL     1      -3.353  12.274  15.760  0.00  0.00    +0.000 HD
ATOM     20  H   UNL     1      -3.923  10.705  15.823  0.00  0.00    +0.000 HD
ENDBRANCH  10  18
ENDBRANCH   1  11
BRANCH   4  21
ATOM     21  C   UNL     1       0.825   9.672  19.272  0.00  0.00    +0.000 A 
ATOM     22  C   UNL     1       1.450   9.350  18.062  0.00  0.00    +0.000 A 
ATOM     23  C   UNL     1       2.274   8.226  17.968  0.00  0.00    +0.000 A 
ATOM     24  C   UNL     1       2.463   7.392  19.075  0.00  0.00    +0.000 A 
ATOM     25  C   UNL     1       1.852   7.722  20.292  0.00  0.00    +0.000 A 
ATOM     26  C   UNL     1       1.055   8.874  20.395  0.00  0.00    +0.000 A 
BRANCH  24  27
ATOM     27  C   UNL     1       3.359   6.213  18.906  0.00  0.00    +0.000 C 
ATOM     28  O   UNL     1       3.624   5.506  19.873  0.00  0.00    +0.000 OA
ATOM     29  N   UNL     1       3.861   5.971  17.644  0.00  0.00    +0.000 N 
ATOM     30  H   UNL     1       3.746   6.660  16.911  0.00  0.00    +0.000 HD
BRANCH  29  31
ATOM     31  C   UNL     1       4.761   4.864  17.388  0.00  0.00    +0.000 C 
BRANCH  31  32
ATOM     32  C   UNL     1       4.066   3.658  16.746  0.00  0.00    +0.000 C 
BRANCH  32  33
ATOM     33  C   UNL     1       3.686   2.569  17.744  0.00  0.00    +0.000 C 
BRANCH  33  34
ATOM     34  C   UNL     1       2.340   2.843  18.362  0.00  0.00    +0.000 C 
ATOM     35  O   UNL     1       1.356   3.184  17.725  0.00  0.00    +0.000 OA
BRANCH  34  36
ATOM     36  O   UNL     1       2.306   2.625  19.695  0.00  0.00    +0.000 OA
ATOM     37  H   UNL     1       2.632   1.745  19.963  0.00  0.00    +0.000 HD
ENDBRANCH  34  36
ENDBRANCH  33  34
ENDBRANCH  32  33
ENDBRANCH  31  32
ENDBRANCH  29  31
ENDBRANCH  24  27
ENDBRANCH   4  21
TORSDOF 9
ENDMDL
MODEL 7
REMARK VINA RESULT:      -7.2      3.539     10.803
REMARK  Name = 
REMARK  9 active torsions:
REMARK  status: ('A' for Active; 'I' for Inactive)
REMARK    1  A    between atoms: C_4  and  N_5
REMARK    2  A    between atoms: C_6  and  N_7
REMARK    3  A    between atoms: N_10  and  C_11
REMARK    4  A    between atoms: C_14  and  C_15
REMARK    5  A    between atoms: N_17  and  C_18
REMARK    6  A    between atoms: C_18  and  C_19
REMARK    7  A    between atoms: C_19  and  C_20
REMARK    8  A    between atoms: C_20  and  C_21
REMARK    9  A    between atoms: C_21  and  O_23
REMARK                            x       y       z     vdW  Elec       q    Type
REMARK                         _______ _______ _______ _____ _____    ______ ____
ROOT
ATOM      1  N   UNL     1       3.382   6.705  17.645  0.00  0.00    +0.000 N 
ATOM      2  C   UNL     1       2.616   7.638  18.304  0.00  0.00    +0.000 C 
ATOM      3  O   UNL     1       2.296   7.549  19.486  0.00  0.00    +0.000 OA
ATOM      4  N   UNL     1       2.183   8.676  17.495  0.00  0.00    +0.000 N 
ATOM      5  H   UNL     1       3.401   6.745  16.631  0.00  0.00    +0.000 HD
ATOM      6  H   UNL     1       1.968   8.418  16.545  0.00  0.00    +0.000 HD
ENDROOT
BRANCH   1  11
ATOM      7  N   UNL     1       4.884   1.965  19.978  0.00  0.00    +0.000 N 
ATOM      8  C   UNL     1       4.575   3.118  19.336  0.00  0.00    +0.000 A 
ATOM      9  N   UNL     1       5.459   4.053  19.244  0.00  0.00    +0.000 NA
ATOM     10  C   UNL     1       5.143   5.235  18.620  0.00  0.00    +0.000 A 
ATOM     11  C   UNL     1       3.890   5.517  18.174  0.00  0.00    +0.000 A 
ATOM     12  C   UNL     1       2.912   4.385  18.224  0.00  0.00    +0.000 A 
ATOM     13  O   UNL     1       1.771   4.514  17.778  0.00  0.00    +0.000 OA
ATOM     14  N   UNL     1       3.333   3.234  18.815  0.00  0.00    +0.000 N 
ATOM     15  H   UNL     1       5.882   1.901  20.163  0.00  0.00    +0.000 HD
ATOM     16  H   UNL     1       4.502   1.109  19.603  0.00  0.00    +0.000 HD
ATOM     17  H   UNL     1       2.661   2.492  18.917  0.00  0.00    +0.000 HD
BRANCH  10  18
ATOM     18  N   UNL     1       6.206   6.109  18.507  0.00  0.00    +0.000 N 
ATOM     19  H   UNL     1       5.889   6.940  18.018  0.00  0.00    +0.000 HD
ATOM     20  H   UNL     1       6.990   5.684  18.004  0.00  0.00    +0.000 HD
ENDBRANCH  10  18
ENDBRANCH   1  11
BRANCH   4  21
ATOM     21  C   UNL     1       1.416   9.729  18.058  0.00  0.00    +0.000 A 
ATOM     22  C   UNL     1       2.014  10.934  18.441  0.00  0.00    +0.000 A 
ATOM     23  C   UNL     1       1.256  11.942  19.044  0.00  0.00    +0.000 A 
ATOM     24  C   UNL     1      -0.106  11.747  19.296  0.00  0.00    +0.000 A 
ATOM     25  C   UNL     1      -0.711  10.548  18.898  0.00  0.00    +0.000 A 
ATOM     26  C   UNL     1       0.045   9.551  18.258  0.00  0.00    +0.000 A 
BRANCH  24  27
ATOM     27  C   UNL     1      -0.856  12.865  19.937  0.00  0.00    +0.000 C 
ATOM     28  O   UNL     1      -0.362  13.987  19.976  0.00  0.00    +0.000 OA
ATOM     29  N   UNL     1      -2.095  12.575  20.471  0.00  0.00    +0.000 N 
ATOM     30  H   UNL     1      -2.399  11.613  20.558  0.00  0.00    +0.000 HD
BRANCH  29  31
ATOM     31  C   UNL     1      -2.887  13.590  21.137  0.00  0.00    +0.000 C 
BRANCH  31  32
ATOM     32  C   UNL     1      -2.678  13.616  22.655  0.00  0.00    +0.000 C 
BRANCH  32  33
ATOM     33  C   UNL     1      -3.129  12.340  23.357  0.00  0.00    +0.000 C 
BRANCH  33  34
ATOM     34  C   UNL     1      -4.139  12.638  24.433  0.00  0.00    +0.000 C 
ATOM     35  O   UNL     1      -5.078  11.907  24.707  0.00  0.00    +0.000 OA
BRANCH  34  36
ATOM     36  O   UNL     1      -3.881  13.778  25.111  0.00  0.00    +0.000 OA
ATOM     37  H   UNL     1      -3.359  14.431  24.607  0.00  0.00    +0.000 HD
ENDBRANCH  34  36
ENDBRANCH  33  34
ENDBRANCH  32  33
ENDBRANCH  31  32
ENDBRANCH  29  31
ENDBRANCH  24  27
ENDBRANCH   4  21
TORSDOF 9
ENDMDL
MODEL 8
REMARK VINA RESULT:      -7.2      4.329     10.899
REMARK  Name = 
REMARK  9 active torsions:
REMARK  status: ('A' for Active; 'I' for Inactive)
REMARK    1  A    between atoms: C_4  and  N_5
REMARK    2  A    between atoms: C_6  and  N_7
REMARK    3  A    between atoms: N_10  and  C_11
REMARK    4  A    between atoms: C_14  and  C_15
REMARK    5  A    between atoms: N_17  and  C_18
REMARK    6  A    between atoms: C_18  and  C_19
REMARK    7  A    between atoms: C_19  and  C_20
REMARK    8  A    between atoms: C_20  and  C_21
REMARK    9  A    between atoms: C_21  and  O_23
REMARK                            x       y       z     vdW  Elec       q    Type
REMARK                         _______ _______ _______ _____ _____    ______ ____
ROOT
ATOM      1  N   UNL     1       3.067   6.098  18.399  0.00  0.00    +0.000 N 
ATOM      2  C   UNL     1       2.333   6.782  19.339  0.00  0.00    +0.000 C 
ATOM      3  O   UNL     1       1.898   6.276  20.369  0.00  0.00    +0.000 OA
ATOM      4  N   UNL     1       2.075   8.099  18.995  0.00  0.00    +0.000 N 
ATOM      5  H   UNL     1       3.184   6.531  17.488  0.00  0.00    +0.000 HD
ATOM      6  H   UNL     1       1.926   8.264  18.012  0.00  0.00    +0.000 HD
ENDROOT
BRANCH   1  11
ATOM      7  N   UNL     1       3.884   0.672  18.637  0.00  0.00    +0.000 N 
ATOM      8  C   UNL     1       3.756   2.016  18.523  0.00  0.00    +0.000 A 
ATOM      9  N   UNL     1       4.675   2.787  18.996  0.00  0.00    +0.000 NA
ATOM     10  C   UNL     1       4.537   4.151  18.909  0.00  0.00    +0.000 A 
ATOM     11  C   UNL     1       3.412   4.745  18.431  0.00  0.00    +0.000 A 
ATOM     12  C   UNL     1       2.401   3.826  17.819  0.00  0.00    +0.000 A 
ATOM     13  O   UNL     1       1.380   4.270  17.292  0.00  0.00    +0.000 OA
ATOM     14  N   UNL     1       2.650   2.491  17.907  0.00  0.00    +0.000 N 
ATOM     15  H   UNL     1       4.821   0.414  18.937  0.00  0.00    +0.000 HD
ATOM     16  H   UNL     1       3.553   0.107  17.868  0.00  0.00    +0.000 HD
ATOM     17  H   UNL     1       1.943   1.864  17.562  0.00  0.00    +0.000 HD
BRANCH  10  18
ATOM     18  N   UNL     1       5.634   4.854  19.367  0.00  0.00    +0.000 N 
ATOM     19  H   UNL     1       6.444   4.578  18.823  0.00  0.00    +0.000 HD
ATOM     20  H   UNL     1       5.804   4.678  20.362  0.00  0.00    +0.000 HD
ENDBRANCH  10  18
ENDBRANCH   1  11
BRANCH   4  21
ATOM     21  C   UNL     1       1.359   8.931  19.895  0.00  0.00    +0.000 A 
ATOM     22  C   UNL     1       1.433   8.731  21.277  0.00  0.00    +0.000 A 
ATOM     23  C   UNL     1       0.681   9.523  22.149  0.00  0.00    +0.000 A 
ATOM     24  C   UNL     1      -0.176  10.508  21.649  0.00  0.00    +0.000 A 
ATOM     25  C   UNL     1      -0.239  10.722  20.265  0.00  0.00    +0.000 A 
ATOM     26  C   UNL     1       0.547   9.950  19.393  0.00  0.00    +0.000 A 
BRANCH  24  27
ATOM     27  C   UNL     1      -0.945  11.320  22.634  0.00  0.00    +0.000 C 
ATOM     28  O   UNL     1      -1.706  10.765  23.419  0.00  0.00    +0.000 OA
ATOM     29  N   UNL     1      -0.762  12.688  22.611  0.00  0.00    +0.000 N 
ATOM     30  H   UNL     1      -0.249  13.120  21.853  0.00  0.00    +0.000 HD
BRANCH  29  31
ATOM     31  C   UNL     1      -1.486  13.562  23.513  0.00  0.00    +0.000 C 
BRANCH  31  32
ATOM     32  C   UNL     1      -2.689  14.244  22.853  0.00  0.00    +0.000 C 
BRANCH  32  33
ATOM     33  C   UNL     1      -3.925  14.300  23.745  0.00  0.00    +0.000 C 
BRANCH  33  34
ATOM     34  C   UNL     1      -4.531  12.933  23.922  0.00  0.00    +0.000 C 
ATOM     35  O   UNL     1      -4.997  12.272  23.007  0.00  0.00    +0.000 OA
BRANCH  34  36
ATOM     36  O   UNL     1      -4.466  12.476  25.192  0.00  0.00    +0.000 OA
ATOM     37  H   UNL     1      -3.886  13.002  25.774  0.00  0.00    +0.000 HD
ENDBRANCH  34  36
ENDBRANCH  33  34
ENDBRANCH  32  33
ENDBRANCH  31  32
ENDBRANCH  29  31
ENDBRANCH  24  27
ENDBRANCH   4  21
TORSDOF 9
ENDMDL
MODEL 9
REMARK VINA RESULT:      -7.2      4.007      9.946
REMARK  Name = 
REMARK  9 active torsions:
REMARK  status: ('A' for Active; 'I' for Inactive)
REMARK    1  A    between atoms: C_4  and  N_5
REMARK    2  A    between atoms: C_6  and  N_7
REMARK    3  A    between atoms: N_10  and  C_11
REMARK    4  A    between atoms: C_14  and  C_15
REMARK    5  A    between atoms: N_17  and  C_18
REMARK    6  A    between atoms: C_18  and  C_19
REMARK    7  A    between atoms: C_19  and  C_20
REMARK    8  A    between atoms: C_20  and  C_21
REMARK    9  A    between atoms: C_21  and  O_23
REMARK                            x       y       z     vdW  Elec       q    Type
REMARK                         _______ _______ _______ _____ _____    ______ ____
ROOT
ATOM      1  N   UNL     1       2.902   6.224  17.935  0.00  0.00    +0.000 N 
ATOM      2  C   UNL     1       2.441   7.390  18.499  0.00  0.00    +0.000 C 
ATOM      3  O   UNL     1       2.398   7.596  19.708  0.00  0.00    +0.000 OA
ATOM      4  N   UNL     1       1.970   8.309  17.575  0.00  0.00    +0.000 N 
ATOM      5  H   UNL     1       2.687   6.058  16.956  0.00  0.00    +0.000 HD
ATOM      6  H   UNL     1       1.506   7.911  16.773  0.00  0.00    +0.000 HD
ENDROOT
BRANCH   1  11
ATOM      7  N   UNL     1       5.087   1.720  20.195  0.00  0.00    +0.000 N 
ATOM      8  C   UNL     1       4.519   2.856  19.722  0.00  0.00    +0.000 A 
ATOM      9  N   UNL     1       3.239   2.999  19.777  0.00  0.00    +0.000 NA
ATOM     10  C   UNL     1       2.654   4.135  19.272  0.00  0.00    +0.000 A 
ATOM     11  C   UNL     1       3.359   5.091  18.612  0.00  0.00    +0.000 A 
ATOM     12  C   UNL     1       4.848   4.934  18.635  0.00  0.00    +0.000 A 
ATOM     13  O   UNL     1       5.582   5.784  18.129  0.00  0.00    +0.000 OA
ATOM     14  N   UNL     1       5.338   3.799  19.204  0.00  0.00    +0.000 N 
ATOM     15  H   UNL     1       4.420   1.167  20.727  0.00  0.00    +0.000 HD
ATOM     16  H   UNL     1       5.979   1.807  20.662  0.00  0.00    +0.000 HD
ATOM     17  H   UNL     1       6.332   3.651  19.162  0.00  0.00    +0.000 HD
BRANCH  10  18
ATOM     18  N   UNL     1       1.291   4.202  19.481  0.00  0.00    +0.000 N 
ATOM     19  H   UNL     1       0.841   4.428  18.600  0.00  0.00    +0.000 HD
ATOM     20  H   UNL     1       1.053   4.906  20.186  0.00  0.00    +0.000 HD
ENDBRANCH  10  18
ENDBRANCH   1  11
BRANCH   4  21
ATOM     21  C   UNL     1       1.501   9.572  18.020  0.00  0.00    +0.000 A 
ATOM     22  C   UNL     1       2.350  10.684  18.061  0.00  0.00    +0.000 A 
ATOM     23  C   UNL     1       1.890  11.908  18.552  0.00  0.00    +0.000 A 
ATOM     24  C   UNL     1       0.582  12.032  19.034  0.00  0.00    +0.000 A 
ATOM     25  C   UNL     1      -0.275  10.924  18.978  0.00  0.00    +0.000 A 
ATOM     26  C   UNL     1       0.178   9.704  18.448  0.00  0.00    +0.000 A 
BRANCH  24  27
ATOM     27  C   UNL     1       0.155  13.367  19.539  0.00  0.00    +0.000 C 
ATOM     28  O   UNL     1      -0.455  13.451  20.600  0.00  0.00    +0.000 OA
ATOM     29  N   UNL     1       0.468  14.468  18.768  0.00  0.00    +0.000 N 
ATOM     30  H   UNL     1       0.831  14.346  17.831  0.00  0.00    +0.000 HD
BRANCH  29  31
ATOM     31  C   UNL     1       0.071  15.805  19.163  0.00  0.00    +0.000 C 
BRANCH  31  32
ATOM     32  C   UNL     1       1.252  16.775  19.278  0.00  0.00    +0.000 C 
BRANCH  32  33
ATOM     33  C   UNL     1       2.599  16.139  18.953  0.00  0.00    +0.000 C 
BRANCH  33  34
ATOM     34  C   UNL     1       3.004  16.419  17.530  0.00  0.00    +0.000 C 
ATOM     35  O   UNL     1       2.829  17.490  16.971  0.00  0.00    +0.000 OA
BRANCH  34  36
ATOM     36  O   UNL     1       3.632  15.380  16.936  0.00  0.00    +0.000 OA
ATOM     37  H   UNL     1       4.598  15.370  17.069  0.00  0.00    +0.000 HD
ENDBRANCH  34  36
ENDBRANCH  33  34
ENDBRANCH  32  33
ENDBRANCH  31  32
ENDBRANCH  29  31
ENDBRANCH  24  27
ENDBRANCH   4  21
TORSDOF 9
ENDMDL
