MODEL 1
REMARK VINA RESULT:      -8.1      0.000      0.000
REMARK  Name = 
REMARK  6 active torsions:
REMARK  status: ('A' for Active; 'I' for Inactive)
REMARK    1  A    between atoms: C_1  and  C_2
REMARK    2  A    between atoms: C_4  and  C_5
REMARK    3  A    between atoms: N_7  and  C_8
REMARK    4  A    between atoms: C_12  and  O_13
REMARK    5  A    between atoms: N_17  and  C_18
REMARK    6  A    between atoms: C_18  and  C_19
REMARK                            x       y       z     vdW  Elec       q    Type
REMARK                         _______ _______ _______ _____ _____    ______ ____
ROOT
ATOM      1  C   UNL     1      -0.094   9.628  23.487  0.00  0.00    +0.000 C 
ATOM      2  C   UNL     1       0.337   9.409  22.084  0.00  0.00    +0.000 A 
ATOM      3  C   UNL     1       1.136   8.347  21.577  0.00  0.00    +0.000 A 
ATOM      4  C   UNL     1       1.381   8.580  20.230  0.00  0.00    +0.000 A 
ATOM      5  N   UNL     1       0.688   9.733  19.898  0.00  0.00    +0.000 N 
ATOM      6  C   UNL     1       0.061  10.233  21.015  0.00  0.00    +0.000 A 
ENDROOT
BRANCH   4   7
ATOM      7  C   UNL     1       2.239   7.860  19.307  0.00  0.00    +0.000 C 
ATOM      8  O   UNL     1       2.580   8.367  18.243  0.00  0.00    +0.000 OA
ATOM      9  N   UNL     1       2.578   6.576  19.710  0.00  0.00    +0.000 N 
ATOM     10  H   UNL     1       2.113   6.238  20.546  0.00  0.00    +0.000 HD
BRANCH   9  11
ATOM     11  C   UNL     1       3.321   5.638  18.954  0.00  0.00    +0.000 A 
ATOM     12  C   UNL     1       4.720   5.609  18.937  0.00  0.00    +0.000 A 
ATOM     13  C   UNL     1       5.397   4.711  18.115  0.00  0.00    +0.000 A 
ATOM     14  F   UNL     1       6.736   4.712  18.096  0.00  0.00    +0.000 F 
ATOM     15  C   UNL     1       4.705   3.821  17.309  0.00  0.00    +0.000 A 
ATOM     16  C   UNL     1       3.317   3.818  17.349  0.00  0.00    +0.000 A 
ATOM     17  F   UNL     1       2.622   2.964  16.583  0.00  0.00    +0.000 F 
ATOM     18  C   UNL     1       2.623   4.711  18.169  0.00  0.00    +0.000 A 
BRANCH  15  19
ATOM     19  O   UNL     1       5.386   2.965  16.489  0.00  0.00    +0.000 OA
ATOM     20  H   UNL     1       6.300   3.296  16.421  0.00  0.00    +0.000 HD
ENDBRANCH  15  19
ENDBRANCH   9  11
ENDBRANCH   4   7
BRANCH   5  21
ATOM     21  C   UNL     1       0.680  10.412  18.600  0.00  0.00    +0.000 C 
BRANCH  21  22
ATOM     22  C   UNL     1       0.585  11.898  18.718  0.00  0.00    +0.000 A 
ATOM     23  C   UNL     1      -0.573  12.638  18.579  0.00  0.00    +0.000 A 
ATOM     24  S   UNL     1      -0.243  14.293  18.777  0.00  0.00    +0.000 S 
ATOM     25  C   UNL     1       1.440  13.947  19.033  0.00  0.00    +0.000 A 
ATOM     26  N   UNL     1       2.358  14.913  19.321  0.00  0.00    +0.000 N 
ATOM     27  C   UNL     1       2.214  16.299  18.890  0.00  0.00    +0.000 C 
ATOM     28  C   UNL     1       3.275  16.622  17.838  0.00  0.00    +0.000 C 
ATOM     29  C   UNL     1       4.676  16.313  18.362  0.00  0.00    +0.000 C 
ATOM     30  C   UNL     1       4.769  14.866  18.845  0.00  0.00    +0.000 C 
ATOM     31  C   UNL     1       3.666  14.537  19.852  0.00  0.00    +0.000 C 
ATOM     32  N   UNL     1       1.719  12.660  18.971  0.00  0.00    +0.000 NA
ENDBRANCH  21  22
ENDBRANCH   5  21
TORSDOF 5
ENDMDL
MODEL 2
REMARK VINA RESULT:      -7.8      0.717      1.485
REMARK  Name = 
REMARK  6 active torsions:
REMARK  status: ('A' for Active; 'I' for Inactive)
REMARK    1  A    between atoms: C_1  and  C_2
REMARK    2  A    between atoms: C_4  and  C_5
REMARK    3  A    between atoms: N_7  and  C_8
REMARK    4  A    between atoms: C_12  and  O_13
REMARK    5  A    between atoms: N_17  and  C_18
REMARK    6  A    between atoms: C_18  and  C_19
REMARK                            x       y       z     vdW  Elec       q    Type
REMARK                         _______ _______ _______ _____ _____    ______ ____
ROOT
ATOM      1  C   UNL     1       0.311   9.343  23.348  0.00  0.00    +0.000 C 
ATOM      2  C   UNL     1       0.577   9.195  21.895  0.00  0.00    +0.000 A 
ATOM      3  C   UNL     1       1.282   8.145  21.243  0.00  0.00    +0.000 A 
ATOM      4  C   UNL     1       1.382   8.450  19.892  0.00  0.00    +0.000 A 
ATOM      5  N   UNL     1       0.692   9.637  19.705  0.00  0.00    +0.000 N 
ATOM      6  C   UNL     1       0.209  10.086  20.911  0.00  0.00    +0.000 A 
ENDROOT
BRANCH   4   7
ATOM      7  C   UNL     1       2.109   7.764  18.840  0.00  0.00    +0.000 C 
ATOM      8  O   UNL     1       1.997   8.115  17.670  0.00  0.00    +0.000 OA
ATOM      9  N   UNL     1       2.871   6.685  19.268  0.00  0.00    +0.000 N 
ATOM     10  H   UNL     1       2.762   6.426  20.242  0.00  0.00    +0.000 HD
BRANCH   9  11
ATOM     11  C   UNL     1       3.595   5.799  18.435  0.00  0.00    +0.000 A 
ATOM     12  C   UNL     1       3.248   4.454  18.270  0.00  0.00    +0.000 A 
ATOM     13  C   UNL     1       4.042   3.611  17.495  0.00  0.00    +0.000 A 
ATOM     14  F   UNL     1       3.707   2.320  17.365  0.00  0.00    +0.000 F 
ATOM     15  C   UNL     1       5.180   4.085  16.861  0.00  0.00    +0.000 A 
ATOM     16  C   UNL     1       5.509   5.428  16.990  0.00  0.00    +0.000 A 
ATOM     17  F   UNL     1       6.602   5.916  16.384  0.00  0.00    +0.000 F 
ATOM     18  C   UNL     1       4.723   6.288  17.762  0.00  0.00    +0.000 A 
BRANCH  15  19
ATOM     19  O   UNL     1       5.962   3.238  16.127  0.00  0.00    +0.000 OA
ATOM     20  H   UNL     1       6.887   3.400  16.390  0.00  0.00    +0.000 HD
ENDBRANCH  15  19
ENDBRANCH   9  11
ENDBRANCH   4   7
BRANCH   5  21
ATOM     21  C   UNL     1       0.561  10.390  18.455  0.00  0.00    +0.000 C 
BRANCH  21  22
ATOM     22  C   UNL     1       0.451  11.864  18.670  0.00  0.00    +0.000 A 
ATOM     23  C   UNL     1      -0.728  12.582  18.693  0.00  0.00    +0.000 A 
ATOM     24  S   UNL     1      -0.410  14.231  18.954  0.00  0.00    +0.000 S 
ATOM     25  C   UNL     1       1.296  13.912  19.016  0.00  0.00    +0.000 A 
ATOM     26  N   UNL     1       2.221  14.882  19.266  0.00  0.00    +0.000 N 
ATOM     27  C   UNL     1       2.008  16.286  18.934  0.00  0.00    +0.000 C 
ATOM     28  C   UNL     1       2.950  16.694  17.801  0.00  0.00    +0.000 C 
ATOM     29  C   UNL     1       4.402  16.390  18.160  0.00  0.00    +0.000 C 
ATOM     30  C   UNL     1       4.570  14.921  18.545  0.00  0.00    +0.000 C 
ATOM     31  C   UNL     1       3.584  14.508  19.637  0.00  0.00    +0.000 C 
ATOM     32  N   UNL     1       1.591  12.638  18.850  0.00  0.00    +0.000 NA
ENDBRANCH  21  22
ENDBRANCH   5  21
TORSDOF 5
ENDMDL
MODEL 3
REMARK VINA RESULT:      -7.8      4.385      9.053
REMARK  Name = 
REMARK  6 active torsions:
REMARK  status: ('A' for Active; 'I' for Inactive)
REMARK    1  A    between atoms: C_1  and  C_2
REMARK    2  A    between atoms: C_4  and  C_5
REMARK    3  A    between atoms: N_7  and  C_8
REMARK    4  A    between atoms: C_12  and  O_13
REMARK    5  A    between atoms: N_17  and  C_18
REMARK    6  A    between atoms: C_18  and  C_19
REMARK                            x       y       z     vdW  Elec       q    Type
REMARK                         _______ _______ _______ _____ _____    ______ ____
ROOT
ATOM      1  C   UNL     1      -3.399   9.937  16.901  0.00  0.00    +0.000 C 
ATOM      2  C   UNL     1      -2.308  10.465  17.757  0.00  0.00    +0.000 A 
ATOM      3  C   UNL     1      -1.899  11.819  17.907  0.00  0.00    +0.000 A 
ATOM      4  C   UNL     1      -0.779  11.857  18.728  0.00  0.00    +0.000 A 
ATOM      5  N   UNL     1      -0.545  10.552  19.132  0.00  0.00    +0.000 N 
ATOM      6  C   UNL     1      -1.463   9.714  18.545  0.00  0.00    +0.000 A 
ENDROOT
BRANCH   4   7
ATOM      7  C   UNL     1       0.074  12.977  19.079  0.00  0.00    +0.000 C 
ATOM      8  O   UNL     1      -0.231  13.735  19.994  0.00  0.00    +0.000 OA
ATOM      9  N   UNL     1       1.198  13.125  18.277  0.00  0.00    +0.000 N 
ATOM     10  H   UNL     1       1.252  12.508  17.474  0.00  0.00    +0.000 HD
BRANCH   9  11
ATOM     11  C   UNL     1       2.135  14.183  18.351  0.00  0.00    +0.000 A 
ATOM     12  C   UNL     1       3.519  13.978  18.334  0.00  0.00    +0.000 A 
ATOM     13  C   UNL     1       4.392  15.053  18.485  0.00  0.00    +0.000 A 
ATOM     14  F   UNL     1       5.714  14.836  18.488  0.00  0.00    +0.000 F 
ATOM     15  C   UNL     1       3.915  16.345  18.638  0.00  0.00    +0.000 A 
ATOM     16  C   UNL     1       2.543  16.560  18.618  0.00  0.00    +0.000 A 
ATOM     17  F   UNL     1       2.052  17.801  18.760  0.00  0.00    +0.000 F 
ATOM     18  C   UNL     1       1.653  15.494  18.467  0.00  0.00    +0.000 A 
BRANCH  15  19
ATOM     19  O   UNL     1       4.786  17.384  18.812  0.00  0.00    +0.000 OA
ATOM     20  H   UNL     1       5.687  17.022  18.725  0.00  0.00    +0.000 HD
ENDBRANCH  15  19
ENDBRANCH   9  11
ENDBRANCH   4   7
BRANCH   5  21
ATOM     21  C   UNL     1       0.562  10.076  19.965  0.00  0.00    +0.000 C 
BRANCH  21  22
ATOM     22  C   UNL     1       1.416   9.060  19.277  0.00  0.00    +0.000 A 
ATOM     23  C   UNL     1       2.199   9.296  18.165  0.00  0.00    +0.000 A 
ATOM     24  S   UNL     1       2.999   7.872  17.695  0.00  0.00    +0.000 S 
ATOM     25  C   UNL     1       2.254   6.999  18.998  0.00  0.00    +0.000 A 
ATOM     26  N   UNL     1       2.518   5.686  19.255  0.00  0.00    +0.000 N 
ATOM     27  C   UNL     1       2.935   4.744  18.223  0.00  0.00    +0.000 C 
ATOM     28  C   UNL     1       1.823   3.723  17.982  0.00  0.00    +0.000 C 
ATOM     29  C   UNL     1       1.424   3.030  19.283  0.00  0.00    +0.000 C 
ATOM     30  C   UNL     1       1.040   4.056  20.349  0.00  0.00    +0.000 C 
ATOM     31  C   UNL     1       2.135   5.106  20.540  0.00  0.00    +0.000 C 
ATOM     32  N   UNL     1       1.456   7.748  19.733  0.00  0.00    +0.000 NA
ENDBRANCH  21  22
ENDBRANCH   5  21
TORSDOF 5
ENDMDL
MODEL 4
REMARK VINA RESULT:      -7.8      5.765     10.024
REMARK  Name = 
REMARK  6 active torsions:
REMARK  status: ('A' for Active; 'I' for Inactive)
REMARK    1  A    between atoms: C_1  and  C_2
REMARK    2  A    between atoms: C_4  and  C_5
REMARK    3  A    between atoms: N_7  and  C_8
REMARK    4  A    between atoms: C_12  and  O_13
REMARK    5  A    between atoms: N_17  and  C_18
REMARK    6  A    between atoms: C_18  and  C_19
REMARK                            x       y       z     vdW  Elec       q    Type
REMARK                         _______ _______ _______ _____ _____    ______ ____
ROOT
ATOM      1  C   UNL     1      -2.559   9.819  15.970  0.00  0.00    +0.000 C 
ATOM      2  C   UNL     1      -1.883  10.103  17.261  0.00  0.00    +0.000 A 
ATOM      3  C   UNL     1      -2.390  10.849  18.361  0.00  0.00    +0.000 A 
ATOM      4  C   UNL     1      -1.394  10.952  19.324  0.00  0.00    +0.000 A 
ATOM      5  N   UNL     1      -0.315  10.222  18.852  0.00  0.00    +0.000 N 
ATOM      6  C   UNL     1      -0.608   9.714  17.609  0.00  0.00    +0.000 A 
ENDROOT
BRANCH   4   7
ATOM      7  C   UNL     1      -1.377  11.711  20.561  0.00  0.00    +0.000 C 
ATOM      8  O   UNL     1      -0.383  11.716  21.279  0.00  0.00    +0.000 OA
ATOM      9  N   UNL     1      -2.566  12.363  20.859  0.00  0.00    +0.000 N 
ATOM     10  H   UNL     1      -3.348  12.160  20.245  0.00  0.00    +0.000 HD
BRANCH   9  11
ATOM     11  C   UNL     1      -2.839  13.089  22.043  0.00  0.00    +0.000 A 
ATOM     12  C   UNL     1      -2.491  14.434  22.210  0.00  0.00    +0.000 A 
ATOM     13  C   UNL     1      -2.718  15.075  23.425  0.00  0.00    +0.000 A 
ATOM     14  F   UNL     1      -2.358  16.357  23.574  0.00  0.00    +0.000 F 
ATOM     15  C   UNL     1      -3.303  14.405  24.488  0.00  0.00    +0.000 A 
ATOM     16  C   UNL     1      -3.686  13.081  24.317  0.00  0.00    +0.000 A 
ATOM     17  F   UNL     1      -4.259  12.408  25.326  0.00  0.00    +0.000 F 
ATOM     18  C   UNL     1      -3.467  12.423  23.104  0.00  0.00    +0.000 A 
BRANCH  15  19
ATOM     19  O   UNL     1      -3.494  15.042  25.682  0.00  0.00    +0.000 OA
ATOM     20  H   UNL     1      -3.687  15.977  25.482  0.00  0.00    +0.000 HD
ENDBRANCH  15  19
ENDBRANCH   9  11
ENDBRANCH   4   7
BRANCH   5  21
ATOM     21  C   UNL     1       0.995  10.077  19.492  0.00  0.00    +0.000 C 
BRANCH  21  22
ATOM     22  C   UNL     1       1.783   8.927  18.954  0.00  0.00    +0.000 A 
ATOM     23  C   UNL     1       2.632   8.979  17.866  0.00  0.00    +0.000 A 
ATOM     24  S   UNL     1       3.321   7.452  17.582  0.00  0.00    +0.000 S 
ATOM     25  C   UNL     1       2.446   6.784  18.925  0.00  0.00    +0.000 A 
ATOM     26  N   UNL     1       2.581   5.488  19.326  0.00  0.00    +0.000 N 
ATOM     27  C   UNL     1       2.955   4.412  18.416  0.00  0.00    +0.000 C 
ATOM     28  C   UNL     1       1.768   3.469  18.220  0.00  0.00    +0.000 C 
ATOM     29  C   UNL     1       1.254   2.951  19.562  0.00  0.00    +0.000 C 
ATOM     30  C   UNL     1       0.917   4.110  20.498  0.00  0.00    +0.000 C 
ATOM     31  C   UNL     1       2.092   5.079  20.640  0.00  0.00    +0.000 C 
ATOM     32  N   UNL     1       1.686   7.670  19.539  0.00  0.00    +0.000 NA
ENDBRANCH  21  22
ENDBRANCH   5  21
TORSDOF 5
ENDMDL
MODEL 5
REMARK VINA RESULT:      -7.7      4.584      9.361
REMARK  Name = 
REMARK  6 active torsions:
REMARK  status: ('A' for Active; 'I' for Inactive)
REMARK    1  A    between atoms: C_1  and  C_2
REMARK    2  A    between atoms: C_4  and  C_5
REMARK    3  A    between atoms: N_7  and  C_8
REMARK    4  A    between atoms: C_12  and  O_13
REMARK    5  A    between atoms: N_17  and  C_18
REMARK    6  A    between atoms: C_18  and  C_19
REMARK                            x       y       z     vdW  Elec       q    Type
REMARK                         _______ _______ _______ _____ _____    ______ ____
ROOT
ATOM      1  C   UNL     1      -2.904   9.882  16.135  0.00  0.00    +0.000 C 
ATOM      2  C   UNL     1      -2.012  10.436  17.184  0.00  0.00    +0.000 A 
ATOM      3  C   UNL     1      -1.858  11.799  17.563  0.00  0.00    +0.000 A 
ATOM      4  C   UNL     1      -0.852  11.884  18.516  0.00  0.00    +0.000 A 
ATOM      5  N   UNL     1      -0.440  10.586  18.769  0.00  0.00    +0.000 N 
ATOM      6  C   UNL     1      -1.137   9.715  17.966  0.00  0.00    +0.000 A 
ENDROOT
BRANCH   4   7
ATOM      7  C   UNL     1      -0.243  13.056  19.117  0.00  0.00    +0.000 C 
ATOM      8  O   UNL     1      -0.823  13.681  19.999  0.00  0.00    +0.000 OA
ATOM      9  N   UNL     1       0.988  13.411  18.581  0.00  0.00    +0.000 N 
ATOM     10  H   UNL     1       1.282  12.886  17.765  0.00  0.00    +0.000 HD
BRANCH   9  11
ATOM     11  C   UNL     1       1.741  14.559  18.924  0.00  0.00    +0.000 A 
ATOM     12  C   UNL     1       1.306  15.863  18.661  0.00  0.00    +0.000 A 
ATOM     13  C   UNL     1       2.124  16.952  18.954  0.00  0.00    +0.000 A 
ATOM     14  F   UNL     1       1.700  18.192  18.676  0.00  0.00    +0.000 F 
ATOM     15  C   UNL     1       3.375  16.772  19.522  0.00  0.00    +0.000 A 
ATOM     16  C   UNL     1       3.798  15.483  19.820  0.00  0.00    +0.000 A 
ATOM     17  F   UNL     1       5.002  15.279  20.375  0.00  0.00    +0.000 F 
ATOM     18  C   UNL     1       2.989  14.380  19.535  0.00  0.00    +0.000 A 
BRANCH  15  19
ATOM     19  O   UNL     1       4.176  17.850  19.779  0.00  0.00    +0.000 OA
ATOM     20  H   UNL     1       4.267  17.918  20.747  0.00  0.00    +0.000 HD
ENDBRANCH  15  19
ENDBRANCH   9  11
ENDBRANCH   4   7
BRANCH   5  21
ATOM     21  C   UNL     1       0.641  10.165  19.664  0.00  0.00    +0.000 C 
BRANCH  21  22
ATOM     22  C   UNL     1       1.505   9.097  19.075  0.00  0.00    +0.000 A 
ATOM     23  C   UNL     1       2.322   9.249  17.972  0.00  0.00    +0.000 A 
ATOM     24  S   UNL     1       3.122   7.789  17.627  0.00  0.00    +0.000 S 
ATOM     25  C   UNL     1       2.332   7.016  18.966  0.00  0.00    +0.000 A 
ATOM     26  N   UNL     1       2.578   5.723  19.323  0.00  0.00    +0.000 N 
ATOM     27  C   UNL     1       3.015   4.707  18.373  0.00  0.00    +0.000 C 
ATOM     28  C   UNL     1       1.901   3.679  18.172  0.00  0.00    +0.000 C 
ATOM     29  C   UNL     1       1.460   3.084  19.507  0.00  0.00    +0.000 C 
ATOM     30  C   UNL     1       1.054   4.184  20.486  0.00  0.00    +0.000 C 
ATOM     31  C   UNL     1       2.152   5.238  20.634  0.00  0.00    +0.000 C 
ATOM     32  N   UNL     1       1.520   7.821  19.623  0.00  0.00    +0.000 NA
ENDBRANCH  21  22
ENDBRANCH   5  21
TORSDOF 5
ENDMDL
MODEL 6
REMARK VINA RESULT:      -7.7      1.960      2.737
REMARK  Name = 
REMARK  6 active torsions:
REMARK  status: ('A' for Active; 'I' for Inactive)
REMARK    1  A    between atoms: C_1  and  C_2
REMARK    2  A    between atoms: C_4  and  C_5
REMARK    3  A    between atoms: N_7  and  C_8
REMARK    4  A    between atoms: C_12  and  O_13
REMARK    5  A    between atoms: N_17  and  C_18
REMARK    6  A    between atoms: C_18  and  C_19
REMARK                            x       y       z     vdW  Elec       q    Type
REMARK                         _______ _______ _______ _____ _____    ______ ____
ROOT
ATOM      1  C   UNL     1      -3.488  10.544  17.666  0.00  0.00    +0.000 C 
ATOM      2  C   UNL     1      -2.082  10.489  18.137  0.00  0.00    +0.000 A 
ATOM      3  C   UNL     1      -0.966   9.905  17.476  0.00  0.00    +0.000 A 
ATOM      4  C   UNL     1       0.140   9.991  18.312  0.00  0.00    +0.000 A 
ATOM      5  N   UNL     1      -0.274  10.678  19.442  0.00  0.00    +0.000 N 
ATOM      6  C   UNL     1      -1.612  10.976  19.337  0.00  0.00    +0.000 A 
ENDROOT
BRANCH   4   7
ATOM      7  C   UNL     1       1.470   9.435  18.147  0.00  0.00    +0.000 C 
ATOM      8  O   UNL     1       2.378  10.111  17.674  0.00  0.00    +0.000 OA
ATOM      9  N   UNL     1       1.593   8.103  18.517  0.00  0.00    +0.000 N 
ATOM     10  H   UNL     1       0.729   7.631  18.763  0.00  0.00    +0.000 HD
BRANCH   9  11
ATOM     11  C   UNL     1       2.752   7.305  18.369  0.00  0.00    +0.000 A 
ATOM     12  C   UNL     1       3.700   7.517  17.361  0.00  0.00    +0.000 A 
ATOM     13  C   UNL     1       4.783   6.653  17.219  0.00  0.00    +0.000 A 
ATOM     14  F   UNL     1       5.669   6.858  16.235  0.00  0.00    +0.000 F 
ATOM     15  C   UNL     1       4.955   5.577  18.075  0.00  0.00    +0.000 A 
ATOM     16  C   UNL     1       4.039   5.382  19.101  0.00  0.00    +0.000 A 
ATOM     17  F   UNL     1       4.183   4.351  19.948  0.00  0.00    +0.000 F 
ATOM     18  C   UNL     1       2.948   6.240  19.259  0.00  0.00    +0.000 A 
BRANCH  15  19
ATOM     19  O   UNL     1       6.009   4.723  17.904  0.00  0.00    +0.000 OA
ATOM     20  H   UNL     1       6.596   4.831  18.676  0.00  0.00    +0.000 HD
ENDBRANCH  15  19
ENDBRANCH   9  11
ENDBRANCH   4   7
BRANCH   5  21
ATOM     21  C   UNL     1       0.525  10.970  20.635  0.00  0.00    +0.000 C 
BRANCH  21  22
ATOM     22  C   UNL     1       0.754  12.432  20.841  0.00  0.00    +0.000 A 
ATOM     23  C   UNL     1       0.116  13.216  21.781  0.00  0.00    +0.000 A 
ATOM     24  S   UNL     1       0.658  14.824  21.674  0.00  0.00    +0.000 S 
ATOM     25  C   UNL     1       1.718  14.401  20.365  0.00  0.00    +0.000 A 
ATOM     26  N   UNL     1       2.561  15.296  19.778  0.00  0.00    +0.000 N 
ATOM     27  C   UNL     1       2.291  16.728  19.731  0.00  0.00    +0.000 C 
ATOM     28  C   UNL     1       2.005  17.150  18.289  0.00  0.00    +0.000 C 
ATOM     29  C   UNL     1       3.146  16.738  17.363  0.00  0.00    +0.000 C 
ATOM     30  C   UNL     1       3.426  15.240  17.478  0.00  0.00    +0.000 C 
ATOM     31  C   UNL     1       3.652  14.819  18.930  0.00  0.00    +0.000 C 
ATOM     32  N   UNL     1       1.656  13.124  20.042  0.00  0.00    +0.000 NA
ENDBRANCH  21  22
ENDBRANCH   5  21
TORSDOF 5
ENDMDL
MODEL 7
REMARK VINA RESULT:      -7.7      5.863     10.101
REMARK  Name = 
REMARK  6 active torsions:
REMARK  status: ('A' for Active; 'I' for Inactive)
REMARK    1  A    between atoms: C_1  and  C_2
REMARK    2  A    between atoms: C_4  and  C_5
REMARK    3  A    between atoms: N_7  and  C_8
REMARK    4  A    between atoms: C_12  and  O_13
REMARK    5  A    between atoms: N_17  and  C_18
REMARK    6  A    between atoms: C_18  and  C_19
REMARK                            x       y       z     vdW  Elec       q    Type
REMARK                         _______ _______ _______ _____ _____    ______ ____
ROOT
ATOM      1  C   UNL     1      -2.814   9.878  15.516  0.00  0.00    +0.000 C 
ATOM      2  C   UNL     1      -2.305  10.345  16.829  0.00  0.00    +0.000 A 
ATOM      3  C   UNL     1      -2.843  11.370  17.655  0.00  0.00    +0.000 A 
ATOM      4  C   UNL     1      -2.002  11.549  18.746  0.00  0.00    +0.000 A 
ATOM      5  N   UNL     1      -0.998  10.601  18.627  0.00  0.00    +0.000 N 
ATOM      6  C   UNL     1      -1.179   9.878  17.472  0.00  0.00    +0.000 A 
ENDROOT
BRANCH   4   7
ATOM      7  C   UNL     1      -2.048  12.549  19.796  0.00  0.00    +0.000 C 
ATOM      8  O   UNL     1      -1.241  13.473  19.817  0.00  0.00    +0.000 OA
ATOM      9  N   UNL     1      -3.025  12.336  20.759  0.00  0.00    +0.000 N 
ATOM     10  H   UNL     1      -3.530  11.460  20.690  0.00  0.00    +0.000 HD
BRANCH   9  11
ATOM     11  C   UNL     1      -3.218  13.108  21.929  0.00  0.00    +0.000 A 
ATOM     12  C   UNL     1      -3.483  12.542  23.181  0.00  0.00    +0.000 A 
ATOM     13  C   UNL     1      -3.738  13.355  24.283  0.00  0.00    +0.000 A 
ATOM     14  F   UNL     1      -4.012  12.796  25.469  0.00  0.00    +0.000 F 
ATOM     15  C   UNL     1      -3.720  14.736  24.171  0.00  0.00    +0.000 A 
ATOM     16  C   UNL     1      -3.420  15.305  22.940  0.00  0.00    +0.000 A 
ATOM     17  F   UNL     1      -3.391  16.640  22.802  0.00  0.00    +0.000 F 
ATOM     18  C   UNL     1      -3.160  14.505  21.825  0.00  0.00    +0.000 A 
BRANCH  15  19
ATOM     19  O   UNL     1      -3.998  15.519  25.256  0.00  0.00    +0.000 OA
ATOM     20  H   UNL     1      -3.147  15.847  25.600  0.00  0.00    +0.000 HD
ENDBRANCH  15  19
ENDBRANCH   9  11
ENDBRANCH   4   7
BRANCH   5  21
ATOM     21  C   UNL     1       0.158  10.430  19.511  0.00  0.00    +0.000 C 
BRANCH  21  22
ATOM     22  C   UNL     1       1.148   9.438  18.992  0.00  0.00    +0.000 A 
ATOM     23  C   UNL     1       2.026   9.657  17.950  0.00  0.00    +0.000 A 
ATOM     24  S   UNL     1       2.969   8.270  17.672  0.00  0.00    +0.000 S 
ATOM     25  C   UNL     1       2.152   7.433  18.955  0.00  0.00    +0.000 A 
ATOM     26  N   UNL     1       2.478   6.165  19.337  0.00  0.00    +0.000 N 
ATOM     27  C   UNL     1       3.066   5.190  18.427  0.00  0.00    +0.000 C 
ATOM     28  C   UNL     1       2.059   4.072  18.152  0.00  0.00    +0.000 C 
ATOM     29  C   UNL     1       1.574   3.442  19.456  0.00  0.00    +0.000 C 
ATOM     30  C   UNL     1       1.009   4.504  20.396  0.00  0.00    +0.000 C 
ATOM     31  C   UNL     1       2.001   5.646  20.616  0.00  0.00    +0.000 C 
ATOM     32  N   UNL     1       1.230   8.167  19.547  0.00  0.00    +0.000 NA
ENDBRANCH  21  22
ENDBRANCH   5  21
TORSDOF 5
ENDMDL
MODEL 8
REMARK VINA RESULT:      -7.7      4.304      8.929
REMARK  Name = 
REMARK  6 active torsions:
REMARK  status: ('A' for Active; 'I' for Inactive)
REMARK    1  A    between atoms: C_1  and  C_2
REMARK    2  A    between atoms: C_4  and  C_5
REMARK    3  A    between atoms: N_7  and  C_8
REMARK    4  A    between atoms: C_12  and  O_13
REMARK    5  A    between atoms: N_17  and  C_18
REMARK    6  A    between atoms: C_18  and  C_19
REMARK                            x       y       z     vdW  Elec       q    Type
REMARK                         _______ _______ _______ _____ _____    ______ ____
ROOT
ATOM      1  C   UNL     1      -3.203   9.773  17.758  0.00  0.00    +0.000 C 
ATOM      2  C   UNL     1      -1.788  10.111  18.050  0.00  0.00    +0.000 A 
ATOM      3  C   UNL     1      -1.294  11.226  18.783  0.00  0.00    +0.000 A 
ATOM      4  C   UNL     1       0.094  11.211  18.732  0.00  0.00    +0.000 A 
ATOM      5  N   UNL     1       0.449  10.067  18.035  0.00  0.00    +0.000 N 
ATOM      6  C   UNL     1      -0.683   9.406  17.623  0.00  0.00    +0.000 A 
ENDROOT
BRANCH   4   7
ATOM      7  C   UNL     1       1.048  12.192  19.214  0.00  0.00    +0.000 C 
ATOM      8  O   UNL     1       1.393  12.205  20.391  0.00  0.00    +0.000 OA
ATOM      9  N   UNL     1       1.476  13.105  18.259  0.00  0.00    +0.000 N 
ATOM     10  H   UNL     1       1.005  13.059  17.362  0.00  0.00    +0.000 HD
BRANCH   9  11
ATOM     11  C   UNL     1       2.327  14.211  18.493  0.00  0.00    +0.000 A 
ATOM     12  C   UNL     1       1.857  15.459  18.917  0.00  0.00    +0.000 A 
ATOM     13  C   UNL     1       2.734  16.531  19.058  0.00  0.00    +0.000 A 
ATOM     14  F   UNL     1       2.263  17.725  19.445  0.00  0.00    +0.000 F 
ATOM     15  C   UNL     1       4.088  16.386  18.798  0.00  0.00    +0.000 A 
ATOM     16  C   UNL     1       4.567  15.141  18.413  0.00  0.00    +0.000 A 
ATOM     17  F   UNL     1       5.873  14.970  18.158  0.00  0.00    +0.000 F 
ATOM     18  C   UNL     1       3.702  14.054  18.268  0.00  0.00    +0.000 A 
BRANCH  15  19
ATOM     19  O   UNL     1       4.930  17.457  18.916  0.00  0.00    +0.000 OA
ATOM     20  H   UNL     1       4.374  18.247  19.048  0.00  0.00    +0.000 HD
ENDBRANCH  15  19
ENDBRANCH   9  11
ENDBRANCH   4   7
BRANCH   5  21
ATOM     21  C   UNL     1       1.804   9.642  17.676  0.00  0.00    +0.000 C 
BRANCH  21  22
ATOM     22  C   UNL     1       2.214   8.369  18.343  0.00  0.00    +0.000 A 
ATOM     23  C   UNL     1       1.735   7.913  19.554  0.00  0.00    +0.000 A 
ATOM     24  S   UNL     1       2.467   6.433  19.958  0.00  0.00    +0.000 S 
ATOM     25  C   UNL     1       3.401   6.473  18.495  0.00  0.00    +0.000 A 
ATOM     26  N   UNL     1       4.250   5.469  18.131  0.00  0.00    +0.000 N 
ATOM     27  C   UNL     1       4.910   4.600  19.098  0.00  0.00    +0.000 C 
ATOM     28  C   UNL     1       6.412   4.887  19.104  0.00  0.00    +0.000 C 
ATOM     29  C   UNL     1       6.999   4.757  17.700  0.00  0.00    +0.000 C 
ATOM     30  C   UNL     1       6.248   5.649  16.713  0.00  0.00    +0.000 C 
ATOM     31  C   UNL     1       4.741   5.396  16.758  0.00  0.00    +0.000 C 
ATOM     32  N   UNL     1       3.164   7.541  17.759  0.00  0.00    +0.000 NA
ENDBRANCH  21  22
ENDBRANCH   5  21
TORSDOF 5
ENDMDL
MODEL 9
REMARK VINA RESULT:      -7.6      1.482      2.547
REMARK  Name = 
REMARK  6 active torsions:
REMARK  status: ('A' for Active; 'I' for Inactive)
REMARK    1  A    between atoms: C_1  and  C_2
REMARK    2  A    between atoms: C_4  and  C_5
REMARK    3  A    between atoms: N_7  and  C_8
REMARK    4  A    between atoms: C_12  and  O_13
REMARK    5  A    between atoms: N_17  and  C_18
REMARK    6  A    between atoms: C_18  and  C_19
REMARK                            x       y       z     vdW  Elec       q    Type
REMARK                         _______ _______ _______ _____ _____    ______ ____
ROOT
ATOM      1  C   UNL     1      -0.007   9.615  23.391  0.00  0.00    +0.000 C 
ATOM      2  C   UNL     1       0.289   9.497  21.941  0.00  0.00    +0.000 A 
ATOM      3  C   UNL     1       1.034   8.477  21.287  0.00  0.00    +0.000 A 
ATOM      4  C   UNL     1       1.149   8.806  19.942  0.00  0.00    +0.000 A 
ATOM      5  N   UNL     1       0.429   9.975  19.760  0.00  0.00    +0.000 N 
ATOM      6  C   UNL     1      -0.087  10.393  20.964  0.00  0.00    +0.000 A 
ENDROOT
BRANCH   4   7
ATOM      7  C   UNL     1       1.913   8.156  18.893  0.00  0.00    +0.000 C 
ATOM      8  O   UNL     1       1.954   8.630  17.763  0.00  0.00    +0.000 OA
ATOM      9  N   UNL     1       2.526   6.968  19.271  0.00  0.00    +0.000 N 
ATOM     10  H   UNL     1       2.294   6.626  20.197  0.00  0.00    +0.000 HD
BRANCH   9  11
ATOM     11  C   UNL     1       3.246   6.100  18.417  0.00  0.00    +0.000 A 
ATOM     12  C   UNL     1       2.782   4.831  18.052  0.00  0.00    +0.000 A 
ATOM     13  C   UNL     1       3.569   3.991  17.268  0.00  0.00    +0.000 A 
ATOM     14  F   UNL     1       3.118   2.771  16.947  0.00  0.00    +0.000 F 
ATOM     15  C   UNL     1       4.818   4.393  16.822  0.00  0.00    +0.000 A 
ATOM     16  C   UNL     1       5.269   5.666  17.148  0.00  0.00    +0.000 A 
ATOM     17  F   UNL     1       6.472   6.084  16.726  0.00  0.00    +0.000 F 
ATOM     18  C   UNL     1       4.491   6.522  17.932  0.00  0.00    +0.000 A 
BRANCH  15  19
ATOM     19  O   UNL     1       5.588   3.545  16.076  0.00  0.00    +0.000 OA
ATOM     20  H   UNL     1       6.266   3.174  16.671  0.00  0.00    +0.000 HD
ENDBRANCH  15  19
ENDBRANCH   9  11
ENDBRANCH   4   7
BRANCH   5  21
ATOM     21  C   UNL     1       0.299  10.744  18.519  0.00  0.00    +0.000 C 
BRANCH  21  22
ATOM     22  C   UNL     1       1.082  12.016  18.536  0.00  0.00    +0.000 A 
ATOM     23  C   UNL     1       2.441  12.121  18.316  0.00  0.00    +0.000 A 
ATOM     24  S   UNL     1       2.935  13.743  18.435  0.00  0.00    +0.000 S 
ATOM     25  C   UNL     1       1.306  14.234  18.784  0.00  0.00    +0.000 A 
ATOM     26  N   UNL     1       0.949  15.537  18.963  0.00  0.00    +0.000 N 
ATOM     27  C   UNL     1       1.871  16.552  19.458  0.00  0.00    +0.000 C 
ATOM     28  C   UNL     1       1.442  16.998  20.856  0.00  0.00    +0.000 C 
ATOM     29  C   UNL     1      -0.009  17.473  20.857  0.00  0.00    +0.000 C 
ATOM     30  C   UNL     1      -0.933  16.397  20.289  0.00  0.00    +0.000 C 
ATOM     31  C   UNL     1      -0.461  15.917  18.917  0.00  0.00    +0.000 C 
ATOM     32  N   UNL     1       0.456  13.226  18.805  0.00  0.00    +0.000 NA
ENDBRANCH  21  22
ENDBRANCH   5  21
TORSDOF 5
ENDMDL
