MODEL 1
REMARK VINA RESULT:      -7.3      0.000      0.000
REMARK  Name = 
REMARK  9 active torsions:
REMARK  status: ('A' for Active; 'I' for Inactive)
REMARK    1  A    between atoms: O_1  and  C_2
REMARK    2  A    between atoms: C_2  and  C_3
REMARK    3  A    between atoms: C_3  and  C_4
REMARK    4  A    between atoms: C_4  and  C_5
REMARK    5  A    between atoms: C_5  and  C_6
REMARK    6  A    between atoms: C_7  and  C_8
REMARK    7  A    between atoms: C_13  and  C_14
REMARK    8  A    between atoms: C_15  and  C_16
REMARK    9  A    between atoms: C_19  and  O_20
REMARK                            x       y       z     vdW  Elec       q    Type
REMARK                         _______ _______ _______ _____ _____    ______ ____
ROOT
ATOM      1  C   UNL     1       4.367   4.433  16.853  0.00  0.00    +0.000 A 
ATOM      2  C   UNL     1       5.337   3.682  16.176  0.00  0.00    +0.000 A 
ATOM      3  C   UNL     1       6.465   4.309  15.644  0.00  0.00    +0.000 A 
ATOM      4  C   UNL     1       6.622   5.685  15.779  0.00  0.00    +0.000 A 
ATOM      5  C   UNL     1       5.655   6.440  16.447  0.00  0.00    +0.000 A 
ATOM      6  C   UNL     1       4.522   5.821  16.992  0.00  0.00    +0.000 A 
ENDROOT
BRANCH   1   8
ATOM      7  C   UNL     1       2.180   3.168  17.896  0.00  0.00    +0.000 C 
ATOM      8  C   UNL     1       3.244   3.743  17.409  0.00  0.00    +0.000 C 
BRANCH   7   9
ATOM      9  C   UNL     1       0.939   2.499  18.464  0.00  0.00    +0.000 C 
BRANCH   9  10
ATOM     10  C   UNL     1       0.783   2.847  19.944  0.00  0.00    +0.000 C 
BRANCH  10  11
ATOM     11  C   UNL     1       1.162   4.294  20.283  0.00  0.00    +0.000 C 
BRANCH  11  12
ATOM     12  C   UNL     1       2.289   4.414  21.298  0.00  0.00    +0.000 C 
BRANCH  12  13
ATOM     13  O   UNL     1       2.228   3.321  22.202  0.00  0.00    +0.000 OA
ATOM     14  H   UNL     1       2.381   2.514  21.683  0.00  0.00    +0.000 HD
ENDBRANCH  12  13
ENDBRANCH  11  12
ENDBRANCH  10  11
ENDBRANCH   9  10
ENDBRANCH   7   9
ENDBRANCH   1   8
BRANCH   6  15
ATOM     15  C   UNL     1       3.568   6.637  17.693  0.00  0.00    +0.000 C 
ATOM     16  C   UNL     1       2.798   7.350  18.280  0.00  0.00    +0.000 C 
BRANCH  16  17
ATOM     17  C   UNL     1       1.921   8.241  18.979  0.00  0.00    +0.000 A 
ATOM     18  C   UNL     1       1.351   9.328  18.309  0.00  0.00    +0.000 A 
ATOM     19  C   UNL     1       0.568  10.252  19.006  0.00  0.00    +0.000 A 
ATOM     20  C   UNL     1       0.354  10.076  20.370  0.00  0.00    +0.000 A 
ATOM     21  C   UNL     1       0.876   8.974  21.037  0.00  0.00    +0.000 A 
ATOM     22  C   UNL     1       1.665   8.055  20.341  0.00  0.00    +0.000 A 
BRANCH  20  23
ATOM     23  O   UNL     1      -0.358  10.983  21.099  0.00  0.00    +0.000 OA
ATOM     24  H   UNL     1      -0.529  10.606  21.978  0.00  0.00    +0.000 HD
ENDBRANCH  20  23
ENDBRANCH  16  17
ENDBRANCH   6  15
TORSDOF 9
ENDMDL
MODEL 2
REMARK VINA RESULT:      -7.3      0.580      1.181
REMARK  Name = 
REMARK  9 active torsions:
REMARK  status: ('A' for Active; 'I' for Inactive)
REMARK    1  A    between atoms: O_1  and  C_2
REMARK    2  A    between atoms: C_2  and  C_3
REMARK    3  A    between atoms: C_3  and  C_4
REMARK    4  A    between atoms: C_4  and  C_5
REMARK    5  A    between atoms: C_5  and  C_6
REMARK    6  A    between atoms: C_7  and  C_8
REMARK    7  A    between atoms: C_13  and  C_14
REMARK    8  A    between atoms: C_15  and  C_16
REMARK    9  A    between atoms: C_19  and  O_20
REMARK                            x       y       z     vdW  Elec       q    Type
REMARK                         _______ _______ _______ _____ _____    ______ ____
ROOT
ATOM      1  C   UNL     1       4.497   4.283  16.691  0.00  0.00    +0.000 A 
ATOM      2  C   UNL     1       5.416   3.484  15.998  0.00  0.00    +0.000 A 
ATOM      3  C   UNL     1       6.498   4.071  15.338  0.00  0.00    +0.000 A 
ATOM      4  C   UNL     1       6.659   5.453  15.362  0.00  0.00    +0.000 A 
ATOM      5  C   UNL     1       5.742   6.254  16.047  0.00  0.00    +0.000 A 
ATOM      6  C   UNL     1       4.656   5.677  16.718  0.00  0.00    +0.000 A 
ENDROOT
BRANCH   1   8
ATOM      7  C   UNL     1       2.414   3.108  18.014  0.00  0.00    +0.000 C 
ATOM      8  C   UNL     1       3.423   3.635  17.378  0.00  0.00    +0.000 C 
BRANCH   7   9
ATOM      9  C   UNL     1       1.238   2.493  18.756  0.00  0.00    +0.000 C 
BRANCH   9  10
ATOM     10  C   UNL     1       0.652   3.502  19.743  0.00  0.00    +0.000 C 
BRANCH  10  11
ATOM     11  C   UNL     1       1.684   4.086  20.717  0.00  0.00    +0.000 C 
BRANCH  11  12
ATOM     12  C   UNL     1       2.388   3.039  21.568  0.00  0.00    +0.000 C 
BRANCH  12  13
ATOM     13  O   UNL     1       1.433   2.364  22.372  0.00  0.00    +0.000 OA
ATOM     14  H   UNL     1       1.437   2.797  23.242  0.00  0.00    +0.000 HD
ENDBRANCH  12  13
ENDBRANCH  11  12
ENDBRANCH  10  11
ENDBRANCH   9  10
ENDBRANCH   7   9
ENDBRANCH   1   8
BRANCH   6  15
ATOM     15  C   UNL     1       3.754   6.542  17.431  0.00  0.00    +0.000 C 
ATOM     16  C   UNL     1       3.016   7.251  18.061  0.00  0.00    +0.000 C 
BRANCH  16  17
ATOM     17  C   UNL     1       2.159   8.073  18.862  0.00  0.00    +0.000 A 
ATOM     18  C   UNL     1       1.903   7.727  20.192  0.00  0.00    +0.000 A 
ATOM     19  C   UNL     1       0.997   8.473  20.951  0.00  0.00    +0.000 A 
ATOM     20  C   UNL     1       0.360   9.568  20.375  0.00  0.00    +0.000 A 
ATOM     21  C   UNL     1       0.642   9.950  19.068  0.00  0.00    +0.000 A 
ATOM     22  C   UNL     1       1.541   9.199  18.307  0.00  0.00    +0.000 A 
BRANCH  20  23
ATOM     23  O   UNL     1      -0.571  10.289  21.061  0.00  0.00    +0.000 OA
ATOM     24  H   UNL     1      -1.442   9.885  20.920  0.00  0.00    +0.000 HD
ENDBRANCH  20  23
ENDBRANCH  16  17
ENDBRANCH   6  15
TORSDOF 9
ENDMDL
MODEL 3
REMARK VINA RESULT:      -6.9      3.707      6.639
REMARK  Name = 
REMARK  9 active torsions:
REMARK  status: ('A' for Active; 'I' for Inactive)
REMARK    1  A    between atoms: O_1  and  C_2
REMARK    2  A    between atoms: C_2  and  C_3
REMARK    3  A    between atoms: C_3  and  C_4
REMARK    4  A    between atoms: C_4  and  C_5
REMARK    5  A    between atoms: C_5  and  C_6
REMARK    6  A    between atoms: C_7  and  C_8
REMARK    7  A    between atoms: C_13  and  C_14
REMARK    8  A    between atoms: C_15  and  C_16
REMARK    9  A    between atoms: C_19  and  O_20
REMARK                            x       y       z     vdW  Elec       q    Type
REMARK                         _______ _______ _______ _____ _____    ______ ____
ROOT
ATOM      1  C   UNL     1       6.820   4.960  14.638  0.00  0.00    +0.000 A 
ATOM      2  C   UNL     1       7.619   5.146  13.501  0.00  0.00    +0.000 A 
ATOM      3  C   UNL     1       7.325   4.464  12.318  0.00  0.00    +0.000 A 
ATOM      4  C   UNL     1       6.243   3.591  12.271  0.00  0.00    +0.000 A 
ATOM      5  C   UNL     1       5.447   3.397  13.402  0.00  0.00    +0.000 A 
ATOM      6  C   UNL     1       5.726   4.081  14.593  0.00  0.00    +0.000 A 
ENDROOT
BRANCH   1   8
ATOM      7  C   UNL     1       7.383   6.429  16.872  0.00  0.00    +0.000 C 
ATOM      8  C   UNL     1       7.140   5.703  15.817  0.00  0.00    +0.000 C 
BRANCH   7   9
ATOM      9  C   UNL     1       7.667   7.276  18.103  0.00  0.00    +0.000 C 
BRANCH   9  10
ATOM     10  C   UNL     1       7.900   8.731  17.699  0.00  0.00    +0.000 C 
BRANCH  10  11
ATOM     11  C   UNL     1       8.850   9.488  18.635  0.00  0.00    +0.000 C 
BRANCH  11  12
ATOM     12  C   UNL     1       9.021  10.958  18.280  0.00  0.00    +0.000 C 
BRANCH  12  13
ATOM     13  O   UNL     1      10.332  11.173  17.778  0.00  0.00    +0.000 OA
ATOM     14  H   UNL     1      10.633  12.028  18.128  0.00  0.00    +0.000 HD
ENDBRANCH  12  13
ENDBRANCH  11  12
ENDBRANCH  10  11
ENDBRANCH   9  10
ENDBRANCH   7   9
ENDBRANCH   1   8
BRANCH   6  15
ATOM     15  C   UNL     1       4.862   3.868  15.723  0.00  0.00    +0.000 C 
ATOM     16  C   UNL     1       4.157   3.722  16.685  0.00  0.00    +0.000 C 
BRANCH  16  17
ATOM     17  C   UNL     1       3.342   3.595  17.857  0.00  0.00    +0.000 A 
ATOM     18  C   UNL     1       3.905   3.138  19.052  0.00  0.00    +0.000 A 
ATOM     19  C   UNL     1       3.098   2.925  20.173  0.00  0.00    +0.000 A 
ATOM     20  C   UNL     1       1.733   3.182  20.092  0.00  0.00    +0.000 A 
ATOM     21  C   UNL     1       1.170   3.682  18.924  0.00  0.00    +0.000 A 
ATOM     22  C   UNL     1       1.975   3.886  17.801  0.00  0.00    +0.000 A 
BRANCH  20  23
ATOM     23  O   UNL     1       0.901   2.937  21.145  0.00  0.00    +0.000 OA
ATOM     24  H   UNL     1       1.254   2.186  21.649  0.00  0.00    +0.000 HD
ENDBRANCH  20  23
ENDBRANCH  16  17
ENDBRANCH   6  15
TORSDOF 9
ENDMDL
MODEL 4
REMARK VINA RESULT:      -6.9      3.278      5.452
REMARK  Name = 
REMARK  9 active torsions:
REMARK  status: ('A' for Active; 'I' for Inactive)
REMARK    1  A    between atoms: O_1  and  C_2
REMARK    2  A    between atoms: C_2  and  C_3
REMARK    3  A    between atoms: C_3  and  C_4
REMARK    4  A    between atoms: C_4  and  C_5
REMARK    5  A    between atoms: C_5  and  C_6
REMARK    6  A    between atoms: C_7  and  C_8
REMARK    7  A    between atoms: C_13  and  C_14
REMARK    8  A    between atoms: C_15  and  C_16
REMARK    9  A    between atoms: C_19  and  O_20
REMARK                            x       y       z     vdW  Elec       q    Type
REMARK                         _______ _______ _______ _____ _____    ______ ____
ROOT
ATOM      1  C   UNL     1       6.894   4.871  14.560  0.00  0.00    +0.000 A 
ATOM      2  C   UNL     1       7.721   5.158  13.465  0.00  0.00    +0.000 A 
ATOM      3  C   UNL     1       7.452   4.594  12.216  0.00  0.00    +0.000 A 
ATOM      4  C   UNL     1       6.367   3.738  12.060  0.00  0.00    +0.000 A 
ATOM      5  C   UNL     1       5.543   3.442  13.149  0.00  0.00    +0.000 A 
ATOM      6  C   UNL     1       5.798   4.008  14.406  0.00  0.00    +0.000 A 
ENDROOT
BRANCH   1   8
ATOM      7  C   UNL     1       7.391   6.057  16.972  0.00  0.00    +0.000 C 
ATOM      8  C   UNL     1       7.189   5.496  15.812  0.00  0.00    +0.000 C 
BRANCH   7   9
ATOM      9  C   UNL     1       7.626   6.710  18.324  0.00  0.00    +0.000 C 
BRANCH   9  10
ATOM     10  C   UNL     1       7.286   5.732  19.448  0.00  0.00    +0.000 C 
BRANCH  10  11
ATOM     11  C   UNL     1       5.930   5.035  19.273  0.00  0.00    +0.000 C 
BRANCH  11  12
ATOM     12  C   UNL     1       4.757   5.995  19.140  0.00  0.00    +0.000 C 
BRANCH  12  13
ATOM     13  O   UNL     1       3.766   5.664  20.101  0.00  0.00    +0.000 OA
ATOM     14  H   UNL     1       4.124   4.941  20.642  0.00  0.00    +0.000 HD
ENDBRANCH  12  13
ENDBRANCH  11  12
ENDBRANCH  10  11
ENDBRANCH   9  10
ENDBRANCH   7   9
ENDBRANCH   1   8
BRANCH   6  15
ATOM     15  C   UNL     1       4.906   3.694  15.490  0.00  0.00    +0.000 C 
ATOM     16  C   UNL     1       4.152   3.472  16.399  0.00  0.00    +0.000 C 
BRANCH  16  17
ATOM     17  C   UNL     1       3.243   3.265  17.487  0.00  0.00    +0.000 A 
ATOM     18  C   UNL     1       2.035   3.968  17.531  0.00  0.00    +0.000 A 
ATOM     19  C   UNL     1       1.186   3.839  18.634  0.00  0.00    +0.000 A 
ATOM     20  C   UNL     1       1.549   2.998  19.682  0.00  0.00    +0.000 A 
ATOM     21  C   UNL     1       2.724   2.258  19.627  0.00  0.00    +0.000 A 
ATOM     22  C   UNL     1       3.576   2.393  18.529  0.00  0.00    +0.000 A 
BRANCH  20  23
ATOM     23  O   UNL     1       0.777   2.885  20.800  0.00  0.00    +0.000 OA
ATOM     24  H   UNL     1       0.989   2.045  21.239  0.00  0.00    +0.000 HD
ENDBRANCH  20  23
ENDBRANCH  16  17
ENDBRANCH   6  15
TORSDOF 9
ENDMDL
MODEL 5
REMARK VINA RESULT:      -6.9      2.719      6.234
REMARK  Name = 
REMARK  9 active torsions:
REMARK  status: ('A' for Active; 'I' for Inactive)
REMARK    1  A    between atoms: O_1  and  C_2
REMARK    2  A    between atoms: C_2  and  C_3
REMARK    3  A    between atoms: C_3  and  C_4
REMARK    4  A    between atoms: C_4  and  C_5
REMARK    5  A    between atoms: C_5  and  C_6
REMARK    6  A    between atoms: C_7  and  C_8
REMARK    7  A    between atoms: C_13  and  C_14
REMARK    8  A    between atoms: C_15  and  C_16
REMARK    9  A    between atoms: C_19  and  O_20
REMARK                            x       y       z     vdW  Elec       q    Type
REMARK                         _______ _______ _______ _____ _____    ______ ____
ROOT
ATOM      1  C   UNL     1       1.544   7.391  20.384  0.00  0.00    +0.000 A 
ATOM      2  C   UNL     1       0.758   8.200  21.215  0.00  0.00    +0.000 A 
ATOM      3  C   UNL     1       0.482   9.520  20.851  0.00  0.00    +0.000 A 
ATOM      4  C   UNL     1       0.995  10.035  19.665  0.00  0.00    +0.000 A 
ATOM      5  C   UNL     1       1.785   9.234  18.836  0.00  0.00    +0.000 A 
ATOM      6  C   UNL     1       2.063   7.906  19.186  0.00  0.00    +0.000 A 
ENDROOT
BRANCH   1   8
ATOM      7  C   UNL     1       1.915   4.788  21.132  0.00  0.00    +0.000 C 
ATOM      8  C   UNL     1       1.774   6.037  20.783  0.00  0.00    +0.000 C 
BRANCH   7   9
ATOM      9  C   UNL     1       2.080   3.333  21.539  0.00  0.00    +0.000 C 
BRANCH   9  10
ATOM     10  C   UNL     1       1.758   2.416  20.360  0.00  0.00    +0.000 C 
BRANCH  10  11
ATOM     11  C   UNL     1       2.939   2.197  19.405  0.00  0.00    +0.000 C 
BRANCH  11  12
ATOM     12  C   UNL     1       4.298   2.452  20.040  0.00  0.00    +0.000 C 
BRANCH  12  13
ATOM     13  O   UNL     1       5.137   1.326  19.827  0.00  0.00    +0.000 OA
ATOM     14  H   UNL     1       6.037   1.665  19.690  0.00  0.00    +0.000 HD
ENDBRANCH  12  13
ENDBRANCH  11  12
ENDBRANCH  10  11
ENDBRANCH   9  10
ENDBRANCH   7   9
ENDBRANCH   1   8
BRANCH   6  15
ATOM     15  C   UNL     1       2.859   7.114  18.287  0.00  0.00    +0.000 C 
ATOM     16  C   UNL     1       3.557   6.466  17.554  0.00  0.00    +0.000 C 
BRANCH  16  17
ATOM     17  C   UNL     1       4.437   5.716  16.708  0.00  0.00    +0.000 A 
ATOM     18  C   UNL     1       5.171   6.368  15.712  0.00  0.00    +0.000 A 
ATOM     19  C   UNL     1       5.961   5.632  14.825  0.00  0.00    +0.000 A 
ATOM     20  C   UNL     1       6.018   4.247  14.948  0.00  0.00    +0.000 A 
ATOM     21  C   UNL     1       5.330   3.592  15.964  0.00  0.00    +0.000 A 
ATOM     22  C   UNL     1       4.535   4.328  16.845  0.00  0.00    +0.000 A 
BRANCH  20  23
ATOM     23  O   UNL     1       6.732   3.486  14.071  0.00  0.00    +0.000 OA
ATOM     24  H   UNL     1       6.711   3.916  13.200  0.00  0.00    +0.000 HD
ENDBRANCH  20  23
ENDBRANCH  16  17
ENDBRANCH   6  15
TORSDOF 9
ENDMDL
MODEL 6
REMARK VINA RESULT:      -6.9      1.301      1.900
REMARK  Name = 
REMARK  9 active torsions:
REMARK  status: ('A' for Active; 'I' for Inactive)
REMARK    1  A    between atoms: O_1  and  C_2
REMARK    2  A    between atoms: C_2  and  C_3
REMARK    3  A    between atoms: C_3  and  C_4
REMARK    4  A    between atoms: C_4  and  C_5
REMARK    5  A    between atoms: C_5  and  C_6
REMARK    6  A    between atoms: C_7  and  C_8
REMARK    7  A    between atoms: C_13  and  C_14
REMARK    8  A    between atoms: C_15  and  C_16
REMARK    9  A    between atoms: C_19  and  O_20
REMARK                            x       y       z     vdW  Elec       q    Type
REMARK                         _______ _______ _______ _____ _____    ______ ____
ROOT
ATOM      1  C   UNL     1       4.980   4.395  17.181  0.00  0.00    +0.000 A 
ATOM      2  C   UNL     1       5.890   3.622  16.447  0.00  0.00    +0.000 A 
ATOM      3  C   UNL     1       6.459   4.130  15.278  0.00  0.00    +0.000 A 
ATOM      4  C   UNL     1       6.116   5.404  14.836  0.00  0.00    +0.000 A 
ATOM      5  C   UNL     1       5.204   6.176  15.559  0.00  0.00    +0.000 A 
ATOM      6  C   UNL     1       4.632   5.680  16.738  0.00  0.00    +0.000 A 
ENDROOT
BRANCH   1   8
ATOM      7  C   UNL     1       3.941   3.286  19.453  0.00  0.00    +0.000 C 
ATOM      8  C   UNL     1       4.446   3.845  18.389  0.00  0.00    +0.000 C 
BRANCH   7   9
ATOM      9  C   UNL     1       3.351   2.635  20.693  0.00  0.00    +0.000 C 
BRANCH   9  10
ATOM     10  C   UNL     1       2.247   3.516  21.277  0.00  0.00    +0.000 C 
BRANCH  10  11
ATOM     11  C   UNL     1       1.200   3.960  20.248  0.00  0.00    +0.000 C 
BRANCH  11  12
ATOM     12  C   UNL     1       0.626   2.818  19.422  0.00  0.00    +0.000 C 
BRANCH  12  13
ATOM     13  O   UNL     1       0.875   3.059  18.045  0.00  0.00    +0.000 OA
ATOM     14  H   UNL     1       1.519   2.394  17.752  0.00  0.00    +0.000 HD
ENDBRANCH  12  13
ENDBRANCH  11  12
ENDBRANCH  10  11
ENDBRANCH   9  10
ENDBRANCH   7   9
ENDBRANCH   1   8
BRANCH   6  15
ATOM     15  C   UNL     1       3.719   6.524  17.462  0.00  0.00    +0.000 C 
ATOM     16  C   UNL     1       2.983   7.231  18.098  0.00  0.00    +0.000 C 
BRANCH  16  17
ATOM     17  C   UNL     1       2.145   8.073  18.899  0.00  0.00    +0.000 A 
ATOM     18  C   UNL     1       1.878   7.730  20.228  0.00  0.00    +0.000 A 
ATOM     19  C   UNL     1       0.990   8.497  20.987  0.00  0.00    +0.000 A 
ATOM     20  C   UNL     1       0.383   9.610  20.412  0.00  0.00    +0.000 A 
ATOM     21  C   UNL     1       0.678   9.988  19.107  0.00  0.00    +0.000 A 
ATOM     22  C   UNL     1       1.559   9.216  18.346  0.00  0.00    +0.000 A 
BRANCH  20  23
ATOM     23  O   UNL     1      -0.530  10.354  21.099  0.00  0.00    +0.000 OA
ATOM     24  H   UNL     1      -1.343  10.410  20.571  0.00  0.00    +0.000 HD
ENDBRANCH  20  23
ENDBRANCH  16  17
ENDBRANCH   6  15
TORSDOF 9
ENDMDL
MODEL 7
REMARK VINA RESULT:      -6.7      1.314      2.093
REMARK  Name = 
REMARK  9 active torsions:
REMARK  status: ('A' for Active; 'I' for Inactive)
REMARK    1  A    between atoms: O_1  and  C_2
REMARK    2  A    between atoms: C_2  and  C_3
REMARK    3  A    between atoms: C_3  and  C_4
REMARK    4  A    between atoms: C_4  and  C_5
REMARK    5  A    between atoms: C_5  and  C_6
REMARK    6  A    between atoms: C_7  and  C_8
REMARK    7  A    between atoms: C_13  and  C_14
REMARK    8  A    between atoms: C_15  and  C_16
REMARK    9  A    between atoms: C_19  and  O_20
REMARK                            x       y       z     vdW  Elec       q    Type
REMARK                         _______ _______ _______ _____ _____    ______ ____
ROOT
ATOM      1  C   UNL     1       4.545   5.071  18.086  0.00  0.00    +0.000 A 
ATOM      2  C   UNL     1       5.550   4.232  17.587  0.00  0.00    +0.000 A 
ATOM      3  C   UNL     1       6.261   4.593  16.441  0.00  0.00    +0.000 A 
ATOM      4  C   UNL     1       5.965   5.784  15.787  0.00  0.00    +0.000 A 
ATOM      5  C   UNL     1       4.959   6.622  16.275  0.00  0.00    +0.000 A 
ATOM      6  C   UNL     1       4.243   6.274  17.429  0.00  0.00    +0.000 A 
ENDROOT
BRANCH   1   8
ATOM      7  C   UNL     1       3.203   4.273  20.329  0.00  0.00    +0.000 C 
ATOM      8  C   UNL     1       3.865   4.675  19.280  0.00  0.00    +0.000 C 
BRANCH   7   9
ATOM      9  C   UNL     1       2.432   3.805  21.552  0.00  0.00    +0.000 C 
BRANCH   9  10
ATOM     10  C   UNL     1       1.264   2.915  21.130  0.00  0.00    +0.000 C 
BRANCH  10  11
ATOM     11  C   UNL     1       0.655   3.294  19.774  0.00  0.00    +0.000 C 
BRANCH  11  12
ATOM     12  C   UNL     1       0.663   2.161  18.758  0.00  0.00    +0.000 C 
BRANCH  12  13
ATOM     13  O   UNL     1       1.910   1.485  18.815  0.00  0.00    +0.000 OA
ATOM     14  H   UNL     1       1.715   0.533  18.841  0.00  0.00    +0.000 HD
ENDBRANCH  12  13
ENDBRANCH  11  12
ENDBRANCH  10  11
ENDBRANCH   9  10
ENDBRANCH   7   9
ENDBRANCH   1   8
BRANCH   6  15
ATOM     15  C   UNL     1       3.235   7.182  17.908  0.00  0.00    +0.000 C 
ATOM     16  C   UNL     1       2.421   7.957  18.333  0.00  0.00    +0.000 C 
BRANCH  16  17
ATOM     17  C   UNL     1       1.491   8.901  18.877  0.00  0.00    +0.000 A 
ATOM     18  C   UNL     1       1.197   8.884  20.244  0.00  0.00    +0.000 A 
ATOM     19  C   UNL     1       0.224   9.742  20.765  0.00  0.00    +0.000 A 
ATOM     20  C   UNL     1      -0.441  10.618  19.914  0.00  0.00    +0.000 A 
ATOM     21  C   UNL     1      -0.124  10.678  18.562  0.00  0.00    +0.000 A 
ATOM     22  C   UNL     1       0.842   9.815  18.040  0.00  0.00    +0.000 A 
BRANCH  20  23
ATOM     23  O   UNL     1      -1.435  11.433  20.371  0.00  0.00    +0.000 OA
ATOM     24  H   UNL     1      -2.252  10.913  20.444  0.00  0.00    +0.000 HD
ENDBRANCH  20  23
ENDBRANCH  16  17
ENDBRANCH   6  15
TORSDOF 9
ENDMDL
MODEL 8
REMARK VINA RESULT:      -6.7      0.782      1.314
REMARK  Name = 
REMARK  9 active torsions:
REMARK  status: ('A' for Active; 'I' for Inactive)
REMARK    1  A    between atoms: O_1  and  C_2
REMARK    2  A    between atoms: C_2  and  C_3
REMARK    3  A    between atoms: C_3  and  C_4
REMARK    4  A    between atoms: C_4  and  C_5
REMARK    5  A    between atoms: C_5  and  C_6
REMARK    6  A    between atoms: C_7  and  C_8
REMARK    7  A    between atoms: C_13  and  C_14
REMARK    8  A    between atoms: C_15  and  C_16
REMARK    9  A    between atoms: C_19  and  O_20
REMARK                            x       y       z     vdW  Elec       q    Type
REMARK                         _______ _______ _______ _____ _____    ______ ____
ROOT
ATOM      1  C   UNL     1       4.454   4.714  17.034  0.00  0.00    +0.000 A 
ATOM      2  C   UNL     1       5.478   3.900  16.533  0.00  0.00    +0.000 A 
ATOM      3  C   UNL     1       6.678   4.468  16.100  0.00  0.00    +0.000 A 
ATOM      4  C   UNL     1       6.854   5.847  16.160  0.00  0.00    +0.000 A 
ATOM      5  C   UNL     1       5.834   6.664  16.654  0.00  0.00    +0.000 A 
ATOM      6  C   UNL     1       4.628   6.105  17.097  0.00  0.00    +0.000 A 
ENDROOT
BRANCH   1   8
ATOM      7  C   UNL     1       2.200   3.483  17.969  0.00  0.00    +0.000 C 
ATOM      8  C   UNL     1       3.255   4.084  17.495  0.00  0.00    +0.000 C 
BRANCH   7   9
ATOM      9  C   UNL     1       0.969   2.783  18.522  0.00  0.00    +0.000 C 
BRANCH   9  10
ATOM     10  C   UNL     1       1.301   2.102  19.849  0.00  0.00    +0.000 C 
BRANCH  10  11
ATOM     11  C   UNL     1       1.736   3.075  20.952  0.00  0.00    +0.000 C 
BRANCH  11  12
ATOM     12  C   UNL     1       1.318   4.517  20.701  0.00  0.00    +0.000 C 
BRANCH  12  13
ATOM     13  O   UNL     1       2.398   5.383  21.014  0.00  0.00    +0.000 OA
ATOM     14  H   UNL     1       2.090   6.290  20.854  0.00  0.00    +0.000 HD
ENDBRANCH  12  13
ENDBRANCH  11  12
ENDBRANCH  10  11
ENDBRANCH   9  10
ENDBRANCH   7   9
ENDBRANCH   1   8
BRANCH   6  15
ATOM     15  C   UNL     1       3.619   6.985  17.622  0.00  0.00    +0.000 C 
ATOM     16  C   UNL     1       2.797   7.725  18.094  0.00  0.00    +0.000 C 
BRANCH  16  17
ATOM     17  C   UNL     1       1.851   8.610  18.705  0.00  0.00    +0.000 A 
ATOM     18  C   UNL     1       1.597   8.520  20.077  0.00  0.00    +0.000 A 
ATOM     19  C   UNL     1       0.610   9.318  20.664  0.00  0.00    +0.000 A 
ATOM     20  C   UNL     1      -0.109  10.208  19.872  0.00  0.00    +0.000 A 
ATOM     21  C   UNL     1       0.167  10.340  18.516  0.00  0.00    +0.000 A 
ATOM     22  C   UNL     1       1.148   9.536  17.929  0.00  0.00    +0.000 A 
BRANCH  20  23
ATOM     23  O   UNL     1      -1.117  10.965  20.392  0.00  0.00    +0.000 OA
ATOM     24  H   UNL     1      -0.945  11.896  20.179  0.00  0.00    +0.000 HD
ENDBRANCH  20  23
ENDBRANCH  16  17
ENDBRANCH   6  15
TORSDOF 9
ENDMDL
MODEL 9
REMARK VINA RESULT:      -6.7      2.506      6.283
REMARK  Name = 
REMARK  9 active torsions:
REMARK  status: ('A' for Active; 'I' for Inactive)
REMARK    1  A    between atoms: O_1  and  C_2
REMARK    2  A    between atoms: C_2  and  C_3
REMARK    3  A    between atoms: C_3  and  C_4
REMARK    4  A    between atoms: C_4  and  C_5
REMARK    5  A    between atoms: C_5  and  C_6
REMARK    6  A    between atoms: C_7  and  C_8
REMARK    7  A    between atoms: C_13  and  C_14
REMARK    8  A    between atoms: C_15  and  C_16
REMARK    9  A    between atoms: C_19  and  O_20
REMARK                            x       y       z     vdW  Elec       q    Type
REMARK                         _______ _______ _______ _____ _____    ______ ____
ROOT
ATOM      1  C   UNL     1       1.493   8.015  20.026  0.00  0.00    +0.000 A 
ATOM      2  C   UNL     1       0.627   8.880  20.708  0.00  0.00    +0.000 A 
ATOM      3  C   UNL     1       0.358  10.151  20.197  0.00  0.00    +0.000 A 
ATOM      4  C   UNL     1       0.958  10.563  19.011  0.00  0.00    +0.000 A 
ATOM      5  C   UNL     1       1.827   9.707  18.329  0.00  0.00    +0.000 A 
ATOM      6  C   UNL     1       2.099   8.427  18.829  0.00  0.00    +0.000 A 
ENDROOT
BRANCH   1   8
ATOM      7  C   UNL     1       1.932   5.501  21.004  0.00  0.00    +0.000 C 
ATOM      8  C   UNL     1       1.713   6.711  20.571  0.00  0.00    +0.000 C 
BRANCH   7   9
ATOM      9  C   UNL     1       2.188   4.090  21.507  0.00  0.00    +0.000 C 
BRANCH   9  10
ATOM     10  C   UNL     1       1.182   3.119  20.890  0.00  0.00    +0.000 C 
BRANCH  10  11
ATOM     11  C   UNL     1       1.785   2.198  19.822  0.00  0.00    +0.000 C 
BRANCH  11  12
ATOM     12  C   UNL     1       1.255   2.453  18.419  0.00  0.00    +0.000 C 
BRANCH  12  13
ATOM     13  O   UNL     1       2.154   1.904  17.468  0.00  0.00    +0.000 OA
ATOM     14  H   UNL     1       2.486   2.642  16.930  0.00  0.00    +0.000 HD
ENDBRANCH  12  13
ENDBRANCH  11  12
ENDBRANCH  10  11
ENDBRANCH   9  10
ENDBRANCH   7   9
ENDBRANCH   1   8
BRANCH   6  15
ATOM     15  C   UNL     1       2.979   7.573  18.077  0.00  0.00    +0.000 C 
ATOM     16  C   UNL     1       3.683   6.838  17.436  0.00  0.00    +0.000 C 
BRANCH  16  17
ATOM     17  C   UNL     1       4.473   5.933  16.656  0.00  0.00    +0.000 A 
ATOM     18  C   UNL     1       5.232   6.413  15.585  0.00  0.00    +0.000 A 
ATOM     19  C   UNL     1       5.932   5.524  14.765  0.00  0.00    +0.000 A 
ATOM     20  C   UNL     1       5.875   4.160  15.029  0.00  0.00    +0.000 A 
ATOM     21  C   UNL     1       5.162   3.674  16.120  0.00  0.00    +0.000 A 
ATOM     22  C   UNL     1       4.456   4.562  16.934  0.00  0.00    +0.000 A 
BRANCH  20  23
ATOM     23  O   UNL     1       6.498   3.254  14.223  0.00  0.00    +0.000 OA
ATOM     24  H   UNL     1       7.430   3.193  14.488  0.00  0.00    +0.000 HD
ENDBRANCH  20  23
ENDBRANCH  16  17
ENDBRANCH   6  15
TORSDOF 9
ENDMDL
