MODEL 1
REMARK VINA RESULT:      -7.9      0.000      0.000
REMARK  Name = 
REMARK  5 active torsions:
REMARK  status: ('A' for Active; 'I' for Inactive)
REMARK    1  A    between atoms: C_1  and  C_2
REMARK    2  A    between atoms: C_3  and  C_4
REMARK    3  A    between atoms: C_4  and  C_5
REMARK    4  A    between atoms: C_5  and  N_6
REMARK    5  A    between atoms: C_7  and  C_9
REMARK                            x       y       z     vdW  Elec       q    Type
REMARK                         _______ _______ _______ _____ _____    ______ ____
ROOT
ATOM      1  C   UNL     1       2.064   8.862  17.737  0.00  0.00    +0.000 C 
ATOM      2  C   UNL     1       1.411   9.102  19.053  0.00  0.00    +0.000 A 
ATOM      3  C   UNL     1       1.469   8.397  20.261  0.00  0.00    +0.000 A 
ATOM      4  C   UNL     1       0.656   9.113  21.210  0.00  0.00    +0.000 A 
ATOM      5  C   UNL     1       0.310   8.959  22.566  0.00  0.00    +0.000 A 
ATOM      6  C   UNL     1      -0.526   9.914  23.173  0.00  0.00    +0.000 A 
ATOM      7  C   UNL     1      -1.014  11.012  22.458  0.00  0.00    +0.000 A 
ATOM      8  C   UNL     1      -0.694  11.180  21.110  0.00  0.00    +0.000 A 
ATOM      9  C   UNL     1       0.145  10.212  20.549  0.00  0.00    +0.000 A 
ATOM     10  N   UNL     1       0.598  10.188  19.258  0.00  0.00    +0.000 N 
ATOM     11  C   UNL     1       0.221  11.261  18.345  0.00  0.00    +0.000 C 
ATOM     12  C   UNL     1      -1.102  11.934  18.766  0.00  0.00    +0.000 C 
ATOM     13  C   UNL     1      -1.130  12.335  20.257  0.00  0.00    +0.000 C 
ENDROOT
BRANCH   3  14
ATOM     14  C   UNL     1       2.260   7.148  20.569  0.00  0.00    +0.000 C 
BRANCH  14  15
ATOM     15  C   UNL     1       1.866   6.001  19.636  0.00  0.00    +0.000 C 
BRANCH  15  16
ATOM     16  N   UNL     1       2.901   5.525  18.718  0.00  0.00    +0.000 N 
ATOM     17  C   UNL     1       3.595   4.396  19.109  0.00  0.00    +0.000 C 
ATOM     18  O   UNL     1       3.279   3.765  20.116  0.00  0.00    +0.000 OA
ATOM     19  H   UNL     1       3.341   6.183  18.088  0.00  0.00    +0.000 HD
BRANCH  17  20
ATOM     20  C   UNL     1       4.788   3.974  18.265  0.00  0.00    +0.000 C 
ATOM     21  C   UNL     1       4.407   4.065  16.770  0.00  0.00    +0.000 C 
ATOM     22  C   UNL     1       5.687   3.974  15.969  0.00  0.00    +0.000 C 
ATOM     23  S   UNL     1       6.848   4.958  16.892  0.00  0.00    +0.000 S 
ATOM     24  O   UNL     1       6.795   6.320  16.401  0.00  0.00    +0.000 OA
ATOM     25  O   UNL     1       8.089   4.220  16.995  0.00  0.00    +0.000 OA
ATOM     26  C   UNL     1       5.997   4.886  18.466  0.00  0.00    +0.000 C 
ENDBRANCH  17  20
ENDBRANCH  15  16
ENDBRANCH  14  15
ENDBRANCH   3  14
TORSDOF 4
ENDMDL
MODEL 2
REMARK VINA RESULT:      -7.7      1.256      1.345
REMARK  Name = 
REMARK  5 active torsions:
REMARK  status: ('A' for Active; 'I' for Inactive)
REMARK    1  A    between atoms: C_1  and  C_2
REMARK    2  A    between atoms: C_3  and  C_4
REMARK    3  A    between atoms: C_4  and  C_5
REMARK    4  A    between atoms: C_5  and  N_6
REMARK    5  A    between atoms: C_7  and  C_9
REMARK                            x       y       z     vdW  Elec       q    Type
REMARK                         _______ _______ _______ _____ _____    ______ ____
ROOT
ATOM      1  C   UNL     1       1.662   9.236  17.851  0.00  0.00    +0.000 C 
ATOM      2  C   UNL     1       1.024   9.479  19.173  0.00  0.00    +0.000 A 
ATOM      3  C   UNL     1       1.115   8.793  20.389  0.00  0.00    +0.000 A 
ATOM      4  C   UNL     1       0.301   9.503  21.341  0.00  0.00    +0.000 A 
ATOM      5  C   UNL     1      -0.021   9.361  22.704  0.00  0.00    +0.000 A 
ATOM      6  C   UNL     1      -0.870  10.306  23.311  0.00  0.00    +0.000 A 
ATOM      7  C   UNL     1      -1.394  11.382  22.588  0.00  0.00    +0.000 A 
ATOM      8  C   UNL     1      -1.097  11.538  21.233  0.00  0.00    +0.000 A 
ATOM      9  C   UNL     1      -0.245  10.582  20.673  0.00  0.00    +0.000 A 
ATOM     10  N   UNL     1       0.189  10.549  19.375  0.00  0.00    +0.000 N 
ATOM     11  C   UNL     1      -0.226  11.601  18.454  0.00  0.00    +0.000 C 
ATOM     12  C   UNL     1      -1.557  12.250  18.886  0.00  0.00    +0.000 C 
ATOM     13  C   UNL     1      -1.572  12.670  20.371  0.00  0.00    +0.000 C 
ENDROOT
BRANCH   3  14
ATOM     14  C   UNL     1       1.940   7.566  20.703  0.00  0.00    +0.000 C 
BRANCH  14  15
ATOM     15  C   UNL     1       2.013   6.628  19.496  0.00  0.00    +0.000 C 
BRANCH  15  16
ATOM     16  N   UNL     1       3.317   6.512  18.842  0.00  0.00    +0.000 N 
ATOM     17  C   UNL     1       3.456   5.482  17.932  0.00  0.00    +0.000 C 
ATOM     18  O   UNL     1       2.502   4.776  17.610  0.00  0.00    +0.000 OA
ATOM     19  H   UNL     1       4.137   6.874  19.311  0.00  0.00    +0.000 HD
BRANCH  17  20
ATOM     20  C   UNL     1       4.844   5.228  17.362  0.00  0.00    +0.000 C 
ATOM     21  C   UNL     1       5.490   6.580  16.984  0.00  0.00    +0.000 C 
ATOM     22  C   UNL     1       6.963   6.328  16.748  0.00  0.00    +0.000 C 
ATOM     23  S   UNL     1       7.421   5.189  18.036  0.00  0.00    +0.000 S 
ATOM     24  O   UNL     1       7.871   5.946  19.186  0.00  0.00    +0.000 OA
ATOM     25  O   UNL     1       8.215   4.131  17.447  0.00  0.00    +0.000 OA
ATOM     26  C   UNL     1       5.778   4.564  18.373  0.00  0.00    +0.000 C 
ENDBRANCH  17  20
ENDBRANCH  15  16
ENDBRANCH  14  15
ENDBRANCH   3  14
TORSDOF 4
ENDMDL
MODEL 3
REMARK VINA RESULT:      -7.6      1.066      1.181
REMARK  Name = 
REMARK  5 active torsions:
REMARK  status: ('A' for Active; 'I' for Inactive)
REMARK    1  A    between atoms: C_1  and  C_2
REMARK    2  A    between atoms: C_3  and  C_4
REMARK    3  A    between atoms: C_4  and  C_5
REMARK    4  A    between atoms: C_5  and  N_6
REMARK    5  A    between atoms: C_7  and  C_9
REMARK                            x       y       z     vdW  Elec       q    Type
REMARK                         _______ _______ _______ _____ _____    ______ ____
ROOT
ATOM      1  C   UNL     1       1.930   8.990  17.839  0.00  0.00    +0.000 C 
ATOM      2  C   UNL     1       1.285   9.223  19.159  0.00  0.00    +0.000 A 
ATOM      3  C   UNL     1       1.399   8.549  20.381  0.00  0.00    +0.000 A 
ATOM      4  C   UNL     1       0.563   9.240  21.327  0.00  0.00    +0.000 A 
ATOM      5  C   UNL     1       0.246   9.097  22.692  0.00  0.00    +0.000 A 
ATOM      6  C   UNL     1      -0.632  10.018  23.292  0.00  0.00    +0.000 A 
ATOM      7  C   UNL     1      -1.190  11.072  22.562  0.00  0.00    +0.000 A 
ATOM      8  C   UNL     1      -0.900  11.227  21.206  0.00  0.00    +0.000 A 
ATOM      9  C   UNL     1      -0.018  10.295  20.652  0.00  0.00    +0.000 A 
ATOM     10  N   UNL     1       0.417  10.267  19.355  0.00  0.00    +0.000 N 
ATOM     11  C   UNL     1      -0.032  11.298  18.426  0.00  0.00    +0.000 C 
ATOM     12  C   UNL     1      -1.383  11.907  18.854  0.00  0.00    +0.000 C 
ATOM     13  C   UNL     1      -1.411  12.338  20.336  0.00  0.00    +0.000 C 
ENDROOT
BRANCH   3  14
ATOM     14  C   UNL     1       2.262   7.351  20.703  0.00  0.00    +0.000 C 
BRANCH  14  15
ATOM     15  C   UNL     1       1.676   6.072  20.103  0.00  0.00    +0.000 C 
BRANCH  15  16
ATOM     16  N   UNL     1       2.150   5.704  18.768  0.00  0.00    +0.000 N 
ATOM     17  C   UNL     1       3.472   5.316  18.672  0.00  0.00    +0.000 C 
ATOM     18  O   UNL     1       4.175   5.180  19.671  0.00  0.00    +0.000 OA
ATOM     19  H   UNL     1       1.687   6.094  17.957  0.00  0.00    +0.000 HD
BRANCH  17  20
ATOM     20  C   UNL     1       4.041   5.092  17.279  0.00  0.00    +0.000 C 
ATOM     21  C   UNL     1       4.741   6.385  16.805  0.00  0.00    +0.000 C 
ATOM     22  C   UNL     1       5.574   6.032  15.592  0.00  0.00    +0.000 C 
ATOM     23  S   UNL     1       6.290   4.455  16.001  0.00  0.00    +0.000 S 
ATOM     24  O   UNL     1       7.568   4.679  16.646  0.00  0.00    +0.000 OA
ATOM     25  O   UNL     1       6.144   3.579  14.858  0.00  0.00    +0.000 OA
ATOM     26  C   UNL     1       5.095   3.986  17.249  0.00  0.00    +0.000 C 
ENDBRANCH  17  20
ENDBRANCH  15  16
ENDBRANCH  14  15
ENDBRANCH   3  14
TORSDOF 4
ENDMDL
MODEL 4
REMARK VINA RESULT:      -7.5      1.932      3.322
REMARK  Name = 
REMARK  5 active torsions:
REMARK  status: ('A' for Active; 'I' for Inactive)
REMARK    1  A    between atoms: C_1  and  C_2
REMARK    2  A    between atoms: C_3  and  C_4
REMARK    3  A    between atoms: C_4  and  C_5
REMARK    4  A    between atoms: C_5  and  N_6
REMARK    5  A    between atoms: C_7  and  C_9
REMARK                            x       y       z     vdW  Elec       q    Type
REMARK                         _______ _______ _______ _____ _____    ______ ____
ROOT
ATOM      1  C   UNL     1       1.122  11.457  20.724  0.00  0.00    +0.000 C 
ATOM      2  C   UNL     1       0.104  11.130  19.689  0.00  0.00    +0.000 A 
ATOM      3  C   UNL     1       0.192  10.403  18.496  0.00  0.00    +0.000 A 
ATOM      4  C   UNL     1      -1.123  10.384  17.911  0.00  0.00    +0.000 A 
ATOM      5  C   UNL     1      -1.711   9.829  16.758  0.00  0.00    +0.000 A 
ATOM      6  C   UNL     1      -3.087  10.018  16.531  0.00  0.00    +0.000 A 
ATOM      7  C   UNL     1      -3.879  10.741  17.429  0.00  0.00    +0.000 A 
ATOM      8  C   UNL     1      -3.317  11.309  18.572  0.00  0.00    +0.000 A 
ATOM      9  C   UNL     1      -1.949  11.091  18.762  0.00  0.00    +0.000 A 
ATOM     10  N   UNL     1      -1.200  11.538  19.817  0.00  0.00    +0.000 N 
ATOM     11  C   UNL     1      -1.842  12.298  20.882  0.00  0.00    +0.000 C 
ATOM     12  C   UNL     1      -3.121  13.008  20.390  0.00  0.00    +0.000 C 
ATOM     13  C   UNL     1      -4.075  12.071  19.619  0.00  0.00    +0.000 C 
ENDROOT
BRANCH   3  14
ATOM     14  C   UNL     1       1.404   9.709  17.919  0.00  0.00    +0.000 C 
BRANCH  14  15
ATOM     15  C   UNL     1       1.757   8.456  18.724  0.00  0.00    +0.000 C 
BRANCH  15  16
ATOM     16  N   UNL     1       2.762   7.569  18.138  0.00  0.00    +0.000 N 
ATOM     17  C   UNL     1       3.077   6.436  18.863  0.00  0.00    +0.000 C 
ATOM     18  O   UNL     1       2.463   6.136  19.885  0.00  0.00    +0.000 OA
ATOM     19  H   UNL     1       3.445   7.954  17.497  0.00  0.00    +0.000 HD
BRANCH  17  20
ATOM     20  C   UNL     1       4.235   5.582  18.368  0.00  0.00    +0.000 C 
ATOM     21  C   UNL     1       3.712   4.583  17.312  0.00  0.00    +0.000 C 
ATOM     22  C   UNL     1       4.916   3.998  16.606  0.00  0.00    +0.000 C 
ATOM     23  S   UNL     1       6.010   5.385  16.392  0.00  0.00    +0.000 S 
ATOM     24  O   UNL     1       5.729   6.004  15.113  0.00  0.00    +0.000 OA
ATOM     25  O   UNL     1       7.344   4.975  16.776  0.00  0.00    +0.000 OA
ATOM     26  C   UNL     1       5.322   6.412  17.687  0.00  0.00    +0.000 C 
ENDBRANCH  17  20
ENDBRANCH  15  16
ENDBRANCH  14  15
ENDBRANCH   3  14
TORSDOF 4
ENDMDL
MODEL 5
REMARK VINA RESULT:      -7.5      4.511      7.429
REMARK  Name = 
REMARK  5 active torsions:
REMARK  status: ('A' for Active; 'I' for Inactive)
REMARK    1  A    between atoms: C_1  and  C_2
REMARK    2  A    between atoms: C_3  and  C_4
REMARK    3  A    between atoms: C_4  and  C_5
REMARK    4  A    between atoms: C_5  and  N_6
REMARK    5  A    between atoms: C_7  and  C_9
REMARK                            x       y       z     vdW  Elec       q    Type
REMARK                         _______ _______ _______ _____ _____    ______ ____
ROOT
ATOM      1  C   UNL     1       5.640   3.822  15.756  0.00  0.00    +0.000 C 
ATOM      2  C   UNL     1       4.805   4.425  16.830  0.00  0.00    +0.000 A 
ATOM      3  C   UNL     1       4.690   5.742  17.289  0.00  0.00    +0.000 A 
ATOM      4  C   UNL     1       3.699   5.744  18.333  0.00  0.00    +0.000 A 
ATOM      5  C   UNL     1       3.114   6.711  19.174  0.00  0.00    +0.000 A 
ATOM      6  C   UNL     1       2.124   6.314  20.091  0.00  0.00    +0.000 A 
ATOM      7  C   UNL     1       1.709   4.981  20.181  0.00  0.00    +0.000 A 
ATOM      8  C   UNL     1       2.281   4.003  19.367  0.00  0.00    +0.000 A 
ATOM      9  C   UNL     1       3.255   4.443  18.465  0.00  0.00    +0.000 A 
ATOM     10  N   UNL     1       3.931   3.664  17.566  0.00  0.00    +0.000 N 
ATOM     11  C   UNL     1       3.630   2.240  17.481  0.00  0.00    +0.000 C 
ATOM     12  C   UNL     1       3.048   1.697  18.803  0.00  0.00    +0.000 C 
ATOM     13  C   UNL     1       1.889   2.556  19.353  0.00  0.00    +0.000 C 
ENDROOT
BRANCH   3  14
ATOM     14  C   UNL     1       5.410   6.968  16.780  0.00  0.00    +0.000 C 
BRANCH  14  15
ATOM     15  C   UNL     1       6.743   7.166  17.506  0.00  0.00    +0.000 C 
BRANCH  15  16
ATOM     16  N   UNL     1       7.465   8.405  17.213  0.00  0.00    +0.000 N 
ATOM     17  C   UNL     1       8.407   8.799  18.143  0.00  0.00    +0.000 C 
ATOM     18  O   UNL     1       8.700   8.088  19.102  0.00  0.00    +0.000 OA
ATOM     19  H   UNL     1       7.027   9.102  16.624  0.00  0.00    +0.000 HD
BRANCH  17  20
ATOM     20  C   UNL     1       9.052  10.165  17.956  0.00  0.00    +0.000 C 
ATOM     21  C   UNL     1       7.956  11.200  17.621  0.00  0.00    +0.000 C 
ATOM     22  C   UNL     1       8.568  12.576  17.777  0.00  0.00    +0.000 C 
ATOM     23  S   UNL     1       9.573  12.440  19.239  0.00  0.00    +0.000 S 
ATOM     24  O   UNL     1       8.773  12.813  20.388  0.00  0.00    +0.000 OA
ATOM     25  O   UNL     1      10.860  13.043  18.964  0.00  0.00    +0.000 OA
ATOM     26  C   UNL     1       9.751  10.659  19.222  0.00  0.00    +0.000 C 
ENDBRANCH  17  20
ENDBRANCH  15  16
ENDBRANCH  14  15
ENDBRANCH   3  14
TORSDOF 4
ENDMDL
MODEL 6
REMARK VINA RESULT:      -7.5      4.896      8.830
REMARK  Name = 
REMARK  5 active torsions:
REMARK  status: ('A' for Active; 'I' for Inactive)
REMARK    1  A    between atoms: C_1  and  C_2
REMARK    2  A    between atoms: C_3  and  C_4
REMARK    3  A    between atoms: C_4  and  C_5
REMARK    4  A    between atoms: C_5  and  N_6
REMARK    5  A    between atoms: C_7  and  C_9
REMARK                            x       y       z     vdW  Elec       q    Type
REMARK                         _______ _______ _______ _____ _____    ______ ____
ROOT
ATOM      1  C   UNL     1       2.454   8.260  18.212  0.00  0.00    +0.000 C 
ATOM      2  C   UNL     1       2.488   6.975  18.961  0.00  0.00    +0.000 A 
ATOM      3  C   UNL     1       1.858   6.573  20.145  0.00  0.00    +0.000 A 
ATOM      4  C   UNL     1       2.233   5.203  20.381  0.00  0.00    +0.000 A 
ATOM      5  C   UNL     1       1.944   4.227  21.355  0.00  0.00    +0.000 A 
ATOM      6  C   UNL     1       2.506   2.943  21.227  0.00  0.00    +0.000 A 
ATOM      7  C   UNL     1       3.340   2.619  20.153  0.00  0.00    +0.000 A 
ATOM      8  C   UNL     1       3.650   3.572  19.182  0.00  0.00    +0.000 A 
ATOM      9  C   UNL     1       3.064   4.831  19.343  0.00  0.00    +0.000 A 
ATOM     10  N   UNL     1       3.215   5.904  18.506  0.00  0.00    +0.000 N 
ATOM     11  C   UNL     1       4.032   5.768  17.307  0.00  0.00    +0.000 C 
ATOM     12  C   UNL     1       5.090   4.655  17.456  0.00  0.00    +0.000 C 
ATOM     13  C   UNL     1       4.501   3.324  17.972  0.00  0.00    +0.000 C 
ENDROOT
BRANCH   3  14
ATOM     14  C   UNL     1       0.916   7.373  21.013  0.00  0.00    +0.000 C 
BRANCH  14  15
ATOM     15  C   UNL     1       1.529   8.724  21.392  0.00  0.00    +0.000 C 
BRANCH  15  16
ATOM     16  N   UNL     1       0.677   9.899  21.206  0.00  0.00    +0.000 N 
ATOM     17  C   UNL     1       0.031  10.372  22.332  0.00  0.00    +0.000 C 
ATOM     18  O   UNL     1       0.253   9.899  23.445  0.00  0.00    +0.000 OA
ATOM     19  H   UNL     1       0.278  10.078  20.293  0.00  0.00    +0.000 HD
BRANCH  17  20
ATOM     20  C   UNL     1      -0.991  11.482  22.143  0.00  0.00    +0.000 C 
ATOM     21  C   UNL     1      -1.971  11.475  23.337  0.00  0.00    +0.000 C 
ATOM     22  C   UNL     1      -2.746  12.775  23.296  0.00  0.00    +0.000 C 
ATOM     23  S   UNL     1      -1.527  13.993  22.853  0.00  0.00    +0.000 S 
ATOM     24  O   UNL     1      -0.949  14.533  24.066  0.00  0.00    +0.000 OA
ATOM     25  O   UNL     1      -2.085  14.839  21.819  0.00  0.00    +0.000 OA
ATOM     26  C   UNL     1      -0.349  12.868  22.110  0.00  0.00    +0.000 C 
ENDBRANCH  17  20
ENDBRANCH  15  16
ENDBRANCH  14  15
ENDBRANCH   3  14
TORSDOF 4
ENDMDL
MODEL 7
REMARK VINA RESULT:      -7.4      4.823      8.719
REMARK  Name = 
REMARK  5 active torsions:
REMARK  status: ('A' for Active; 'I' for Inactive)
REMARK    1  A    between atoms: C_1  and  C_2
REMARK    2  A    between atoms: C_3  and  C_4
REMARK    3  A    between atoms: C_4  and  C_5
REMARK    4  A    between atoms: C_5  and  N_6
REMARK    5  A    between atoms: C_7  and  C_9
REMARK                            x       y       z     vdW  Elec       q    Type
REMARK                         _______ _______ _______ _____ _____    ______ ____
ROOT
ATOM      1  C   UNL     1       2.418   8.427  18.168  0.00  0.00    +0.000 C 
ATOM      2  C   UNL     1       2.488   7.144  18.917  0.00  0.00    +0.000 A 
ATOM      3  C   UNL     1       1.833   6.706  20.074  0.00  0.00    +0.000 A 
ATOM      4  C   UNL     1       2.267   5.356  20.323  0.00  0.00    +0.000 A 
ATOM      5  C   UNL     1       1.990   4.364  21.284  0.00  0.00    +0.000 A 
ATOM      6  C   UNL     1       2.621   3.111  21.178  0.00  0.00    +0.000 A 
ATOM      7  C   UNL     1       3.513   2.833  20.137  0.00  0.00    +0.000 A 
ATOM      8  C   UNL     1       3.812   3.803  19.180  0.00  0.00    +0.000 A 
ATOM      9  C   UNL     1       3.157   5.030  19.319  0.00  0.00    +0.000 A 
ATOM     10  N   UNL     1       3.286   6.112  18.490  0.00  0.00    +0.000 N 
ATOM     11  C   UNL     1       4.156   6.022  17.324  0.00  0.00    +0.000 C 
ATOM     12  C   UNL     1       5.262   4.964  17.514  0.00  0.00    +0.000 C 
ATOM     13  C   UNL     1       4.722   3.603  18.004  0.00  0.00    +0.000 C 
ENDROOT
BRANCH   3  14
ATOM     14  C   UNL     1       0.818   7.455  20.905  0.00  0.00    +0.000 C 
BRANCH  14  15
ATOM     15  C   UNL     1       1.463   8.640  21.628  0.00  0.00    +0.000 C 
BRANCH  15  16
ATOM     16  N   UNL     1       0.910   9.962  21.331  0.00  0.00    +0.000 N 
ATOM     17  C   UNL     1       0.157  10.549  22.329  0.00  0.00    +0.000 C 
ATOM     18  O   UNL     1       0.056  10.038  23.442  0.00  0.00    +0.000 OA
ATOM     19  H   UNL     1       0.745  10.220  20.367  0.00  0.00    +0.000 HD
BRANCH  17  20
ATOM     20  C   UNL     1      -0.571  11.842  21.993  0.00  0.00    +0.000 C 
ATOM     21  C   UNL     1      -1.339  11.659  20.665  0.00  0.00    +0.000 C 
ATOM     22  C   UNL     1      -2.306  12.817  20.537  0.00  0.00    +0.000 C 
ATOM     23  S   UNL     1      -2.948  13.030  22.183  0.00  0.00    +0.000 S 
ATOM     24  O   UNL     1      -4.142  12.222  22.323  0.00  0.00    +0.000 OA
ATOM     25  O   UNL     1      -2.928  14.442  22.500  0.00  0.00    +0.000 OA
ATOM     26  C   UNL     1      -1.607  12.221  23.051  0.00  0.00    +0.000 C 
ENDBRANCH  17  20
ENDBRANCH  15  16
ENDBRANCH  14  15
ENDBRANCH   3  14
TORSDOF 4
ENDMDL
MODEL 8
REMARK VINA RESULT:      -7.4      4.414      8.425
REMARK  Name = 
REMARK  5 active torsions:
REMARK  status: ('A' for Active; 'I' for Inactive)
REMARK    1  A    between atoms: C_1  and  C_2
REMARK    2  A    between atoms: C_3  and  C_4
REMARK    3  A    between atoms: C_4  and  C_5
REMARK    4  A    between atoms: C_5  and  N_6
REMARK    5  A    between atoms: C_7  and  C_9
REMARK                            x       y       z     vdW  Elec       q    Type
REMARK                         _______ _______ _______ _____ _____    ______ ____
ROOT
ATOM      1  C   UNL     1       1.447   7.412  20.843  0.00  0.00    +0.000 C 
ATOM      2  C   UNL     1       2.109   6.545  19.832  0.00  0.00    +0.000 A 
ATOM      3  C   UNL     1       2.801   6.852  18.654  0.00  0.00    +0.000 A 
ATOM      4  C   UNL     1       3.255   5.607  18.091  0.00  0.00    +0.000 A 
ATOM      5  C   UNL     1       3.999   5.219  16.960  0.00  0.00    +0.000 A 
ATOM      6  C   UNL     1       4.266   3.853  16.750  0.00  0.00    +0.000 A 
ATOM      7  C   UNL     1       3.811   2.878  17.644  0.00  0.00    +0.000 A 
ATOM      8  C   UNL     1       3.063   3.238  18.766  0.00  0.00    +0.000 A 
ATOM      9  C   UNL     1       2.827   4.605  18.939  0.00  0.00    +0.000 A 
ATOM     10  N   UNL     1       2.136   5.180  19.971  0.00  0.00    +0.000 N 
ATOM     11  C   UNL     1       1.594   4.336  21.029  0.00  0.00    +0.000 C 
ATOM     12  C   UNL     1       1.344   2.894  20.541  0.00  0.00    +0.000 C 
ATOM     13  C   UNL     1       2.557   2.284  19.806  0.00  0.00    +0.000 C 
ENDROOT
BRANCH   3  14
ATOM     14  C   UNL     1       3.086   8.218  18.075  0.00  0.00    +0.000 C 
BRANCH  14  15
ATOM     15  C   UNL     1       1.787   8.957  17.742  0.00  0.00    +0.000 C 
BRANCH  15  16
ATOM     16  N   UNL     1       1.795  10.406  17.944  0.00  0.00    +0.000 N 
ATOM     17  C   UNL     1       0.911  10.899  18.885  0.00  0.00    +0.000 C 
ATOM     18  O   UNL     1       0.240  10.148  19.591  0.00  0.00    +0.000 OA
ATOM     19  H   UNL     1       2.102  11.007  17.189  0.00  0.00    +0.000 HD
BRANCH  17  20
ATOM     20  C   UNL     1       0.772  12.410  18.997  0.00  0.00    +0.000 C 
ATOM     21  C   UNL     1      -0.562  12.743  19.701  0.00  0.00    +0.000 C 
ATOM     22  C   UNL     1      -0.513  14.203  20.097  0.00  0.00    +0.000 C 
ATOM     23  S   UNL     1       1.152  14.439  20.681  0.00  0.00    +0.000 S 
ATOM     24  O   UNL     1       1.182  14.189  22.108  0.00  0.00    +0.000 OA
ATOM     25  O   UNL     1       1.670  15.658  20.098  0.00  0.00    +0.000 OA
ATOM     26  C   UNL     1       1.882  13.037  19.840  0.00  0.00    +0.000 C 
ENDBRANCH  17  20
ENDBRANCH  15  16
ENDBRANCH  14  15
ENDBRANCH   3  14
TORSDOF 4
ENDMDL
MODEL 9
REMARK VINA RESULT:      -7.4      3.978      7.978
REMARK  Name = 
REMARK  5 active torsions:
REMARK  status: ('A' for Active; 'I' for Inactive)
REMARK    1  A    between atoms: C_1  and  C_2
REMARK    2  A    between atoms: C_3  and  C_4
REMARK    3  A    between atoms: C_4  and  C_5
REMARK    4  A    between atoms: C_5  and  N_6
REMARK    5  A    between atoms: C_7  and  C_9
REMARK                            x       y       z     vdW  Elec       q    Type
REMARK                         _______ _______ _______ _____ _____    ______ ____
ROOT
ATOM      1  C   UNL     1       5.039   5.070  16.109  0.00  0.00    +0.000 C 
ATOM      2  C   UNL     1       4.107   5.090  17.268  0.00  0.00    +0.000 A 
ATOM      3  C   UNL     1       3.570   6.149  18.010  0.00  0.00    +0.000 A 
ATOM      4  C   UNL     1       2.696   5.574  19.000  0.00  0.00    +0.000 A 
ATOM      5  C   UNL     1       1.860   6.066  20.021  0.00  0.00    +0.000 A 
ATOM      6  C   UNL     1       1.118   5.156  20.797  0.00  0.00    +0.000 A 
ATOM      7  C   UNL     1       1.193   3.778  20.571  0.00  0.00    +0.000 A 
ATOM      8  C   UNL     1       2.023   3.267  19.573  0.00  0.00    +0.000 A 
ATOM      9  C   UNL     1       2.736   4.205  18.821  0.00  0.00    +0.000 A 
ATOM     10  N   UNL     1       3.590   3.930  17.788  0.00  0.00    +0.000 N 
ATOM     11  C   UNL     1       3.794   2.547  17.374  0.00  0.00    +0.000 C 
ATOM     12  C   UNL     1       3.506   1.557  18.522  0.00  0.00    +0.000 C 
ATOM     13  C   UNL     1       2.153   1.815  19.220  0.00  0.00    +0.000 C 
ENDROOT
BRANCH   3  14
ATOM     14  C   UNL     1       3.796   7.629  17.812  0.00  0.00    +0.000 C 
BRANCH  14  15
ATOM     15  C   UNL     1       2.481   8.351  17.505  0.00  0.00    +0.000 C 
BRANCH  15  16
ATOM     16  N   UNL     1       2.062   9.373  18.465  0.00  0.00    +0.000 N 
ATOM     17  C   UNL     1       0.773   9.852  18.325  0.00  0.00    +0.000 C 
ATOM     18  O   UNL     1      -0.009   9.363  17.513  0.00  0.00    +0.000 OA
ATOM     19  H   UNL     1       2.764   9.957  18.900  0.00  0.00    +0.000 HD
BRANCH  17  20
ATOM     20  C   UNL     1       0.363  11.031  19.194  0.00  0.00    +0.000 C 
ATOM     21  C   UNL     1      -1.177  11.065  19.305  0.00  0.00    +0.000 C 
ATOM     22  C   UNL     1      -1.531  12.018  20.427  0.00  0.00    +0.000 C 
ATOM     23  S   UNL     1      -0.323  11.671  21.688  0.00  0.00    +0.000 S 
ATOM     24  O   UNL     1      -0.853  10.650  22.568  0.00  0.00    +0.000 OA
ATOM     25  O   UNL     1       0.191  12.930  22.184  0.00  0.00    +0.000 OA
ATOM     26  C   UNL     1       0.904  10.923  20.620  0.00  0.00    +0.000 C 
ENDBRANCH  17  20
ENDBRANCH  15  16
ENDBRANCH  14  15
ENDBRANCH   3  14
TORSDOF 4
ENDMDL
