MODEL 1
REMARK VINA RESULT:      -5.7      0.000      0.000
REMARK  Name = 
REMARK  3 active torsions:
REMARK  status: ('A' for Active; 'I' for Inactive)
REMARK    1  A    between atoms: C_5  and  C_6
REMARK    2  A    between atoms: C_6  and  C_7
REMARK    3  A    between atoms: C_7  and  C_8
REMARK                            x       y       z     vdW  Elec       q    Type
REMARK                         _______ _______ _______ _____ _____    ______ ____
ROOT
ATOM      1  C   UNL     1       3.894   5.706  17.692  0.00  0.00    +0.000 C 
ENDROOT
BRANCH   1   6
ATOM      2  C   UNL     1       7.540   6.800  17.824  0.00  0.00    +0.000 A 
ATOM      3  C   UNL     1       7.918   6.146  18.985  0.00  0.00    +0.000 A 
ATOM      4  N   UNL     1       7.088   5.373  19.714  0.00  0.00    +0.000 NA
ATOM      5  C   UNL     1       5.817   5.256  19.266  0.00  0.00    +0.000 A 
ATOM      6  C   UNL     1       5.331   5.866  18.112  0.00  0.00    +0.000 A 
ATOM      7  C   UNL     1       6.225   6.657  17.386  0.00  0.00    +0.000 A 
ENDBRANCH   1   6
BRANCH   1   8
ATOM      8  C   UNL     1       3.594   4.329  17.102  0.00  0.00    +0.000 C 
BRANCH   8   9
ATOM      9  C   UNL     1       2.619   3.578  17.968  0.00  0.00    +0.000 C 
ATOM     10  N   UNL     1       1.345   3.515  17.674  0.00  0.00    +0.000 NA
ATOM     11  C   UNL     1       0.767   2.666  18.757  0.00  0.00    +0.000 C 
ATOM     12  C   UNL     1       1.955   1.985  19.443  0.00  0.00    +0.000 C 
ATOM     13  N   UNL     1       3.028   2.880  19.076  0.00  0.00    +0.000 N 
ATOM     14  H   UNL     1       3.973   2.514  19.084  0.00  0.00    +0.000 HD
ENDBRANCH   8   9
ENDBRANCH   1   8
TORSDOF 3
ENDMDL
MODEL 2
REMARK VINA RESULT:      -5.7      1.063      1.175
REMARK  Name = 
REMARK  3 active torsions:
REMARK  status: ('A' for Active; 'I' for Inactive)
REMARK    1  A    between atoms: C_5  and  C_6
REMARK    2  A    between atoms: C_6  and  C_7
REMARK    3  A    between atoms: C_7  and  C_8
REMARK                            x       y       z     vdW  Elec       q    Type
REMARK                         _______ _______ _______ _____ _____    ______ ____
ROOT
ATOM      1  C   UNL     1       3.712   5.593  17.597  0.00  0.00    +0.000 C 
ENDROOT
BRANCH   1   6
ATOM      2  C   UNL     1       7.353   6.703  17.744  0.00  0.00    +0.000 A 
ATOM      3  C   UNL     1       7.722   6.074  18.921  0.00  0.00    +0.000 A 
ATOM      4  N   UNL     1       6.887   5.313  19.658  0.00  0.00    +0.000 NA
ATOM      5  C   UNL     1       5.620   5.182  19.199  0.00  0.00    +0.000 A 
ATOM      6  C   UNL     1       5.145   5.767  18.028  0.00  0.00    +0.000 A 
ATOM      7  C   UNL     1       6.044   6.547  17.295  0.00  0.00    +0.000 A 
ENDBRANCH   1   6
BRANCH   1   8
ATOM      8  C   UNL     1       2.714   5.861  18.721  0.00  0.00    +0.000 C 
BRANCH   8   9
ATOM      9  C   UNL     1       1.929   4.618  19.045  0.00  0.00    +0.000 C 
ATOM     10  N   UNL     1       1.695   3.698  18.144  0.00  0.00    +0.000 NA
ATOM     11  C   UNL     1       0.929   2.654  18.886  0.00  0.00    +0.000 C 
ATOM     12  C   UNL     1       1.115   2.968  20.374  0.00  0.00    +0.000 C 
ATOM     13  N   UNL     1       1.469   4.367  20.313  0.00  0.00    +0.000 N 
ATOM     14  H   UNL     1       1.986   4.759  21.092  0.00  0.00    +0.000 HD
ENDBRANCH   8   9
ENDBRANCH   1   8
TORSDOF 3
ENDMDL
MODEL 3
REMARK VINA RESULT:      -5.7      1.870      5.304
REMARK  Name = 
REMARK  3 active torsions:
REMARK  status: ('A' for Active; 'I' for Inactive)
REMARK    1  A    between atoms: C_5  and  C_6
REMARK    2  A    between atoms: C_6  and  C_7
REMARK    3  A    between atoms: C_7  and  C_8
REMARK                            x       y       z     vdW  Elec       q    Type
REMARK                         _______ _______ _______ _____ _____    ______ ____
ROOT
ATOM      1  C   UNL     1       3.873   2.914  17.844  0.00  0.00    +0.000 C 
ENDROOT
BRANCH   1   6
ATOM      2  C   UNL     1       0.857   3.389  20.122  0.00  0.00    +0.000 A 
ATOM      3  C   UNL     1       1.434   3.016  21.324  0.00  0.00    +0.000 A 
ATOM      4  N   UNL     1       2.723   2.637  21.450  0.00  0.00    +0.000 NA
ATOM      5  C   UNL     1       3.465   2.622  20.320  0.00  0.00    +0.000 A 
ATOM      6  C   UNL     1       2.988   2.980  19.061  0.00  0.00    +0.000 A 
ATOM      7  C   UNL     1       1.648   3.367  18.975  0.00  0.00    +0.000 A 
ENDBRANCH   1   6
BRANCH   1   8
ATOM      8  C   UNL     1       4.018   4.261  17.138  0.00  0.00    +0.000 C 
BRANCH   8   9
ATOM      9  C   UNL     1       5.419   4.792  17.282  0.00  0.00    +0.000 C 
ATOM     10  N   UNL     1       5.772   5.946  16.776  0.00  0.00    +0.000 NA
ATOM     11  C   UNL     1       7.204   6.089  17.172  0.00  0.00    +0.000 C 
ATOM     12  C   UNL     1       7.450   5.044  18.264  0.00  0.00    +0.000 C 
ATOM     13  N   UNL     1       6.375   4.116  17.997  0.00  0.00    +0.000 N 
ATOM     14  H   UNL     1       6.067   3.518  18.755  0.00  0.00    +0.000 HD
ENDBRANCH   8   9
ENDBRANCH   1   8
TORSDOF 3
ENDMDL
MODEL 4
REMARK VINA RESULT:      -5.7      2.113      2.791
REMARK  Name = 
REMARK  3 active torsions:
REMARK  status: ('A' for Active; 'I' for Inactive)
REMARK    1  A    between atoms: C_5  and  C_6
REMARK    2  A    between atoms: C_6  and  C_7
REMARK    3  A    between atoms: C_7  and  C_8
REMARK                            x       y       z     vdW  Elec       q    Type
REMARK                         _______ _______ _______ _____ _____    ______ ____
ROOT
ATOM      1  C   UNL     1       4.336   5.980  17.887  0.00  0.00    +0.000 C 
ENDROOT
BRANCH   1   6
ATOM      2  C   UNL     1       5.835   4.167  14.890  0.00  0.00    +0.000 A 
ATOM      3  C   UNL     1       7.060   4.811  14.840  0.00  0.00    +0.000 A 
ATOM      4  N   UNL     1       7.437   5.773  15.708  0.00  0.00    +0.000 NA
ATOM      5  C   UNL     1       6.542   6.112  16.664  0.00  0.00    +0.000 A 
ATOM      6  C   UNL     1       5.286   5.529  16.808  0.00  0.00    +0.000 A 
ATOM      7  C   UNL     1       4.936   4.536  15.889  0.00  0.00    +0.000 A 
ENDBRANCH   1   6
BRANCH   1   8
ATOM      8  C   UNL     1       4.663   5.388  19.256  0.00  0.00    +0.000 C 
BRANCH   8   9
ATOM      9  C   UNL     1       4.055   4.020  19.405  0.00  0.00    +0.000 C 
ATOM     10  N   UNL     1       2.762   3.851  19.520  0.00  0.00    +0.000 NA
ATOM     11  C   UNL     1       2.599   2.370  19.612  0.00  0.00    +0.000 C 
ATOM     12  C   UNL     1       3.931   1.767  19.155  0.00  0.00    +0.000 C 
ATOM     13  N   UNL     1       4.822   2.883  19.373  0.00  0.00    +0.000 N 
ATOM     14  H   UNL     1       5.687   2.908  18.845  0.00  0.00    +0.000 HD
ENDBRANCH   8   9
ENDBRANCH   1   8
TORSDOF 3
ENDMDL
MODEL 5
REMARK VINA RESULT:      -5.6      1.734      2.026
REMARK  Name = 
REMARK  3 active torsions:
REMARK  status: ('A' for Active; 'I' for Inactive)
REMARK    1  A    between atoms: C_5  and  C_6
REMARK    2  A    between atoms: C_6  and  C_7
REMARK    3  A    between atoms: C_7  and  C_8
REMARK                            x       y       z     vdW  Elec       q    Type
REMARK                         _______ _______ _______ _____ _____    ______ ____
ROOT
ATOM      1  C   UNL     1       3.408   3.732  17.000  0.00  0.00    +0.000 C 
ENDROOT
BRANCH   1   6
ATOM      2  C   UNL     1       7.071   4.460  16.250  0.00  0.00    +0.000 A 
ATOM      3  C   UNL     1       7.520   4.659  17.544  0.00  0.00    +0.000 A 
ATOM      4  N   UNL     1       6.731   4.562  18.634  0.00  0.00    +0.000 NA
ATOM      5  C   UNL     1       5.430   4.262  18.417  0.00  0.00    +0.000 A 
ATOM      6  C   UNL     1       4.874   4.039  17.160  0.00  0.00    +0.000 A 
ATOM      7  C   UNL     1       5.727   4.148  16.059  0.00  0.00    +0.000 A 
ENDBRANCH   1   6
BRANCH   1   8
ATOM      8  C   UNL     1       2.949   2.550  17.852  0.00  0.00    +0.000 C 
BRANCH   8   9
ATOM      9  C   UNL     1       2.258   3.029  19.101  0.00  0.00    +0.000 C 
ATOM     10  N   UNL     1       1.429   4.041  19.083  0.00  0.00    +0.000 NA
ATOM     11  C   UNL     1       0.963   4.150  20.497  0.00  0.00    +0.000 C 
ATOM     12  C   UNL     1       1.362   2.837  21.178  0.00  0.00    +0.000 C 
ATOM     13  N   UNL     1       2.424   2.392  20.305  0.00  0.00    +0.000 N 
ATOM     14  H   UNL     1       2.642   1.402  20.292  0.00  0.00    +0.000 HD
ENDBRANCH   8   9
ENDBRANCH   1   8
TORSDOF 3
ENDMDL
MODEL 6
REMARK VINA RESULT:      -5.6      2.182      5.343
REMARK  Name = 
REMARK  3 active torsions:
REMARK  status: ('A' for Active; 'I' for Inactive)
REMARK    1  A    between atoms: C_5  and  C_6
REMARK    2  A    between atoms: C_6  and  C_7
REMARK    3  A    between atoms: C_7  and  C_8
REMARK                            x       y       z     vdW  Elec       q    Type
REMARK                         _______ _______ _______ _____ _____    ______ ____
ROOT
ATOM      1  C   UNL     1       3.365   2.870  17.729  0.00  0.00    +0.000 C 
ENDROOT
BRANCH   1   6
ATOM      2  C   UNL     1       0.922   3.145  20.639  0.00  0.00    +0.000 A 
ATOM      3  C   UNL     1       1.784   2.826  21.674  0.00  0.00    +0.000 A 
ATOM      4  N   UNL     1       3.091   2.542  21.500  0.00  0.00    +0.000 NA
ATOM      5  C   UNL     1       3.555   2.571  20.230  0.00  0.00    +0.000 A 
ATOM      6  C   UNL     1       2.779   2.883  19.117  0.00  0.00    +0.000 A 
ATOM      7  C   UNL     1       1.430   3.171  19.342  0.00  0.00    +0.000 A 
ENDBRANCH   1   6
BRANCH   1   8
ATOM      8  C   UNL     1       3.621   4.271  17.177  0.00  0.00    +0.000 C 
BRANCH   8   9
ATOM      9  C   UNL     1       5.092   4.496  16.951  0.00  0.00    +0.000 C 
ATOM     10  N   UNL     1       5.961   4.385  17.923  0.00  0.00    +0.000 NA
ATOM     11  C   UNL     1       7.274   4.654  17.265  0.00  0.00    +0.000 C 
ATOM     12  C   UNL     1       7.022   4.550  15.757  0.00  0.00    +0.000 C 
ATOM     13  N   UNL     1       5.595   4.774  15.706  0.00  0.00    +0.000 N 
ATOM     14  H   UNL     1       5.090   4.423  14.900  0.00  0.00    +0.000 HD
ENDBRANCH   8   9
ENDBRANCH   1   8
TORSDOF 3
ENDMDL
MODEL 7
REMARK VINA RESULT:      -5.6      2.220      5.326
REMARK  Name = 
REMARK  3 active torsions:
REMARK  status: ('A' for Active; 'I' for Inactive)
REMARK    1  A    between atoms: C_5  and  C_6
REMARK    2  A    between atoms: C_6  and  C_7
REMARK    3  A    between atoms: C_7  and  C_8
REMARK                            x       y       z     vdW  Elec       q    Type
REMARK                         _______ _______ _______ _____ _____    ______ ____
ROOT
ATOM      1  C   UNL     1       3.063   6.046  17.995  0.00  0.00    +0.000 C 
ENDROOT
BRANCH   1   6
ATOM      2  C   UNL     1       1.145   3.886  20.478  0.00  0.00    +0.000 A 
ATOM      3  C   UNL     1       0.729   2.886  19.616  0.00  0.00    +0.000 A 
ATOM      4  N   UNL     1       1.033   2.854  18.303  0.00  0.00    +0.000 NA
ATOM      5  C   UNL     1       1.781   3.877  17.828  0.00  0.00    +0.000 A 
ATOM      6  C   UNL     1       2.255   4.931  18.605  0.00  0.00    +0.000 A 
ATOM      7  C   UNL     1       1.918   4.924  19.961  0.00  0.00    +0.000 A 
ENDBRANCH   1   6
BRANCH   1   8
ATOM      8  C   UNL     1       4.564   5.897  18.237  0.00  0.00    +0.000 C 
BRANCH   8   9
ATOM      9  C   UNL     1       5.252   5.365  17.009  0.00  0.00    +0.000 C 
ATOM     10  N   UNL     1       5.192   5.991  15.861  0.00  0.00    +0.000 NA
ATOM     11  C   UNL     1       6.020   5.149  14.948  0.00  0.00    +0.000 C 
ATOM     12  C   UNL     1       6.827   4.211  15.851  0.00  0.00    +0.000 C 
ATOM     13  N   UNL     1       6.020   4.228  17.049  0.00  0.00    +0.000 N 
ATOM     14  H   UNL     1       6.469   3.989  17.925  0.00  0.00    +0.000 HD
ENDBRANCH   8   9
ENDBRANCH   1   8
TORSDOF 3
ENDMDL
MODEL 8
REMARK VINA RESULT:      -5.5      1.510      5.444
REMARK  Name = 
REMARK  3 active torsions:
REMARK  status: ('A' for Active; 'I' for Inactive)
REMARK    1  A    between atoms: C_5  and  C_6
REMARK    2  A    between atoms: C_6  and  C_7
REMARK    3  A    between atoms: C_7  and  C_8
REMARK                            x       y       z     vdW  Elec       q    Type
REMARK                         _______ _______ _______ _____ _____    ______ ____
ROOT
ATOM      1  C   UNL     1       3.344   5.339  17.738  0.00  0.00    +0.000 C 
ENDROOT
BRANCH   1   6
ATOM      2  C   UNL     1       0.931   2.831  19.287  0.00  0.00    +0.000 A 
ATOM      3  C   UNL     1       1.170   3.100  20.624  0.00  0.00    +0.000 A 
ATOM      4  N   UNL     1       2.040   4.037  21.056  0.00  0.00    +0.000 NA
ATOM      5  C   UNL     1       2.708   4.729  20.105  0.00  0.00    +0.000 A 
ATOM      6  C   UNL     1       2.543   4.543  18.735  0.00  0.00    +0.000 A 
ATOM      7  C   UNL     1       1.632   3.563  18.331  0.00  0.00    +0.000 A 
ENDBRANCH   1   6
BRANCH   1   8
ATOM      8  C   UNL     1       4.635   4.641  17.316  0.00  0.00    +0.000 C 
BRANCH   8   9
ATOM      9  C   UNL     1       5.833   5.323  17.921  0.00  0.00    +0.000 C 
ATOM     10  N   UNL     1       6.558   4.746  18.845  0.00  0.00    +0.000 NA
ATOM     11  C   UNL     1       7.635   5.740  19.131  0.00  0.00    +0.000 C 
ATOM     12  C   UNL     1       7.600   6.747  17.977  0.00  0.00    +0.000 C 
ATOM     13  N   UNL     1       6.251   6.558  17.494  0.00  0.00    +0.000 N 
ATOM     14  H   UNL     1       6.050   6.821  16.536  0.00  0.00    +0.000 HD
ENDBRANCH   8   9
ENDBRANCH   1   8
TORSDOF 3
ENDMDL
MODEL 9
REMARK VINA RESULT:      -5.5      2.283      2.845
REMARK  Name = 
REMARK  3 active torsions:
REMARK  status: ('A' for Active; 'I' for Inactive)
REMARK    1  A    between atoms: C_5  and  C_6
REMARK    2  A    between atoms: C_6  and  C_7
REMARK    3  A    between atoms: C_7  and  C_8
REMARK                            x       y       z     vdW  Elec       q    Type
REMARK                         _______ _______ _______ _____ _____    ______ ____
ROOT
ATOM      1  C   UNL     1       5.169   5.306  18.655  0.00  0.00    +0.000 C 
ENDROOT
BRANCH   1   6
ATOM      2  C   UNL     1       5.541   4.257  15.011  0.00  0.00    +0.000 A 
ATOM      3  C   UNL     1       6.766   4.843  14.743  0.00  0.00    +0.000 A 
ATOM      4  N   UNL     1       7.480   5.537  15.653  0.00  0.00    +0.000 NA
ATOM      5  C   UNL     1       6.938   5.657  16.887  0.00  0.00    +0.000 A 
ATOM      6  C   UNL     1       5.717   5.106  17.266  0.00  0.00    +0.000 A 
ATOM      7  C   UNL     1       5.010   4.394  16.292  0.00  0.00    +0.000 A 
ENDBRANCH   1   6
BRANCH   1   8
ATOM      8  C   UNL     1       3.801   5.986  18.665  0.00  0.00    +0.000 C 
BRANCH   8   9
ATOM      9  C   UNL     1       2.790   5.140  19.392  0.00  0.00    +0.000 C 
ATOM     10  N   UNL     1       2.069   4.244  18.769  0.00  0.00    +0.000 NA
ATOM     11  C   UNL     1       1.241   3.632  19.851  0.00  0.00    +0.000 C 
ATOM     12  C   UNL     1       1.887   4.059  21.172  0.00  0.00    +0.000 C 
ATOM     13  N   UNL     1       2.617   5.232  20.750  0.00  0.00    +0.000 N 
ATOM     14  H   UNL     1       3.409   5.525  21.310  0.00  0.00    +0.000 HD
ENDBRANCH   8   9
ENDBRANCH   1   8
TORSDOF 3
ENDMDL
