MODEL 1
REMARK VINA RESULT:      -7.3      0.000      0.000
REMARK  Name = 
REMARK  1 active torsions:
REMARK  status: ('A' for Active; 'I' for Inactive)
REMARK    1  A    between atoms: C_18  and  N_19
REMARK                            x       y       z     vdW  Elec       q    Type
REMARK                         _______ _______ _______ _____ _____    ______ ____
ROOT
ATOM      1  O   UNL     1      -4.324  13.303  21.250  0.00  0.00    +0.000 OA
ATOM      2  C   UNL     1      -4.384  12.833  20.119  0.00  0.00    +0.000 C 
ATOM      3  C   UNL     1      -5.602  13.033  19.312  0.00  0.00    +0.000 A 
ATOM      4  C   UNL     1      -6.680  13.760  19.822  0.00  0.00    +0.000 A 
ATOM      5  C   UNL     1      -7.815  13.923  19.039  0.00  0.00    +0.000 A 
ATOM      6  C   UNL     1      -7.824  13.353  17.778  0.00  0.00    +0.000 A 
ATOM      7  N   UNL     1      -6.791  12.648  17.261  0.00  0.00    +0.000 NA
ATOM      8  C   UNL     1      -5.680  12.489  18.032  0.00  0.00    +0.000 A 
ATOM      9  C   UNL     1      -4.545  11.720  17.481  0.00  0.00    +0.000 A 
ATOM     10  N   UNL     1      -4.670  11.211  16.230  0.00  0.00    +0.000 NA
ATOM     11  C   UNL     1      -3.635  10.512  15.732  0.00  0.00    +0.000 A 
ATOM     12  C   UNL     1      -2.456  10.289  16.426  0.00  0.00    +0.000 A 
ATOM     13  C   UNL     1      -2.294  10.807  17.730  0.00  0.00    +0.000 A 
ATOM     14  C   UNL     1      -3.383  11.536  18.246  0.00  0.00    +0.000 A 
ATOM     15  C   UNL     1      -3.264  12.053  19.525  0.00  0.00    +0.000 A 
ATOM     16  N   UNL     1      -2.171  11.898  20.307  0.00  0.00    +0.000 NA
ATOM     17  C   UNL     1      -1.108  11.224  19.837  0.00  0.00    +0.000 A 
ATOM     18  C   UNL     1       0.044  11.057  20.610  0.00  0.00    +0.000 A 
ATOM     19  C   UNL     1       1.173  10.342  20.188  0.00  0.00    +0.000 A 
ATOM     20  C   UNL     1       1.160   9.773  18.928  0.00  0.00    +0.000 A 
ATOM     21  C   UNL     1       0.033   9.924  18.120  0.00  0.00    +0.000 A 
ATOM     22  C   UNL     1      -1.118  10.642  18.543  0.00  0.00    +0.000 A 
ENDROOT
BRANCH  18  23
ATOM     23  N   UNL     1       0.098  11.648  21.930  0.00  0.00    +0.000 N 
ATOM     24  O   UNL     1      -0.232  10.940  22.890  0.00  0.00    +0.000 OA
ATOM     25  O   UNL     1       0.367  12.859  21.985  0.00  0.00    +0.000 OA
ENDBRANCH  18  23
TORSDOF 1
ENDMDL
MODEL 2
REMARK VINA RESULT:      -7.3      4.752      6.214
REMARK  Name = 
REMARK  1 active torsions:
REMARK  status: ('A' for Active; 'I' for Inactive)
REMARK    1  A    between atoms: C_18  and  N_19
REMARK                            x       y       z     vdW  Elec       q    Type
REMARK                         _______ _______ _______ _____ _____    ______ ____
ROOT
ATOM      1  O   UNL     1      -0.551   8.323  22.776  0.00  0.00    +0.000 OA
ATOM      2  C   UNL     1      -0.147   9.132  21.947  0.00  0.00    +0.000 C 
ATOM      3  C   UNL     1      -0.537  10.549  22.064  0.00  0.00    +0.000 A 
ATOM      4  C   UNL     1      -1.354  10.976  23.113  0.00  0.00    +0.000 A 
ATOM      5  C   UNL     1      -1.710  12.316  23.189  0.00  0.00    +0.000 A 
ATOM      6  C   UNL     1      -1.233  13.173  22.213  0.00  0.00    +0.000 A 
ATOM      7  N   UNL     1      -0.438  12.783  21.189  0.00  0.00    +0.000 NA
ATOM      8  C   UNL     1      -0.092  11.469  21.117  0.00  0.00    +0.000 A 
ATOM      9  C   UNL     1       0.774  11.029  20.004  0.00  0.00    +0.000 A 
ATOM     10  N   UNL     1       1.181  11.962  19.107  0.00  0.00    +0.000 NA
ATOM     11  C   UNL     1       1.969  11.558  18.096  0.00  0.00    +0.000 A 
ATOM     12  C   UNL     1       2.385  10.247  17.925  0.00  0.00    +0.000 A 
ATOM     13  C   UNL     1       1.978   9.251  18.841  0.00  0.00    +0.000 A 
ATOM     14  C   UNL     1       1.152   9.682  19.896  0.00  0.00    +0.000 A 
ATOM     15  C   UNL     1       0.727   8.732  20.811  0.00  0.00    +0.000 A 
ATOM     16  N   UNL     1       1.055   7.421  20.749  0.00  0.00    +0.000 NA
ATOM     17  C   UNL     1       1.858   6.982  19.766  0.00  0.00    +0.000 A 
ATOM     18  C   UNL     1       2.230   5.638  19.679  0.00  0.00    +0.000 A 
ATOM     19  C   UNL     1       3.041   5.114  18.663  0.00  0.00    +0.000 A 
ATOM     20  C   UNL     1       3.515   5.973  17.688  0.00  0.00    +0.000 A 
ATOM     21  C   UNL     1       3.174   7.325  17.743  0.00  0.00    +0.000 A 
ATOM     22  C   UNL     1       2.348   7.863  18.767  0.00  0.00    +0.000 A 
ENDROOT
BRANCH  18  23
ATOM     23  N   UNL     1       1.763   4.711  20.688  0.00  0.00    +0.000 N 
ATOM     24  O   UNL     1       2.505   4.494  21.655  0.00  0.00    +0.000 OA
ATOM     25  O   UNL     1       0.699   4.120  20.448  0.00  0.00    +0.000 OA
ENDBRANCH  18  23
TORSDOF 1
ENDMDL
MODEL 3
REMARK VINA RESULT:      -7.1      2.771      5.627
REMARK  Name = 
REMARK  1 active torsions:
REMARK  status: ('A' for Active; 'I' for Inactive)
REMARK    1  A    between atoms: C_18  and  N_19
REMARK                            x       y       z     vdW  Elec       q    Type
REMARK                         _______ _______ _______ _____ _____    ______ ____
ROOT
ATOM      1  O   UNL     1      -4.962  14.129  21.546  0.00  0.00    +0.000 OA
ATOM      2  C   UNL     1      -3.795  13.759  21.613  0.00  0.00    +0.000 C 
ATOM      3  C   UNL     1      -2.955  14.196  22.744  0.00  0.00    +0.000 A 
ATOM      4  C   UNL     1      -3.482  15.021  23.740  0.00  0.00    +0.000 A 
ATOM      5  C   UNL     1      -2.662  15.422  24.787  0.00  0.00    +0.000 A 
ATOM      6  C   UNL     1      -1.351  14.981  24.793  0.00  0.00    +0.000 A 
ATOM      7  N   UNL     1      -0.819  14.180  23.841  0.00  0.00    +0.000 NA
ATOM      8  C   UNL     1      -1.625  13.789  22.816  0.00  0.00    +0.000 A 
ATOM      9  C   UNL     1      -1.058  12.916  21.768  0.00  0.00    +0.000 A 
ATOM     10  N   UNL     1       0.242  12.546  21.883  0.00  0.00    +0.000 NA
ATOM     11  C   UNL     1       0.755  11.751  20.928  0.00  0.00    +0.000 A 
ATOM     12  C   UNL     1       0.027  11.292  19.842  0.00  0.00    +0.000 A 
ATOM     13  C   UNL     1      -1.329  11.658  19.693  0.00  0.00    +0.000 A 
ATOM     14  C   UNL     1      -1.858  12.492  20.696  0.00  0.00    +0.000 A 
ATOM     15  C   UNL     1      -3.183  12.878  20.580  0.00  0.00    +0.000 A 
ATOM     16  N   UNL     1      -3.995  12.505  19.564  0.00  0.00    +0.000 NA
ATOM     17  C   UNL     1      -3.526  11.694  18.601  0.00  0.00    +0.000 A 
ATOM     18  C   UNL     1      -4.340  11.276  17.546  0.00  0.00    +0.000 A 
ATOM     19  C   UNL     1      -3.902  10.454  16.497  0.00  0.00    +0.000 A 
ATOM     20  C   UNL     1      -2.591  10.016  16.506  0.00  0.00    +0.000 A 
ATOM     21  C   UNL     1      -1.747  10.403  17.549  0.00  0.00    +0.000 A 
ATOM     22  C   UNL     1      -2.182  11.241  18.611  0.00  0.00    +0.000 A 
ENDROOT
BRANCH  18  23
ATOM     23  N   UNL     1      -5.722  11.705  17.508  0.00  0.00    +0.000 N 
ATOM     24  O   UNL     1      -6.568  10.956  18.013  0.00  0.00    +0.000 OA
ATOM     25  O   UNL     1      -5.963  12.743  16.873  0.00  0.00    +0.000 OA
ENDBRANCH  18  23
TORSDOF 1
ENDMDL
MODEL 4
REMARK VINA RESULT:      -6.9      5.370      9.535
REMARK  Name = 
REMARK  1 active torsions:
REMARK  status: ('A' for Active; 'I' for Inactive)
REMARK    1  A    between atoms: C_18  and  N_19
REMARK                            x       y       z     vdW  Elec       q    Type
REMARK                         _______ _______ _______ _____ _____    ______ ____
ROOT
ATOM      1  O   UNL     1       3.796   8.198  16.436  0.00  0.00    +0.000 OA
ATOM      2  C   UNL     1       3.687   7.231  17.182  0.00  0.00    +0.000 C 
ATOM      3  C   UNL     1       4.408   5.984  16.868  0.00  0.00    +0.000 A 
ATOM      4  C   UNL     1       5.219   5.900  15.733  0.00  0.00    +0.000 A 
ATOM      5  C   UNL     1       5.878   4.708  15.461  0.00  0.00    +0.000 A 
ATOM      6  C   UNL     1       5.699   3.651  16.336  0.00  0.00    +0.000 A 
ATOM      7  N   UNL     1       4.921   3.709  17.442  0.00  0.00    +0.000 NA
ATOM      8  C   UNL     1       4.276   4.879  17.705  0.00  0.00    +0.000 A 
ATOM      9  C   UNL     1       3.423   4.956  18.909  0.00  0.00    +0.000 A 
ATOM     10  N   UNL     1       3.327   3.854  19.693  0.00  0.00    +0.000 NA
ATOM     11  C   UNL     1       2.550   3.928  20.787  0.00  0.00    +0.000 A 
ATOM     12  C   UNL     1       1.849   5.067  21.153  0.00  0.00    +0.000 A 
ATOM     13  C   UNL     1       1.928   6.232  20.358  0.00  0.00    +0.000 A 
ATOM     14  C   UNL     1       2.742   6.145  19.213  0.00  0.00    +0.000 A 
ATOM     15  C   UNL     1       2.839   7.266  18.405  0.00  0.00    +0.000 A 
ATOM     16  N   UNL     1       2.198   8.433  18.648  0.00  0.00    +0.000 NA
ATOM     17  C   UNL     1       1.429   8.554  19.743  0.00  0.00    +0.000 A 
ATOM     18  C   UNL     1       0.766   9.748  20.033  0.00  0.00    +0.000 A 
ATOM     19  C   UNL     1      -0.073   9.928  21.143  0.00  0.00    +0.000 A 
ATOM     20  C   UNL     1      -0.250   8.869  22.014  0.00  0.00    +0.000 A 
ATOM     21  C   UNL     1       0.404   7.662  21.765  0.00  0.00    +0.000 A 
ATOM     22  C   UNL     1       1.249   7.469  20.639  0.00  0.00    +0.000 A 
ENDROOT
BRANCH  18  23
ATOM     23  N   UNL     1       0.936  10.882  19.151  0.00  0.00    +0.000 N 
ATOM     24  O   UNL     1       1.821  11.701  19.432  0.00  0.00    +0.000 OA
ATOM     25  O   UNL     1       0.104  11.005  18.238  0.00  0.00    +0.000 OA
ENDBRANCH  18  23
TORSDOF 1
ENDMDL
MODEL 5
REMARK VINA RESULT:      -6.8     10.345     12.383
REMARK  Name = 
REMARK  1 active torsions:
REMARK  status: ('A' for Active; 'I' for Inactive)
REMARK    1  A    between atoms: C_18  and  N_19
REMARK                            x       y       z     vdW  Elec       q    Type
REMARK                         _______ _______ _______ _____ _____    ______ ____
ROOT
ATOM      1  O   UNL     1       2.525   2.778  16.093  0.00  0.00    +0.000 OA
ATOM      2  C   UNL     1       3.306   3.480  16.727  0.00  0.00    +0.000 C 
ATOM      3  C   UNL     1       3.027   3.784  18.143  0.00  0.00    +0.000 A 
ATOM      4  C   UNL     1       1.887   3.273  18.766  0.00  0.00    +0.000 A 
ATOM      5  C   UNL     1       1.649   3.585  20.099  0.00  0.00    +0.000 A 
ATOM      6  C   UNL     1       2.562   4.395  20.751  0.00  0.00    +0.000 A 
ATOM      7  N   UNL     1       3.675   4.899  20.168  0.00  0.00    +0.000 NA
ATOM      8  C   UNL     1       3.904   4.592  18.862  0.00  0.00    +0.000 A 
ATOM      9  C   UNL     1       5.115   5.137  18.213  0.00  0.00    +0.000 A 
ATOM     10  N   UNL     1       5.938   5.918  18.956  0.00  0.00    +0.000 NA
ATOM     11  C   UNL     1       7.038   6.412  18.362  0.00  0.00    +0.000 A 
ATOM     12  C   UNL     1       7.372   6.164  17.040  0.00  0.00    +0.000 A 
ATOM     13  C   UNL     1       6.536   5.354  16.240  0.00  0.00    +0.000 A 
ATOM     14  C   UNL     1       5.385   4.842  16.868  0.00  0.00    +0.000 A 
ATOM     15  C   UNL     1       4.537   4.049  16.112  0.00  0.00    +0.000 A 
ATOM     16  N   UNL     1       4.746   3.740  14.812  0.00  0.00    +0.000 NA
ATOM     17  C   UNL     1       5.845   4.197  14.189  0.00  0.00    +0.000 A 
ATOM     18  C   UNL     1       6.102   3.886  12.851  0.00  0.00    +0.000 A 
ATOM     19  C   UNL     1       7.214   4.355  12.138  0.00  0.00    +0.000 A 
ATOM     20  C   UNL     1       8.124   5.165  12.792  0.00  0.00    +0.000 A 
ATOM     21  C   UNL     1       7.910   5.491  14.132  0.00  0.00    +0.000 A 
ATOM     22  C   UNL     1       6.781   5.026  14.860  0.00  0.00    +0.000 A 
ENDROOT
BRANCH  18  23
ATOM     23  N   UNL     1       5.178   3.032  12.137  0.00  0.00    +0.000 N 
ATOM     24  O   UNL     1       5.570   1.900  11.821  0.00  0.00    +0.000 OA
ATOM     25  O   UNL     1       4.099   3.542  11.797  0.00  0.00    +0.000 OA
ENDBRANCH  18  23
TORSDOF 1
ENDMDL
MODEL 6
REMARK VINA RESULT:      -6.7      2.310      3.877
REMARK  Name = 
REMARK  1 active torsions:
REMARK  status: ('A' for Active; 'I' for Inactive)
REMARK    1  A    between atoms: C_18  and  N_19
REMARK                            x       y       z     vdW  Elec       q    Type
REMARK                         _______ _______ _______ _____ _____    ______ ____
ROOT
ATOM      1  O   UNL     1      -2.898  13.554  22.315  0.00  0.00    +0.000 OA
ATOM      2  C   UNL     1      -3.936  13.565  21.662  0.00  0.00    +0.000 C 
ATOM      3  C   UNL     1      -5.109  14.298  22.172  0.00  0.00    +0.000 A 
ATOM      4  C   UNL     1      -5.044  14.984  23.386  0.00  0.00    +0.000 A 
ATOM      5  C   UNL     1      -6.170  15.657  23.843  0.00  0.00    +0.000 A 
ATOM      6  C   UNL     1      -7.313  15.617  23.063  0.00  0.00    +0.000 A 
ATOM      7  N   UNL     1      -7.399  14.962  21.882  0.00  0.00    +0.000 NA
ATOM      8  C   UNL     1      -6.294  14.303  21.439  0.00  0.00    +0.000 A 
ATOM      9  C   UNL     1      -6.373  13.583  20.151  0.00  0.00    +0.000 A 
ATOM     10  N   UNL     1      -7.549  13.616  19.475  0.00  0.00    +0.000 NA
ATOM     11  C   UNL     1      -7.617  12.960  18.304  0.00  0.00    +0.000 A 
ATOM     12  C   UNL     1      -6.555  12.258  17.756  0.00  0.00    +0.000 A 
ATOM     13  C   UNL     1      -5.318  12.203  18.435  0.00  0.00    +0.000 A 
ATOM     14  C   UNL     1      -5.255  12.891  19.661  0.00  0.00    +0.000 A 
ATOM     15  C   UNL     1      -4.059  12.854  20.360  0.00  0.00    +0.000 A 
ATOM     16  N   UNL     1      -2.954  12.197  19.937  0.00  0.00    +0.000 NA
ATOM     17  C   UNL     1      -2.977  11.547  18.762  0.00  0.00    +0.000 A 
ATOM     18  C   UNL     1      -1.850  10.871  18.287  0.00  0.00    +0.000 A 
ATOM     19  C   UNL     1      -1.819  10.151  17.083  0.00  0.00    +0.000 A 
ATOM     20  C   UNL     1      -2.963  10.112  16.308  0.00  0.00    +0.000 A 
ATOM     21  C   UNL     1      -4.107  10.783  16.742  0.00  0.00    +0.000 A 
ATOM     22  C   UNL     1      -4.149  11.509  17.964  0.00  0.00    +0.000 A 
ENDROOT
BRANCH  18  23
ATOM     23  N   UNL     1      -0.631  10.898  19.065  0.00  0.00    +0.000 N 
ATOM     24  O   UNL     1       0.183  11.800  18.825  0.00  0.00    +0.000 OA
ATOM     25  O   UNL     1      -0.445   9.947  19.840  0.00  0.00    +0.000 OA
ENDBRANCH  18  23
TORSDOF 1
ENDMDL
MODEL 7
REMARK VINA RESULT:      -6.6      1.893      2.672
REMARK  Name = 
REMARK  1 active torsions:
REMARK  status: ('A' for Active; 'I' for Inactive)
REMARK    1  A    between atoms: C_18  and  N_19
REMARK                            x       y       z     vdW  Elec       q    Type
REMARK                         _______ _______ _______ _____ _____    ______ ____
ROOT
ATOM      1  O   UNL     1      -2.743  13.664  23.133  0.00  0.00    +0.000 OA
ATOM      2  C   UNL     1      -3.467  13.480  22.160  0.00  0.00    +0.000 C 
ATOM      3  C   UNL     1      -4.828  14.048  22.147  0.00  0.00    +0.000 A 
ATOM      4  C   UNL     1      -5.293  14.800  23.228  0.00  0.00    +0.000 A 
ATOM      5  C   UNL     1      -6.582  15.314  23.187  0.00  0.00    +0.000 A 
ATOM      6  C   UNL     1      -7.351  15.056  22.066  0.00  0.00    +0.000 A 
ATOM      7  N   UNL     1      -6.922  14.333  21.006  0.00  0.00    +0.000 NA
ATOM      8  C   UNL     1      -5.658  13.830  21.050  0.00  0.00    +0.000 A 
ATOM      9  C   UNL     1      -5.175  13.038  19.899  0.00  0.00    +0.000 A 
ATOM     10  N   UNL     1      -6.021  12.852  18.855  0.00  0.00    +0.000 NA
ATOM     11  C   UNL     1      -5.579  12.131  17.811  0.00  0.00    +0.000 A 
ATOM     12  C   UNL     1      -4.311  11.573  17.746  0.00  0.00    +0.000 A 
ATOM     13  C   UNL     1      -3.407  11.748  18.817  0.00  0.00    +0.000 A 
ATOM     14  C   UNL     1      -3.878  12.502  19.908  0.00  0.00    +0.000 A 
ATOM     15  C   UNL     1      -3.021  12.689  20.980  0.00  0.00    +0.000 A 
ATOM     16  N   UNL     1      -1.765  12.189  21.043  0.00  0.00    +0.000 NA
ATOM     17  C   UNL     1      -1.279  11.481  20.010  0.00  0.00    +0.000 A 
ATOM     18  C   UNL     1       0.017  10.963  20.033  0.00  0.00    +0.000 A 
ATOM     19  C   UNL     1       0.572  10.193  19.000  0.00  0.00    +0.000 A 
ATOM     20  C   UNL     1      -0.200   9.936  17.882  0.00  0.00    +0.000 A 
ATOM     21  C   UNL     1      -1.498  10.444  17.815  0.00  0.00    +0.000 A 
ATOM     22  C   UNL     1      -2.069  11.219  18.861  0.00  0.00    +0.000 A 
ENDROOT
BRANCH  18  23
ATOM     23  N   UNL     1       0.859  11.221  21.182  0.00  0.00    +0.000 N 
ATOM     24  O   UNL     1       1.588  12.221  21.146  0.00  0.00    +0.000 OA
ATOM     25  O   UNL     1       0.866  10.355  22.070  0.00  0.00    +0.000 OA
ENDBRANCH  18  23
TORSDOF 1
ENDMDL
MODEL 8
REMARK VINA RESULT:      -6.5      3.190      4.973
REMARK  Name = 
REMARK  1 active torsions:
REMARK  status: ('A' for Active; 'I' for Inactive)
REMARK    1  A    between atoms: C_18  and  N_19
REMARK                            x       y       z     vdW  Elec       q    Type
REMARK                         _______ _______ _______ _____ _____    ______ ____
ROOT
ATOM      1  O   UNL     1      -0.085  13.168  22.907  0.00  0.00    +0.000 OA
ATOM      2  C   UNL     1      -1.247  13.410  22.600  0.00  0.00    +0.000 C 
ATOM      3  C   UNL     1      -2.057  14.297  23.455  0.00  0.00    +0.000 A 
ATOM      4  C   UNL     1      -1.507  14.869  24.605  0.00  0.00    +0.000 A 
ATOM      5  C   UNL     1      -2.299  15.694  25.394  0.00  0.00    +0.000 A 
ATOM      6  C   UNL     1      -3.607  15.912  24.998  0.00  0.00    +0.000 A 
ATOM      7  N   UNL     1      -4.160  15.372  23.888  0.00  0.00    +0.000 NA
ATOM      8  C   UNL     1      -3.382  14.564  23.118  0.00  0.00    +0.000 A 
ATOM      9  C   UNL     1      -3.973  13.966  21.903  0.00  0.00    +0.000 A 
ATOM     10  N   UNL     1      -5.267  14.255  21.617  0.00  0.00    +0.000 NA
ATOM     11  C   UNL     1      -5.802  13.710  20.511  0.00  0.00    +0.000 A 
ATOM     12  C   UNL     1      -5.102  12.875  19.653  0.00  0.00    +0.000 A 
ATOM     13  C   UNL     1      -3.754  12.554  19.923  0.00  0.00    +0.000 A 
ATOM     14  C   UNL     1      -3.201  13.127  21.084  0.00  0.00    +0.000 A 
ATOM     15  C   UNL     1      -1.882  12.830  21.385  0.00  0.00    +0.000 A 
ATOM     16  N   UNL     1      -1.097  12.022  20.635  0.00  0.00    +0.000 NA
ATOM     17  C   UNL     1      -1.589  11.475  19.511  0.00  0.00    +0.000 A 
ATOM     18  C   UNL     1      -0.803  10.649  18.704  0.00  0.00    +0.000 A 
ATOM     19  C   UNL     1      -1.265  10.027  17.535  0.00  0.00    +0.000 A 
ATOM     20  C   UNL     1      -2.573  10.247  17.144  0.00  0.00    +0.000 A 
ATOM     21  C   UNL     1      -3.388  11.073  17.917  0.00  0.00    +0.000 A 
ATOM     22  C   UNL     1      -2.929  11.702  19.107  0.00  0.00    +0.000 A 
ENDROOT
BRANCH  18  23
ATOM     23  N   UNL     1       0.575  10.405  19.075  0.00  0.00    +0.000 N 
ATOM     24  O   UNL     1       1.438  11.154  18.600  0.00  0.00    +0.000 OA
ATOM     25  O   UNL     1       0.794   9.391  19.755  0.00  0.00    +0.000 OA
ENDBRANCH  18  23
TORSDOF 1
ENDMDL
MODEL 9
REMARK VINA RESULT:      -6.4      2.286      5.616
REMARK  Name = 
REMARK  1 active torsions:
REMARK  status: ('A' for Active; 'I' for Inactive)
REMARK    1  A    between atoms: C_18  and  N_19
REMARK                            x       y       z     vdW  Elec       q    Type
REMARK                         _______ _______ _______ _____ _____    ______ ____
ROOT
ATOM      1  O   UNL     1      -2.016  12.107  20.361  0.00  0.00    +0.000 OA
ATOM      2  C   UNL     1      -3.064  12.173  19.728  0.00  0.00    +0.000 C 
ATOM      3  C   UNL     1      -3.156  11.530  18.404  0.00  0.00    +0.000 A 
ATOM      4  C   UNL     1      -2.064  10.842  17.872  0.00  0.00    +0.000 A 
ATOM      5  C   UNL     1      -2.181  10.255  16.619  0.00  0.00    +0.000 A 
ATOM      6  C   UNL     1      -3.386  10.381  15.951  0.00  0.00    +0.000 A 
ATOM      7  N   UNL     1      -4.459  11.040  16.447  0.00  0.00    +0.000 NA
ATOM      8  C   UNL     1      -4.340  11.615  17.675  0.00  0.00    +0.000 A 
ATOM      9  C   UNL     1      -5.503  12.339  18.228  0.00  0.00    +0.000 A 
ATOM     10  N   UNL     1      -6.634  12.393  17.481  0.00  0.00    +0.000 NA
ATOM     11  C   UNL     1      -7.690  13.053  17.987  0.00  0.00    +0.000 A 
ATOM     12  C   UNL     1      -7.682  13.674  19.227  0.00  0.00    +0.000 A 
ATOM     13  C   UNL     1      -6.521  13.636  20.030  0.00  0.00    +0.000 A 
ATOM     14  C   UNL     1      -5.419  12.945  19.492  0.00  0.00    +0.000 A 
ATOM     15  C   UNL     1      -4.260  12.892  20.248  0.00  0.00    +0.000 A 
ATOM     16  N   UNL     1      -4.123  13.464  21.466  0.00  0.00    +0.000 NA
ATOM     17  C   UNL     1      -5.162  14.114  22.016  0.00  0.00    +0.000 A 
ATOM     18  C   UNL     1      -5.062  14.704  23.278  0.00  0.00    +0.000 A 
ATOM     19  C   UNL     1      -6.100  15.419  23.893  0.00  0.00    +0.000 A 
ATOM     20  C   UNL     1      -7.302  15.543  23.222  0.00  0.00    +0.000 A 
ATOM     21  C   UNL     1      -7.447  14.960  21.963  0.00  0.00    +0.000 A 
ATOM     22  C   UNL     1      -6.397  14.240  21.330  0.00  0.00    +0.000 A 
ENDROOT
BRANCH  18  23
ATOM     23  N   UNL     1      -3.822  14.584  24.016  0.00  0.00    +0.000 N 
ATOM     24  O   UNL     1      -3.691  13.606  24.763  0.00  0.00    +0.000 OA
ATOM     25  O   UNL     1      -3.030  15.535  23.926  0.00  0.00    +0.000 OA
ENDBRANCH  18  23
TORSDOF 1
ENDMDL
