MODEL 1
REMARK VINA RESULT:      -8.0      0.000      0.000
REMARK  Name = 
REMARK  7 active torsions:
REMARK  status: ('A' for Active; 'I' for Inactive)
REMARK    1  A    between atoms: N_3  and  C_4
REMARK    2  A    between atoms: C_4  and  C_6
REMARK    3  A    between atoms: C_6  and  C_7
REMARK    4  A    between atoms: N_16  and  C_17
REMARK    5  A    between atoms: C_17  and  C_18
REMARK    6  A    between atoms: C_18  and  C_19
REMARK    7  A    between atoms: C_19  and  C_20
REMARK                            x       y       z     vdW  Elec       q    Type
REMARK                         _______ _______ _______ _____ _____    ______ ____
ROOT
ATOM      1  N   UNL     1       7.350   6.072  15.771  0.00  0.00    +0.000 N 
ATOM      2  C   UNL     1       6.965   5.945  17.068  0.00  0.00    +0.000 C 
ATOM      3  N   UNL     1       6.161   5.047  17.549  0.00  0.00    +0.000 NA
ATOM      4  N   UNL     1       7.539   6.856  17.909  0.00  0.00    +0.000 N 
ATOM      5  H   UNL     1       6.764   5.521  15.140  0.00  0.00    +0.000 HD
ATOM      6  H   UNL     1       7.440   7.013  15.426  0.00  0.00    +0.000 HD
ATOM      7  H   UNL     1       7.190   6.759  18.857  0.00  0.00    +0.000 HD
ENDROOT
BRANCH   3   8
ATOM      8  C   UNL     1       5.545   4.180  16.666  0.00  0.00    +0.000 C 
ATOM      9  O   UNL     1       6.151   3.461  15.863  0.00  0.00    +0.000 OA
BRANCH   8  10
ATOM     10  C   UNL     1       4.028   4.198  16.685  0.00  0.00    +0.000 C 
BRANCH  10  11
ATOM     11  C   UNL     1       3.444   3.281  17.713  0.00  0.00    +0.000 A 
ATOM     12  C   UNL     1       3.431   1.900  17.645  0.00  0.00    +0.000 A 
ATOM     13  N   UNL     1       2.810   1.417  18.764  0.00  0.00    +0.000 N 
ATOM     14  C   UNL     1       2.431   2.453  19.584  0.00  0.00    +0.000 A 
ATOM     15  C   UNL     1       1.772   2.426  20.818  0.00  0.00    +0.000 A 
ATOM     16  C   UNL     1       1.517   3.649  21.446  0.00  0.00    +0.000 A 
ATOM     17  C   UNL     1       1.915   4.847  20.861  0.00  0.00    +0.000 A 
ATOM     18  C   UNL     1       2.573   4.856  19.624  0.00  0.00    +0.000 A 
ATOM     19  C   UNL     1       2.831   3.637  18.962  0.00  0.00    +0.000 A 
ATOM     20  H   UNL     1       2.653   0.440  18.968  0.00  0.00    +0.000 HD
ENDBRANCH  10  11
ENDBRANCH   8  10
ENDBRANCH   3   8
BRANCH   4  21
ATOM     21  C   UNL     1       7.895   8.212  17.529  0.00  0.00    +0.000 C 
BRANCH  21  22
ATOM     22  C   UNL     1       8.671   8.924  18.630  0.00  0.00    +0.000 C 
BRANCH  22  23
ATOM     23  C   UNL     1       8.750  10.423  18.330  0.00  0.00    +0.000 C 
BRANCH  23  24
ATOM     24  C   UNL     1       9.907  11.070  19.000  0.00  0.00    +0.000 A 
ATOM     25  C   UNL     1      10.067  11.402  20.328  0.00  0.00    +0.000 A 
ATOM     26  N   UNL     1      11.307  11.974  20.407  0.00  0.00    +0.000 N 
ATOM     27  C   UNL     1      11.843  11.966  19.153  0.00  0.00    +0.000 A 
ATOM     28  N   UNL     1      11.022  11.427  18.281  0.00  0.00    +0.000 NA
ATOM     29  H   UNL     1      11.749  12.340  21.238  0.00  0.00    +0.000 HD
ENDBRANCH  23  24
ENDBRANCH  22  23
ENDBRANCH  21  22
ENDBRANCH   4  21
TORSDOF 7
ENDMDL
MODEL 2
REMARK VINA RESULT:      -7.8      4.416      8.379
REMARK  Name = 
REMARK  7 active torsions:
REMARK  status: ('A' for Active; 'I' for Inactive)
REMARK    1  A    between atoms: N_3  and  C_4
REMARK    2  A    between atoms: C_4  and  C_6
REMARK    3  A    between atoms: C_6  and  C_7
REMARK    4  A    between atoms: N_16  and  C_17
REMARK    5  A    between atoms: C_17  and  C_18
REMARK    6  A    between atoms: C_18  and  C_19
REMARK    7  A    between atoms: C_19  and  C_20
REMARK                            x       y       z     vdW  Elec       q    Type
REMARK                         _______ _______ _______ _____ _____    ______ ____
ROOT
ATOM      1  N   UNL     1       2.311   6.770  18.494  0.00  0.00    +0.000 N 
ATOM      2  C   UNL     1       3.193   5.947  19.119  0.00  0.00    +0.000 C 
ATOM      3  N   UNL     1       4.291   5.470  18.617  0.00  0.00    +0.000 NA
ATOM      4  N   UNL     1       2.859   5.655  20.412  0.00  0.00    +0.000 N 
ATOM      5  H   UNL     1       2.470   6.810  17.485  0.00  0.00    +0.000 HD
ATOM      6  H   UNL     1       1.337   6.600  18.683  0.00  0.00    +0.000 HD
ATOM      7  H   UNL     1       3.515   5.002  20.827  0.00  0.00    +0.000 HD
ENDROOT
BRANCH   3   8
ATOM      8  C   UNL     1       4.569   5.729  17.289  0.00  0.00    +0.000 C 
ATOM      9  O   UNL     1       4.556   6.858  16.784  0.00  0.00    +0.000 OA
BRANCH   8  10
ATOM     10  C   UNL     1       4.842   4.509  16.430  0.00  0.00    +0.000 C 
BRANCH  10  11
ATOM     11  C   UNL     1       5.933   4.728  15.430  0.00  0.00    +0.000 A 
ATOM     12  C   UNL     1       7.108   5.420  15.659  0.00  0.00    +0.000 A 
ATOM     13  N   UNL     1       7.849   5.408  14.510  0.00  0.00    +0.000 N 
ATOM     14  C   UNL     1       7.196   4.700  13.528  0.00  0.00    +0.000 A 
ATOM     15  C   UNL     1       7.578   4.434  12.209  0.00  0.00    +0.000 A 
ATOM     16  C   UNL     1       6.712   3.668  11.423  0.00  0.00    +0.000 A 
ATOM     17  C   UNL     1       5.515   3.185  11.945  0.00  0.00    +0.000 A 
ATOM     18  C   UNL     1       5.148   3.462  13.268  0.00  0.00    +0.000 A 
ATOM     19  C   UNL     1       5.998   4.243  14.079  0.00  0.00    +0.000 A 
ATOM     20  H   UNL     1       8.750   5.849  14.392  0.00  0.00    +0.000 HD
ENDBRANCH  10  11
ENDBRANCH   8  10
ENDBRANCH   3   8
BRANCH   4  21
ATOM     21  C   UNL     1       1.496   5.539  20.901  0.00  0.00    +0.000 C 
BRANCH  21  22
ATOM     22  C   UNL     1       0.816   4.276  20.390  0.00  0.00    +0.000 C 
BRANCH  22  23
ATOM     23  C   UNL     1       1.490   3.039  20.989  0.00  0.00    +0.000 C 
BRANCH  23  24
ATOM     24  C   UNL     1       2.566   2.507  20.115  0.00  0.00    +0.000 A 
ATOM     25  C   UNL     1       2.478   2.011  18.832  0.00  0.00    +0.000 A 
ATOM     26  N   UNL     1       3.755   1.655  18.498  0.00  0.00    +0.000 N 
ATOM     27  C   UNL     1       4.555   1.944  19.565  0.00  0.00    +0.000 A 
ATOM     28  N   UNL     1       3.867   2.459  20.557  0.00  0.00    +0.000 NA
ATOM     29  H   UNL     1       4.058   1.250  17.623  0.00  0.00    +0.000 HD
ENDBRANCH  23  24
ENDBRANCH  22  23
ENDBRANCH  21  22
ENDBRANCH   4  21
TORSDOF 7
ENDMDL
MODEL 3
REMARK VINA RESULT:      -7.8      1.855      2.566
REMARK  Name = 
REMARK  7 active torsions:
REMARK  status: ('A' for Active; 'I' for Inactive)
REMARK    1  A    between atoms: N_3  and  C_4
REMARK    2  A    between atoms: C_4  and  C_6
REMARK    3  A    between atoms: C_6  and  C_7
REMARK    4  A    between atoms: N_16  and  C_17
REMARK    5  A    between atoms: C_17  and  C_18
REMARK    6  A    between atoms: C_18  and  C_19
REMARK    7  A    between atoms: C_19  and  C_20
REMARK                            x       y       z     vdW  Elec       q    Type
REMARK                         _______ _______ _______ _____ _____    ______ ____
ROOT
ATOM      1  N   UNL     1       7.380   6.277  18.556  0.00  0.00    +0.000 N 
ATOM      2  C   UNL     1       7.470   6.913  17.359  0.00  0.00    +0.000 C 
ATOM      3  N   UNL     1       7.247   6.393  16.191  0.00  0.00    +0.000 NA
ATOM      4  N   UNL     1       7.797   8.237  17.457  0.00  0.00    +0.000 N 
ATOM      5  H   UNL     1       7.335   5.262  18.450  0.00  0.00    +0.000 HD
ATOM      6  H   UNL     1       8.076   6.522  19.241  0.00  0.00    +0.000 HD
ATOM      7  H   UNL     1       7.902   8.663  16.542  0.00  0.00    +0.000 HD
ENDROOT
BRANCH   3   8
ATOM      8  C   UNL     1       6.982   5.039  16.118  0.00  0.00    +0.000 C 
ATOM      9  O   UNL     1       7.819   4.155  16.338  0.00  0.00    +0.000 OA
BRANCH   8  10
ATOM     10  C   UNL     1       5.578   4.672  15.675  0.00  0.00    +0.000 C 
BRANCH  10  11
ATOM     11  C   UNL     1       4.618   4.546  16.816  0.00  0.00    +0.000 A 
ATOM     12  C   UNL     1       4.279   3.367  17.455  0.00  0.00    +0.000 A 
ATOM     13  N   UNL     1       3.375   3.654  18.441  0.00  0.00    +0.000 N 
ATOM     14  C   UNL     1       3.127   5.006  18.482  0.00  0.00    +0.000 A 
ATOM     15  C   UNL     1       2.278   5.738  19.321  0.00  0.00    +0.000 A 
ATOM     16  C   UNL     1       2.227   7.124  19.145  0.00  0.00    +0.000 A 
ATOM     17  C   UNL     1       3.002   7.747  18.171  0.00  0.00    +0.000 A 
ATOM     18  C   UNL     1       3.845   6.999  17.339  0.00  0.00    +0.000 A 
ATOM     19  C   UNL     1       3.906   5.597  17.486  0.00  0.00    +0.000 A 
ATOM     20  H   UNL     1       2.949   2.977  19.058  0.00  0.00    +0.000 HD
ENDBRANCH  10  11
ENDBRANCH   8  10
ENDBRANCH   3   8
BRANCH   4  21
ATOM     21  C   UNL     1       8.655   8.795  18.488  0.00  0.00    +0.000 C 
BRANCH  21  22
ATOM     22  C   UNL     1       8.755  10.311  18.382  0.00  0.00    +0.000 C 
BRANCH  22  23
ATOM     23  C   UNL     1      10.069  10.795  19.000  0.00  0.00    +0.000 C 
BRANCH  23  24
ATOM     24  C   UNL     1       9.847  11.682  20.170  0.00  0.00    +0.000 A 
ATOM     25  C   UNL     1      10.400  12.915  20.443  0.00  0.00    +0.000 A 
ATOM     26  N   UNL     1       9.862  13.289  21.643  0.00  0.00    +0.000 N 
ATOM     27  C   UNL     1       9.020  12.294  22.045  0.00  0.00    +0.000 A 
ATOM     28  N   UNL     1       8.989  11.310  21.177  0.00  0.00    +0.000 NA
ATOM     29  H   UNL     1      10.051  14.145  22.147  0.00  0.00    +0.000 HD
ENDBRANCH  23  24
ENDBRANCH  22  23
ENDBRANCH  21  22
ENDBRANCH   4  21
TORSDOF 7
ENDMDL
MODEL 4
REMARK VINA RESULT:      -7.7      1.985      2.843
REMARK  Name = 
REMARK  7 active torsions:
REMARK  status: ('A' for Active; 'I' for Inactive)
REMARK    1  A    between atoms: N_3  and  C_4
REMARK    2  A    between atoms: C_4  and  C_6
REMARK    3  A    between atoms: C_6  and  C_7
REMARK    4  A    between atoms: N_16  and  C_17
REMARK    5  A    between atoms: C_17  and  C_18
REMARK    6  A    between atoms: C_18  and  C_19
REMARK    7  A    between atoms: C_19  and  C_20
REMARK                            x       y       z     vdW  Elec       q    Type
REMARK                         _______ _______ _______ _____ _____    ______ ____
ROOT
ATOM      1  N   UNL     1       8.384   7.339  18.709  0.00  0.00    +0.000 N 
ATOM      2  C   UNL     1       7.804   8.247  17.881  0.00  0.00    +0.000 C 
ATOM      3  N   UNL     1       6.952   7.994  16.936  0.00  0.00    +0.000 NA
ATOM      4  N   UNL     1       8.163   9.540  18.137  0.00  0.00    +0.000 N 
ATOM      5  H   UNL     1       8.261   6.381  18.376  0.00  0.00    +0.000 HD
ATOM      6  H   UNL     1       9.349   7.503  18.940  0.00  0.00    +0.000 HD
ATOM      7  H   UNL     1       7.748  10.181  17.469  0.00  0.00    +0.000 HD
ENDROOT
BRANCH   3   8
ATOM      8  C   UNL     1       6.657   6.673  16.657  0.00  0.00    +0.000 C 
ATOM      9  O   UNL     1       7.482   5.850  16.242  0.00  0.00    +0.000 OA
BRANCH   8  10
ATOM     10  C   UNL     1       5.203   6.278  16.831  0.00  0.00    +0.000 C 
BRANCH  10  11
ATOM     11  C   UNL     1       5.016   5.126  17.768  0.00  0.00    +0.000 A 
ATOM     12  C   UNL     1       6.008   4.545  18.537  0.00  0.00    +0.000 A 
ATOM     13  N   UNL     1       5.455   3.523  19.258  0.00  0.00    +0.000 N 
ATOM     14  C   UNL     1       4.108   3.431  18.997  0.00  0.00    +0.000 A 
ATOM     15  C   UNL     1       3.155   2.540  19.505  0.00  0.00    +0.000 A 
ATOM     16  C   UNL     1       1.834   2.682  19.067  0.00  0.00    +0.000 A 
ATOM     17  C   UNL     1       1.487   3.682  18.164  0.00  0.00    +0.000 A 
ATOM     18  C   UNL     1       2.454   4.564  17.665  0.00  0.00    +0.000 A 
ATOM     19  C   UNL     1       3.797   4.435  18.080  0.00  0.00    +0.000 A 
ATOM     20  H   UNL     1       5.956   2.921  19.895  0.00  0.00    +0.000 HD
ENDBRANCH  10  11
ENDBRANCH   8  10
ENDBRANCH   3   8
BRANCH   4  21
ATOM     21  C   UNL     1       9.465   9.946  18.639  0.00  0.00    +0.000 C 
BRANCH  21  22
ATOM     22  C   UNL     1       9.355  10.691  19.962  0.00  0.00    +0.000 C 
BRANCH  22  23
ATOM     23  C   UNL     1      10.355  11.850  19.996  0.00  0.00    +0.000 C 
BRANCH  23  24
ATOM     24  C   UNL     1      10.007  12.921  19.028  0.00  0.00    +0.000 A 
ATOM     25  C   UNL     1      10.709  13.357  17.925  0.00  0.00    +0.000 A 
ATOM     26  N   UNL     1       9.948  14.360  17.391  0.00  0.00    +0.000 N 
ATOM     27  C   UNL     1       8.836  14.492  18.170  0.00  0.00    +0.000 A 
ATOM     28  N   UNL     1       8.842  13.637  19.166  0.00  0.00    +0.000 NA
ATOM     29  H   UNL     1      10.166  14.908  16.571  0.00  0.00    +0.000 HD
ENDBRANCH  23  24
ENDBRANCH  22  23
ENDBRANCH  21  22
ENDBRANCH   4  21
TORSDOF 7
ENDMDL
MODEL 5
REMARK VINA RESULT:      -7.6      2.043      2.795
REMARK  Name = 
REMARK  7 active torsions:
REMARK  status: ('A' for Active; 'I' for Inactive)
REMARK    1  A    between atoms: N_3  and  C_4
REMARK    2  A    between atoms: C_4  and  C_6
REMARK    3  A    between atoms: C_6  and  C_7
REMARK    4  A    between atoms: N_16  and  C_17
REMARK    5  A    between atoms: C_17  and  C_18
REMARK    6  A    between atoms: C_18  and  C_19
REMARK    7  A    between atoms: C_19  and  C_20
REMARK                            x       y       z     vdW  Elec       q    Type
REMARK                         _______ _______ _______ _____ _____    ______ ____
ROOT
ATOM      1  N   UNL     1       7.427   6.324  18.732  0.00  0.00    +0.000 N 
ATOM      2  C   UNL     1       7.607   7.071  17.612  0.00  0.00    +0.000 C 
ATOM      3  N   UNL     1       7.385   6.695  16.389  0.00  0.00    +0.000 NA
ATOM      4  N   UNL     1       8.032   8.347  17.858  0.00  0.00    +0.000 N 
ATOM      5  H   UNL     1       7.308   5.332  18.517  0.00  0.00    +0.000 HD
ATOM      6  H   UNL     1       8.115   6.440  19.457  0.00  0.00    +0.000 HD
ATOM      7  H   UNL     1       8.200   8.856  16.996  0.00  0.00    +0.000 HD
ENDROOT
BRANCH   3   8
ATOM      8  C   UNL     1       7.019   5.382  16.166  0.00  0.00    +0.000 C 
ATOM      9  O   UNL     1       7.785   4.418  16.286  0.00  0.00    +0.000 OA
BRANCH   8  10
ATOM     10  C   UNL     1       5.595   5.173  15.686  0.00  0.00    +0.000 C 
BRANCH  10  11
ATOM     11  C   UNL     1       4.654   4.804  16.789  0.00  0.00    +0.000 A 
ATOM     12  C   UNL     1       4.416   3.522  17.249  0.00  0.00    +0.000 A 
ATOM     13  N   UNL     1       3.495   3.586  18.257  0.00  0.00    +0.000 N 
ATOM     14  C   UNL     1       3.134   4.892  18.490  0.00  0.00    +0.000 A 
ATOM     15  C   UNL     1       2.230   5.422  19.418  0.00  0.00    +0.000 A 
ATOM     16  C   UNL     1       2.062   6.810  19.443  0.00  0.00    +0.000 A 
ATOM     17  C   UNL     1       2.778   7.630  18.576  0.00  0.00    +0.000 A 
ATOM     18  C   UNL     1       3.678   7.083  17.652  0.00  0.00    +0.000 A 
ATOM     19  C   UNL     1       3.858   5.684  17.597  0.00  0.00    +0.000 A 
ATOM     20  H   UNL     1       3.131   2.794  18.766  0.00  0.00    +0.000 HD
ENDBRANCH  10  11
ENDBRANCH   8  10
ENDBRANCH   3   8
BRANCH   4  21
ATOM     21  C   UNL     1       8.893   8.725  18.965  0.00  0.00    +0.000 C 
BRANCH  21  22
ATOM     22  C   UNL     1       8.892  10.231  19.196  0.00  0.00    +0.000 C 
BRANCH  22  23
ATOM     23  C   UNL     1       9.373  10.955  17.936  0.00  0.00    +0.000 C 
BRANCH  23  24
ATOM     24  C   UNL     1       8.810  12.324  17.826  0.00  0.00    +0.000 A 
ATOM     25  C   UNL     1       7.697  12.754  17.135  0.00  0.00    +0.000 A 
ATOM     26  N   UNL     1       7.632  14.101  17.364  0.00  0.00    +0.000 N 
ATOM     27  C   UNL     1       8.682  14.432  18.170  0.00  0.00    +0.000 A 
ATOM     28  N   UNL     1       9.411  13.381  18.466  0.00  0.00    +0.000 NA
ATOM     29  H   UNL     1       6.937  14.740  17.004  0.00  0.00    +0.000 HD
ENDBRANCH  23  24
ENDBRANCH  22  23
ENDBRANCH  21  22
ENDBRANCH   4  21
TORSDOF 7
ENDMDL
MODEL 6
REMARK VINA RESULT:      -7.5      1.799      2.455
REMARK  Name = 
REMARK  7 active torsions:
REMARK  status: ('A' for Active; 'I' for Inactive)
REMARK    1  A    between atoms: N_3  and  C_4
REMARK    2  A    between atoms: C_4  and  C_6
REMARK    3  A    between atoms: C_6  and  C_7
REMARK    4  A    between atoms: N_16  and  C_17
REMARK    5  A    between atoms: C_17  and  C_18
REMARK    6  A    between atoms: C_18  and  C_19
REMARK    7  A    between atoms: C_19  and  C_20
REMARK                            x       y       z     vdW  Elec       q    Type
REMARK                         _______ _______ _______ _____ _____    ______ ____
ROOT
ATOM      1  N   UNL     1       6.944   7.396  16.437  0.00  0.00    +0.000 N 
ATOM      2  C   UNL     1       7.140   7.088  17.746  0.00  0.00    +0.000 C 
ATOM      3  N   UNL     1       6.560   6.136  18.409  0.00  0.00    +0.000 NA
ATOM      4  N   UNL     1       8.077   7.868  18.365  0.00  0.00    +0.000 N 
ATOM      5  H   UNL     1       6.110   6.944  16.057  0.00  0.00    +0.000 HD
ATOM      6  H   UNL     1       6.940   8.376  16.209  0.00  0.00    +0.000 HD
ATOM      7  H   UNL     1       8.159   7.639  19.351  0.00  0.00    +0.000 HD
ENDROOT
BRANCH   3   8
ATOM      8  C   UNL     1       5.571   5.407  17.777  0.00  0.00    +0.000 C 
ATOM      9  O   UNL     1       5.729   4.263  17.333  0.00  0.00    +0.000 OA
BRANCH   8  10
ATOM     10  C   UNL     1       4.249   6.126  17.589  0.00  0.00    +0.000 C 
BRANCH  10  11
ATOM     11  C   UNL     1       3.254   5.814  18.662  0.00  0.00    +0.000 A 
ATOM     12  C   UNL     1       2.855   6.678  19.665  0.00  0.00    +0.000 A 
ATOM     13  N   UNL     1       1.940   6.035  20.452  0.00  0.00    +0.000 N 
ATOM     14  C   UNL     1       1.707   4.767  19.974  0.00  0.00    +0.000 A 
ATOM     15  C   UNL     1       0.857   3.766  20.460  0.00  0.00    +0.000 A 
ATOM     16  C   UNL     1       0.811   2.557  19.761  0.00  0.00    +0.000 A 
ATOM     17  C   UNL     1       1.581   2.365  18.617  0.00  0.00    +0.000 A 
ATOM     18  C   UNL     1       2.427   3.377  18.145  0.00  0.00    +0.000 A 
ATOM     19  C   UNL     1       2.503   4.603  18.840  0.00  0.00    +0.000 A 
ATOM     20  H   UNL     1       1.491   6.429  21.266  0.00  0.00    +0.000 HD
ENDBRANCH  10  11
ENDBRANCH   8  10
ENDBRANCH   3   8
BRANCH   4  21
ATOM     21  C   UNL     1       8.325   9.263  18.044  0.00  0.00    +0.000 C 
BRANCH  21  22
ATOM     22  C   UNL     1       9.317   9.899  19.009  0.00  0.00    +0.000 C 
BRANCH  22  23
ATOM     23  C   UNL     1       9.246  11.425  18.903  0.00  0.00    +0.000 C 
BRANCH  23  24
ATOM     24  C   UNL     1      10.386  11.988  18.135  0.00  0.00    +0.000 A 
ATOM     25  C   UNL     1      11.717  11.633  18.171  0.00  0.00    +0.000 A 
ATOM     26  N   UNL     1      12.333  12.465  17.277  0.00  0.00    +0.000 N 
ATOM     27  C   UNL     1      11.374  13.274  16.740  0.00  0.00    +0.000 A 
ATOM     28  N   UNL     1      10.188  13.010  17.238  0.00  0.00    +0.000 NA
ATOM     29  H   UNL     1      13.318  12.483  17.051  0.00  0.00    +0.000 HD
ENDBRANCH  23  24
ENDBRANCH  22  23
ENDBRANCH  21  22
ENDBRANCH   4  21
TORSDOF 7
ENDMDL
MODEL 7
REMARK VINA RESULT:      -7.5      1.732      2.568
REMARK  Name = 
REMARK  7 active torsions:
REMARK  status: ('A' for Active; 'I' for Inactive)
REMARK    1  A    between atoms: N_3  and  C_4
REMARK    2  A    between atoms: C_4  and  C_6
REMARK    3  A    between atoms: C_6  and  C_7
REMARK    4  A    between atoms: N_16  and  C_17
REMARK    5  A    between atoms: C_17  and  C_18
REMARK    6  A    between atoms: C_18  and  C_19
REMARK    7  A    between atoms: C_19  and  C_20
REMARK                            x       y       z     vdW  Elec       q    Type
REMARK                         _______ _______ _______ _____ _____    ______ ____
ROOT
ATOM      1  N   UNL     1       7.799   6.506  18.800  0.00  0.00    +0.000 N 
ATOM      2  C   UNL     1       7.550   7.211  17.666  0.00  0.00    +0.000 C 
ATOM      3  N   UNL     1       7.080   6.739  16.552  0.00  0.00    +0.000 NA
ATOM      4  N   UNL     1       7.805   8.549  17.777  0.00  0.00    +0.000 N 
ATOM      5  H   UNL     1       7.795   5.497  18.634  0.00  0.00    +0.000 HD
ATOM      6  H   UNL     1       8.624   6.768  19.312  0.00  0.00    +0.000 HD
ATOM      7  H   UNL     1       7.653   9.032  16.897  0.00  0.00    +0.000 HD
ENDROOT
BRANCH   3   8
ATOM      8  C   UNL     1       6.893   5.374  16.447  0.00  0.00    +0.000 C 
ATOM      9  O   UNL     1       7.806   4.542  16.505  0.00  0.00    +0.000 OA
BRANCH   8  10
ATOM     10  C   UNL     1       5.466   4.929  16.185  0.00  0.00    +0.000 C 
BRANCH  10  11
ATOM     11  C   UNL     1       4.524   5.306  17.284  0.00  0.00    +0.000 A 
ATOM     12  C   UNL     1       3.935   6.546  17.450  0.00  0.00    +0.000 A 
ATOM     13  N   UNL     1       3.143   6.505  18.564  0.00  0.00    +0.000 N 
ATOM     14  C   UNL     1       3.177   5.251  19.127  0.00  0.00    +0.000 A 
ATOM     15  C   UNL     1       2.528   4.761  20.265  0.00  0.00    +0.000 A 
ATOM     16  C   UNL     1       2.739   3.422  20.608  0.00  0.00    +0.000 A 
ATOM     17  C   UNL     1       3.562   2.609  19.834  0.00  0.00    +0.000 A 
ATOM     18  C   UNL     1       4.206   3.117  18.698  0.00  0.00    +0.000 A 
ATOM     19  C   UNL     1       4.021   4.469  18.337  0.00  0.00    +0.000 A 
ATOM     20  H   UNL     1       2.603   7.279  18.925  0.00  0.00    +0.000 HD
ENDBRANCH  10  11
ENDBRANCH   8  10
ENDBRANCH   3   8
BRANCH   4  21
ATOM     21  C   UNL     1       8.852   9.118  18.608  0.00  0.00    +0.000 C 
BRANCH  21  22
ATOM     22  C   UNL     1       9.114  10.580  18.269  0.00  0.00    +0.000 C 
BRANCH  22  23
ATOM     23  C   UNL     1      10.076  11.191  19.291  0.00  0.00    +0.000 C 
BRANCH  23  24
ATOM     24  C   UNL     1      10.534  12.546  18.890  0.00  0.00    +0.000 A 
ATOM     25  C   UNL     1      11.310  13.443  19.591  0.00  0.00    +0.000 A 
ATOM     26  N   UNL     1      11.429  14.531  18.771  0.00  0.00    +0.000 N 
ATOM     27  C   UNL     1      10.738  14.260  17.627  0.00  0.00    +0.000 A 
ATOM     28  N   UNL     1      10.186  13.069  17.668  0.00  0.00    +0.000 NA
ATOM     29  H   UNL     1      11.932  15.383  18.971  0.00  0.00    +0.000 HD
ENDBRANCH  23  24
ENDBRANCH  22  23
ENDBRANCH  21  22
ENDBRANCH   4  21
TORSDOF 7
ENDMDL
MODEL 8
REMARK VINA RESULT:      -7.4      1.685      2.330
REMARK  Name = 
REMARK  7 active torsions:
REMARK  status: ('A' for Active; 'I' for Inactive)
REMARK    1  A    between atoms: N_3  and  C_4
REMARK    2  A    between atoms: C_4  and  C_6
REMARK    3  A    between atoms: C_6  and  C_7
REMARK    4  A    between atoms: N_16  and  C_17
REMARK    5  A    between atoms: C_17  and  C_18
REMARK    6  A    between atoms: C_18  and  C_19
REMARK    7  A    between atoms: C_19  and  C_20
REMARK                            x       y       z     vdW  Elec       q    Type
REMARK                         _______ _______ _______ _____ _____    ______ ____
ROOT
ATOM      1  N   UNL     1       7.627   6.979  16.336  0.00  0.00    +0.000 N 
ATOM      2  C   UNL     1       7.374   6.868  17.666  0.00  0.00    +0.000 C 
ATOM      3  N   UNL     1       6.587   6.004  18.231  0.00  0.00    +0.000 NA
ATOM      4  N   UNL     1       8.070   7.754  18.440  0.00  0.00    +0.000 N 
ATOM      5  H   UNL     1       6.956   6.454  15.771  0.00  0.00    +0.000 HD
ATOM      6  H   UNL     1       7.720   7.916  15.980  0.00  0.00    +0.000 HD
ATOM      7  H   UNL     1       7.818   7.671  19.419  0.00  0.00    +0.000 HD
ENDROOT
BRANCH   3   8
ATOM      8  C   UNL     1       5.848   5.165  17.421  0.00  0.00    +0.000 C 
ATOM      9  O   UNL     1       6.281   4.117  16.927  0.00  0.00    +0.000 OA
BRANCH   8  10
ATOM     10  C   UNL     1       4.442   5.638  17.101  0.00  0.00    +0.000 C 
BRANCH  10  11
ATOM     11  C   UNL     1       3.509   5.532  18.266  0.00  0.00    +0.000 A 
ATOM     12  C   UNL     1       3.336   6.490  19.248  0.00  0.00    +0.000 A 
ATOM     13  N   UNL     1       2.405   6.033  20.140  0.00  0.00    +0.000 N 
ATOM     14  C   UNL     1       1.940   4.798  19.753  0.00  0.00    +0.000 A 
ATOM     15  C   UNL     1       0.993   3.965  20.360  0.00  0.00    +0.000 A 
ATOM     16  C   UNL     1       0.701   2.749  19.735  0.00  0.00    +0.000 A 
ATOM     17  C   UNL     1       1.330   2.390  18.546  0.00  0.00    +0.000 A 
ATOM     18  C   UNL     1       2.277   3.235  17.953  0.00  0.00    +0.000 A 
ATOM     19  C   UNL     1       2.600   4.463  18.570  0.00  0.00    +0.000 A 
ATOM     20  H   UNL     1       2.094   6.528  20.964  0.00  0.00    +0.000 HD
ENDBRANCH  10  11
ENDBRANCH   8  10
ENDBRANCH   3   8
BRANCH   4  21
ATOM     21  C   UNL     1       8.441   9.094  18.019  0.00  0.00    +0.000 C 
BRANCH  21  22
ATOM     22  C   UNL     1       9.101   9.879  19.145  0.00  0.00    +0.000 C 
BRANCH  22  23
ATOM     23  C   UNL     1       9.835  11.096  18.576  0.00  0.00    +0.000 C 
BRANCH  23  24
ATOM     24  C   UNL     1      10.054  12.149  19.600  0.00  0.00    +0.000 A 
ATOM     25  C   UNL     1      10.967  13.182  19.603  0.00  0.00    +0.000 A 
ATOM     26  N   UNL     1      10.747  13.850  20.776  0.00  0.00    +0.000 N 
ATOM     27  C   UNL     1       9.730  13.215  21.426  0.00  0.00    +0.000 A 
ATOM     28  N   UNL     1       9.290  12.184  20.742  0.00  0.00    +0.000 NA
ATOM     29  H   UNL     1      11.245  14.665  21.107  0.00  0.00    +0.000 HD
ENDBRANCH  23  24
ENDBRANCH  22  23
ENDBRANCH  21  22
ENDBRANCH   4  21
TORSDOF 7
ENDMDL
MODEL 9
REMARK VINA RESULT:      -7.4      3.131      5.438
REMARK  Name = 
REMARK  7 active torsions:
REMARK  status: ('A' for Active; 'I' for Inactive)
REMARK    1  A    between atoms: N_3  and  C_4
REMARK    2  A    between atoms: C_4  and  C_6
REMARK    3  A    between atoms: C_6  and  C_7
REMARK    4  A    between atoms: N_16  and  C_17
REMARK    5  A    between atoms: C_17  and  C_18
REMARK    6  A    between atoms: C_18  and  C_19
REMARK    7  A    between atoms: C_19  and  C_20
REMARK                            x       y       z     vdW  Elec       q    Type
REMARK                         _______ _______ _______ _____ _____    ______ ____
ROOT
ATOM      1  N   UNL     1       2.992   3.532  16.744  0.00  0.00    +0.000 N 
ATOM      2  C   UNL     1       4.068   3.558  17.573  0.00  0.00    +0.000 C 
ATOM      3  N   UNL     1       4.052   3.788  18.851  0.00  0.00    +0.000 NA
ATOM      4  N   UNL     1       5.253   3.273  16.954  0.00  0.00    +0.000 N 
ATOM      5  H   UNL     1       2.161   3.939  17.179  0.00  0.00    +0.000 HD
ATOM      6  H   UNL     1       3.129   3.924  15.828  0.00  0.00    +0.000 HD
ATOM      7  H   UNL     1       6.036   3.350  17.595  0.00  0.00    +0.000 HD
ENDROOT
BRANCH   3   8
ATOM      8  C   UNL     1       2.851   4.136  19.437  0.00  0.00    +0.000 C 
ATOM      9  O   UNL     1       1.791   3.522  19.266  0.00  0.00    +0.000 OA
BRANCH   8  10
ATOM     10  C   UNL     1       2.879   5.394  20.286  0.00  0.00    +0.000 C 
BRANCH  10  11
ATOM     11  C   UNL     1       2.549   6.631  19.512  0.00  0.00    +0.000 A 
ATOM     12  C   UNL     1       2.886   6.868  18.192  0.00  0.00    +0.000 A 
ATOM     13  N   UNL     1       2.416   8.104  17.840  0.00  0.00    +0.000 N 
ATOM     14  C   UNL     1       1.753   8.680  18.898  0.00  0.00    +0.000 A 
ATOM     15  C   UNL     1       1.120   9.925  18.990  0.00  0.00    +0.000 A 
ATOM     16  C   UNL     1       0.508  10.256  20.202  0.00  0.00    +0.000 A 
ATOM     17  C   UNL     1       0.526   9.369  21.275  0.00  0.00    +0.000 A 
ATOM     18  C   UNL     1       1.166   8.128  21.167  0.00  0.00    +0.000 A 
ATOM     19  C   UNL     1       1.803   7.773  19.958  0.00  0.00    +0.000 A 
ATOM     20  H   UNL     1       2.531   8.536  16.935  0.00  0.00    +0.000 HD
ENDBRANCH  10  11
ENDBRANCH   8  10
ENDBRANCH   3   8
BRANCH   4  21
ATOM     21  C   UNL     1       5.561   3.615  15.576  0.00  0.00    +0.000 C 
BRANCH  21  22
ATOM     22  C   UNL     1       6.641   4.685  15.485  0.00  0.00    +0.000 C 
BRANCH  22  23
ATOM     23  C   UNL     1       6.178   5.959  16.196  0.00  0.00    +0.000 C 
BRANCH  23  24
ATOM     24  C   UNL     1       7.022   6.283  17.375  0.00  0.00    +0.000 A 
ATOM     25  C   UNL     1       7.691   7.451  17.670  0.00  0.00    +0.000 A 
ATOM     26  N   UNL     1       8.314   7.214  18.864  0.00  0.00    +0.000 N 
ATOM     27  C   UNL     1       8.005   5.940  19.243  0.00  0.00    +0.000 A 
ATOM     28  N   UNL     1       7.227   5.352  18.365  0.00  0.00    +0.000 NA
ATOM     29  H   UNL     1       8.899   7.859  19.376  0.00  0.00    +0.000 HD
ENDBRANCH  23  24
ENDBRANCH  22  23
ENDBRANCH  21  22
ENDBRANCH   4  21
TORSDOF 7
ENDMDL
