MODEL 1
REMARK VINA RESULT:      -8.4      0.000      0.000
REMARK  Name = 
REMARK  6 active torsions:
REMARK  status: ('A' for Active; 'I' for Inactive)
REMARK    1  A    between atoms: C_1  and  C_2
REMARK    2  A    between atoms: C_12  and  O_13
REMARK    3  A    between atoms: O_13  and  C_14
REMARK    4  A    between atoms: N_25  and  C_26
REMARK    5  A    between atoms: C_26  and  C_27
REMARK    6  A    between atoms: C_33  and  C_34
REMARK                            x       y       z     vdW  Elec       q    Type
REMARK                         _______ _______ _______ _____ _____    ______ ____
ROOT
ATOM      1  C   UNL     1       7.471   7.732  17.091  0.00  0.00    +0.000 C 
ATOM      2  C   UNL     1       7.082   6.455  16.381  0.00  0.00    +0.000 C 
ATOM      3  O   UNL     1       7.969   5.723  15.944  0.00  0.00    +0.000 OA
ATOM      4  N   UNL     1       5.726   6.170  16.279  0.00  0.00    +0.000 N 
ATOM      5  C   UNL     1       4.681   7.120  16.677  0.00  0.00    +0.000 C 
ATOM      6  C   UNL     1       3.776   6.579  17.757  0.00  0.00    +0.000 A 
ATOM      7  N   UNL     1       2.956   7.461  18.375  0.00  0.00    +0.000 NA
ATOM      8  C   UNL     1       2.165   6.989  19.373  0.00  0.00    +0.000 A 
ATOM      9  N   UNL     1       1.347   7.897  20.020  0.00  0.00    +0.000 N 
ATOM     10  C   UNL     1       0.827   9.031  19.283  0.00  0.00    +0.000 C 
ATOM     11  C   UNL     1       1.290  10.307  19.959  0.00  0.00    +0.000 C 
ATOM     12  C   UNL     1       0.846  10.353  21.429  0.00  0.00    +0.000 C 
ATOM     13  C   UNL     1       1.402   9.125  22.150  0.00  0.00    +0.000 C 
ATOM     14  C   UNL     1       1.035   7.821  21.445  0.00  0.00    +0.000 C 
ATOM     15  C   UNL     1       2.217   5.609  19.733  0.00  0.00    +0.000 A 
ATOM     16  N   UNL     1       1.317   5.116  20.691  0.00  0.00    +0.000 N 
ATOM     17  N   UNL     1       3.022   4.729  19.094  0.00  0.00    +0.000 NA
ATOM     18  C   UNL     1       3.782   5.226  18.086  0.00  0.00    +0.000 A 
ATOM     19  C   UNL     1       4.668   4.249  17.359  0.00  0.00    +0.000 C 
ATOM     20  C   UNL     1       5.204   4.810  16.028  0.00  0.00    +0.000 C 
ATOM     21  C   UNL     1       6.130   3.775  15.383  0.00  0.00    +0.000 C 
ATOM     22  H   UNL     1       0.395   5.050  20.261  0.00  0.00    +0.000 HD
ENDROOT
BRANCH  12  23
ATOM     23  O   UNL     1      -0.588  10.353  21.581  0.00  0.00    +0.000 OA
BRANCH  23  24
ATOM     24  C   UNL     1      -1.164  11.588  21.745  0.00  0.00    +0.000 A 
ATOM     25  C   UNL     1      -1.153  12.271  22.959  0.00  0.00    +0.000 A 
ATOM     26  C   UNL     1      -1.714  13.542  23.064  0.00  0.00    +0.000 A 
ATOM     27  C   UNL     1      -2.301  14.128  21.951  0.00  0.00    +0.000 A 
ATOM     28  F   UNL     1      -2.849  15.341  22.068  0.00  0.00    +0.000 F 
ATOM     29  C   UNL     1      -2.325  13.467  20.731  0.00  0.00    +0.000 A 
ATOM     30  C   UNL     1      -1.749  12.203  20.630  0.00  0.00    +0.000 A 
ATOM     31  F   UNL     1      -1.791  11.571  19.448  0.00  0.00    +0.000 F 
ENDBRANCH  23  24
ENDBRANCH  12  23
BRANCH  16  32
ATOM     32  C   UNL     1       1.728   3.933  21.435  0.00  0.00    +0.000 C 
BRANCH  32  33
ATOM     33  C   UNL     1       1.128   2.673  20.803  0.00  0.00    +0.000 C 
ATOM     34  F   UNL     1       0.261   3.033  19.817  0.00  0.00    +0.000 F 
ATOM     35  F   UNL     1       2.097   1.934  20.225  0.00  0.00    +0.000 F 
ENDBRANCH  32  33
ENDBRANCH  16  32
TORSDOF 4
ENDMDL
MODEL 2
REMARK VINA RESULT:      -8.1      0.840      1.082
REMARK  Name = 
REMARK  6 active torsions:
REMARK  status: ('A' for Active; 'I' for Inactive)
REMARK    1  A    between atoms: C_1  and  C_2
REMARK    2  A    between atoms: C_12  and  O_13
REMARK    3  A    between atoms: O_13  and  C_14
REMARK    4  A    between atoms: N_25  and  C_26
REMARK    5  A    between atoms: C_26  and  C_27
REMARK    6  A    between atoms: C_33  and  C_34
REMARK                            x       y       z     vdW  Elec       q    Type
REMARK                         _______ _______ _______ _____ _____    ______ ____
ROOT
ATOM      1  C   UNL     1       7.519   7.640  17.052  0.00  0.00    +0.000 C 
ATOM      2  C   UNL     1       7.114   6.358  16.361  0.00  0.00    +0.000 C 
ATOM      3  O   UNL     1       7.991   5.603  15.945  0.00  0.00    +0.000 OA
ATOM      4  N   UNL     1       5.754   6.096  16.252  0.00  0.00    +0.000 N 
ATOM      5  C   UNL     1       4.723   7.071  16.623  0.00  0.00    +0.000 C 
ATOM      6  C   UNL     1       3.799   6.565  17.704  0.00  0.00    +0.000 A 
ATOM      7  N   UNL     1       2.989   7.472  18.300  0.00  0.00    +0.000 NA
ATOM      8  C   UNL     1       2.181   7.032  19.298  0.00  0.00    +0.000 A 
ATOM      9  N   UNL     1       1.374   7.966  19.921  0.00  0.00    +0.000 N 
ATOM     10  C   UNL     1       0.880   9.096  19.160  0.00  0.00    +0.000 C 
ATOM     11  C   UNL     1       1.361  10.375  19.818  0.00  0.00    +0.000 C 
ATOM     12  C   UNL     1       0.904  10.455  21.283  0.00  0.00    +0.000 C 
ATOM     13  C   UNL     1       1.432   9.231  22.030  0.00  0.00    +0.000 C 
ATOM     14  C   UNL     1       1.047   7.921  21.345  0.00  0.00    +0.000 C 
ATOM     15  C   UNL     1       2.204   5.658  19.682  0.00  0.00    +0.000 A 
ATOM     16  N   UNL     1       1.287   5.199  20.640  0.00  0.00    +0.000 N 
ATOM     17  N   UNL     1       2.999   4.753  19.066  0.00  0.00    +0.000 NA
ATOM     18  C   UNL     1       3.777   5.218  18.056  0.00  0.00    +0.000 A 
ATOM     19  C   UNL     1       4.651   4.213  17.355  0.00  0.00    +0.000 C 
ATOM     20  C   UNL     1       5.209   4.741  16.019  0.00  0.00    +0.000 C 
ATOM     21  C   UNL     1       6.122   3.679  15.401  0.00  0.00    +0.000 C 
ATOM     22  H   UNL     1       0.368   5.141  20.202  0.00  0.00    +0.000 HD
ENDROOT
BRANCH  12  23
ATOM     23  O   UNL     1      -0.531  10.483  21.422  0.00  0.00    +0.000 OA
BRANCH  23  24
ATOM     24  C   UNL     1      -1.069  11.706  21.739  0.00  0.00    +0.000 A 
ATOM     25  C   UNL     1      -0.908  12.832  20.935  0.00  0.00    +0.000 A 
ATOM     26  C   UNL     1      -1.511  14.041  21.279  0.00  0.00    +0.000 A 
ATOM     27  C   UNL     1      -2.269  14.126  22.439  0.00  0.00    +0.000 A 
ATOM     28  F   UNL     1      -2.829  15.294  22.766  0.00  0.00    +0.000 F 
ATOM     29  C   UNL     1      -2.442  13.017  23.256  0.00  0.00    +0.000 A 
ATOM     30  C   UNL     1      -1.849  11.808  22.898  0.00  0.00    +0.000 A 
ATOM     31  F   UNL     1      -2.015  10.750  23.704  0.00  0.00    +0.000 F 
ENDBRANCH  23  24
ENDBRANCH  12  23
BRANCH  16  32
ATOM     32  C   UNL     1       1.670   4.022  21.409  0.00  0.00    +0.000 C 
BRANCH  32  33
ATOM     33  C   UNL     1       1.065   2.760  20.784  0.00  0.00    +0.000 C 
ATOM     34  F   UNL     1       0.255   3.114  19.748  0.00  0.00    +0.000 F 
ATOM     35  F   UNL     1       2.038   1.979  20.274  0.00  0.00    +0.000 F 
ENDBRANCH  32  33
ENDBRANCH  16  32
TORSDOF 4
ENDMDL
MODEL 3
REMARK VINA RESULT:      -7.5      3.459     10.045
REMARK  Name = 
REMARK  6 active torsions:
REMARK  status: ('A' for Active; 'I' for Inactive)
REMARK    1  A    between atoms: C_1  and  C_2
REMARK    2  A    between atoms: C_12  and  O_13
REMARK    3  A    between atoms: O_13  and  C_14
REMARK    4  A    between atoms: N_25  and  C_26
REMARK    5  A    between atoms: C_26  and  C_27
REMARK    6  A    between atoms: C_33  and  C_34
REMARK                            x       y       z     vdW  Elec       q    Type
REMARK                         _______ _______ _______ _____ _____    ______ ____
ROOT
ATOM      1  C   UNL     1       0.663  15.704  22.460  0.00  0.00    +0.000 C 
ATOM      2  C   UNL     1      -0.827  15.785  22.702  0.00  0.00    +0.000 C 
ATOM      3  O   UNL     1      -1.336  16.882  22.923  0.00  0.00    +0.000 OA
ATOM      4  N   UNL     1      -1.547  14.598  22.642  0.00  0.00    +0.000 N 
ATOM      5  C   UNL     1      -0.908  13.283  22.521  0.00  0.00    +0.000 C 
ATOM      6  C   UNL     1      -1.335  12.535  21.281  0.00  0.00    +0.000 A 
ATOM      7  N   UNL     1      -0.613  11.441  20.940  0.00  0.00    +0.000 NA
ATOM      8  C   UNL     1      -0.968  10.784  19.807  0.00  0.00    +0.000 A 
ATOM      9  N   UNL     1      -0.213   9.682  19.448  0.00  0.00    +0.000 N 
ATOM     10  C   UNL     1       0.397   8.873  20.483  0.00  0.00    +0.000 C 
ATOM     11  C   UNL     1       1.899   8.865  20.277  0.00  0.00    +0.000 C 
ATOM     12  C   UNL     1       2.268   8.343  18.880  0.00  0.00    +0.000 C 
ATOM     13  C   UNL     1       1.580   9.216  17.830  0.00  0.00    +0.000 C 
ATOM     14  C   UNL     1       0.074   9.326  18.060  0.00  0.00    +0.000 C 
ATOM     15  C   UNL     1      -2.068  11.249  19.026  0.00  0.00    +0.000 A 
ATOM     16  N   UNL     1      -2.489  10.497  17.918  0.00  0.00    +0.000 N 
ATOM     17  N   UNL     1      -2.799  12.329  19.386  0.00  0.00    +0.000 NA
ATOM     18  C   UNL     1      -2.435  12.951  20.536  0.00  0.00    +0.000 A 
ATOM     19  C   UNL     1      -3.255  14.143  20.953  0.00  0.00    +0.000 C 
ATOM     20  C   UNL     1      -3.008  14.551  22.417  0.00  0.00    +0.000 C 
ATOM     21  C   UNL     1      -3.841  15.795  22.740  0.00  0.00    +0.000 C 
ATOM     22  H   UNL     1      -2.981   9.672  18.259  0.00  0.00    +0.000 HD
ENDROOT
BRANCH  12  23
ATOM     23  O   UNL     1       1.857   6.977  18.667  0.00  0.00    +0.000 OA
BRANCH  23  24
ATOM     24  C   UNL     1       2.780   6.174  18.045  0.00  0.00    +0.000 A 
ATOM     25  C   UNL     1       4.053   6.619  17.693  0.00  0.00    +0.000 A 
ATOM     26  C   UNL     1       4.970   5.752  17.101  0.00  0.00    +0.000 A 
ATOM     27  C   UNL     1       4.608   4.436  16.849  0.00  0.00    +0.000 A 
ATOM     28  F   UNL     1       5.490   3.618  16.267  0.00  0.00    +0.000 F 
ATOM     29  C   UNL     1       3.345   3.970  17.190  0.00  0.00    +0.000 A 
ATOM     30  C   UNL     1       2.439   4.838  17.795  0.00  0.00    +0.000 A 
ATOM     31  F   UNL     1       1.219   4.377  18.107  0.00  0.00    +0.000 F 
ENDBRANCH  23  24
ENDBRANCH  12  23
BRANCH  16  32
ATOM     32  C   UNL     1      -3.175  11.218  16.854  0.00  0.00    +0.000 C 
BRANCH  32  33
ATOM     33  C   UNL     1      -2.798  10.634  15.488  0.00  0.00    +0.000 C 
ATOM     34  F   UNL     1      -2.581   9.295  15.615  0.00  0.00    +0.000 F 
ATOM     35  F   UNL     1      -3.816  10.789  14.617  0.00  0.00    +0.000 F 
ENDBRANCH  32  33
ENDBRANCH  16  32
TORSDOF 4
ENDMDL
MODEL 4
REMARK VINA RESULT:      -7.5      0.843      1.008
REMARK  Name = 
REMARK  6 active torsions:
REMARK  status: ('A' for Active; 'I' for Inactive)
REMARK    1  A    between atoms: C_1  and  C_2
REMARK    2  A    between atoms: C_12  and  O_13
REMARK    3  A    between atoms: O_13  and  C_14
REMARK    4  A    between atoms: N_25  and  C_26
REMARK    5  A    between atoms: C_26  and  C_27
REMARK    6  A    between atoms: C_33  and  C_34
REMARK                            x       y       z     vdW  Elec       q    Type
REMARK                         _______ _______ _______ _____ _____    ______ ____
ROOT
ATOM      1  C   UNL     1       7.624   7.043  17.424  0.00  0.00    +0.000 C 
ATOM      2  C   UNL     1       7.157   5.948  16.492  0.00  0.00    +0.000 C 
ATOM      3  O   UNL     1       7.987   5.174  16.020  0.00  0.00    +0.000 OA
ATOM      4  N   UNL     1       5.794   5.869  16.236  0.00  0.00    +0.000 N 
ATOM      5  C   UNL     1       4.838   6.885  16.690  0.00  0.00    +0.000 C 
ATOM      6  C   UNL     1       3.768   6.321  17.593  0.00  0.00    +0.000 A 
ATOM      7  N   UNL     1       3.002   7.207  18.273  0.00  0.00    +0.000 NA
ATOM      8  C   UNL     1       2.062   6.707  19.116  0.00  0.00    +0.000 A 
ATOM      9  N   UNL     1       1.300   7.615  19.827  0.00  0.00    +0.000 N 
ATOM     10  C   UNL     1       1.000   8.904  19.239  0.00  0.00    +0.000 C 
ATOM     11  C   UNL     1       1.544   9.993  20.143  0.00  0.00    +0.000 C 
ATOM     12  C   UNL     1       0.961   9.885  21.560  0.00  0.00    +0.000 C 
ATOM     13  C   UNL     1       1.286   8.501  22.122  0.00  0.00    +0.000 C 
ATOM     14  C   UNL     1       0.836   7.375  21.192  0.00  0.00    +0.000 C 
ATOM     15  C   UNL     1       1.907   5.296  19.256  0.00  0.00    +0.000 A 
ATOM     16  N   UNL     1       0.860   4.797  20.047  0.00  0.00    +0.000 N 
ATOM     17  N   UNL     1       2.660   4.417  18.555  0.00  0.00    +0.000 NA
ATOM     18  C   UNL     1       3.574   4.946  17.704  0.00  0.00    +0.000 A 
ATOM     19  C   UNL     1       4.403   3.974  16.907  0.00  0.00    +0.000 C 
ATOM     20  C   UNL     1       5.137   4.644  15.731  0.00  0.00    +0.000 C 
ATOM     21  C   UNL     1       5.991   3.598  15.009  0.00  0.00    +0.000 C 
ATOM     22  H   UNL     1      -0.014   4.920  19.537  0.00  0.00    +0.000 HD
ENDROOT
BRANCH  12  23
ATOM     23  O   UNL     1      -0.470  10.058  21.592  0.00  0.00    +0.000 OA
BRANCH  23  24
ATOM     24  C   UNL     1      -0.907  11.360  21.595  0.00  0.00    +0.000 A 
ATOM     25  C   UNL     1      -0.802  12.188  22.710  0.00  0.00    +0.000 A 
ATOM     26  C   UNL     1      -1.221  13.516  22.650  0.00  0.00    +0.000 A 
ATOM     27  C   UNL     1      -1.758  14.014  21.471  0.00  0.00    +0.000 A 
ATOM     28  F   UNL     1      -2.171  15.284  21.430  0.00  0.00    +0.000 F 
ATOM     29  C   UNL     1      -1.874  13.207  20.347  0.00  0.00    +0.000 A 
ATOM     30  C   UNL     1      -1.439  11.885  20.410  0.00  0.00    +0.000 A 
ATOM     31  F   UNL     1      -1.569  11.115  19.321  0.00  0.00    +0.000 F 
ENDBRANCH  23  24
ENDBRANCH  12  23
BRANCH  16  32
ATOM     32  C   UNL     1       1.045   3.473  20.627  0.00  0.00    +0.000 C 
BRANCH  32  33
ATOM     33  C   UNL     1       2.006   3.545  21.818  0.00  0.00    +0.000 C 
ATOM     34  F   UNL     1       2.980   2.605  21.669  0.00  0.00    +0.000 F 
ATOM     35  F   UNL     1       2.619   4.746  21.852  0.00  0.00    +0.000 F 
ENDBRANCH  32  33
ENDBRANCH  16  32
TORSDOF 4
ENDMDL
MODEL 5
REMARK VINA RESULT:      -7.3      1.171      1.497
REMARK  Name = 
REMARK  6 active torsions:
REMARK  status: ('A' for Active; 'I' for Inactive)
REMARK    1  A    between atoms: C_1  and  C_2
REMARK    2  A    between atoms: C_12  and  O_13
REMARK    3  A    between atoms: O_13  and  C_14
REMARK    4  A    between atoms: N_25  and  C_26
REMARK    5  A    between atoms: C_26  and  C_27
REMARK    6  A    between atoms: C_33  and  C_34
REMARK                            x       y       z     vdW  Elec       q    Type
REMARK                         _______ _______ _______ _____ _____    ______ ____
ROOT
ATOM      1  C   UNL     1       7.685   6.969  17.310  0.00  0.00    +0.000 C 
ATOM      2  C   UNL     1       7.231   5.839  16.414  0.00  0.00    +0.000 C 
ATOM      3  O   UNL     1       8.068   5.050  15.980  0.00  0.00    +0.000 OA
ATOM      4  N   UNL     1       5.871   5.748  16.144  0.00  0.00    +0.000 N 
ATOM      5  C   UNL     1       4.908   6.778  16.550  0.00  0.00    +0.000 C 
ATOM      6  C   UNL     1       3.829   6.245  17.461  0.00  0.00    +0.000 A 
ATOM      7  N   UNL     1       3.054   7.154  18.099  0.00  0.00    +0.000 NA
ATOM      8  C   UNL     1       2.105   6.684  18.948  0.00  0.00    +0.000 A 
ATOM      9  N   UNL     1       1.333   7.615  19.617  0.00  0.00    +0.000 N 
ATOM     10  C   UNL     1       1.038   8.882  18.978  0.00  0.00    +0.000 C 
ATOM     11  C   UNL     1       1.570  10.004  19.848  0.00  0.00    +0.000 C 
ATOM     12  C   UNL     1       0.970   9.947  21.262  0.00  0.00    +0.000 C 
ATOM     13  C   UNL     1       1.291   8.585  21.877  0.00  0.00    +0.000 C 
ATOM     14  C   UNL     1       0.854   7.425  20.985  0.00  0.00    +0.000 C 
ATOM     15  C   UNL     1       1.951   5.278  19.139  0.00  0.00    +0.000 A 
ATOM     16  N   UNL     1       0.896   4.806  19.936  0.00  0.00    +0.000 N 
ATOM     17  N   UNL     1       2.713   4.375  18.479  0.00  0.00    +0.000 NA
ATOM     18  C   UNL     1       3.636   4.875  17.620  0.00  0.00    +0.000 A 
ATOM     19  C   UNL     1       4.476   3.876  16.870  0.00  0.00    +0.000 C 
ATOM     20  C   UNL     1       5.222   4.504  15.677  0.00  0.00    +0.000 C 
ATOM     21  C   UNL     1       6.086   3.433  15.004  0.00  0.00    +0.000 C 
ATOM     22  H   UNL     1       0.027   4.909  19.411  0.00  0.00    +0.000 HD
ENDROOT
BRANCH  12  23
ATOM     23  O   UNL     1      -0.461  10.119  21.270  0.00  0.00    +0.000 OA
BRANCH  23  24
ATOM     24  C   UNL     1      -0.902  11.384  21.567  0.00  0.00    +0.000 A 
ATOM     25  C   UNL     1      -0.945  12.409  20.624  0.00  0.00    +0.000 A 
ATOM     26  C   UNL     1      -1.442  13.666  20.964  0.00  0.00    +0.000 A 
ATOM     27  C   UNL     1      -1.887  13.902  22.257  0.00  0.00    +0.000 A 
ATOM     28  F   UNL     1      -2.346  15.116  22.576  0.00  0.00    +0.000 F 
ATOM     29  C   UNL     1      -1.853  12.897  23.214  0.00  0.00    +0.000 A 
ATOM     30  C   UNL     1      -1.370  11.639  22.864  0.00  0.00    +0.000 A 
ATOM     31  F   UNL     1      -1.332  10.681  23.801  0.00  0.00    +0.000 F 
ENDBRANCH  23  24
ENDBRANCH  12  23
BRANCH  16  32
ATOM     32  C   UNL     1       1.076   3.505  20.566  0.00  0.00    +0.000 C 
BRANCH  32  33
ATOM     33  C   UNL     1       1.965   3.636  21.808  0.00  0.00    +0.000 C 
ATOM     34  F   UNL     1       2.812   2.571  21.869  0.00  0.00    +0.000 F 
ATOM     35  F   UNL     1       2.729   4.744  21.721  0.00  0.00    +0.000 F 
ENDBRANCH  32  33
ENDBRANCH  16  32
TORSDOF 4
ENDMDL
MODEL 6
REMARK VINA RESULT:      -7.1      0.913      1.089
REMARK  Name = 
REMARK  6 active torsions:
REMARK  status: ('A' for Active; 'I' for Inactive)
REMARK    1  A    between atoms: C_1  and  C_2
REMARK    2  A    between atoms: C_12  and  O_13
REMARK    3  A    between atoms: O_13  and  C_14
REMARK    4  A    between atoms: N_25  and  C_26
REMARK    5  A    between atoms: C_26  and  C_27
REMARK    6  A    between atoms: C_33  and  C_34
REMARK                            x       y       z     vdW  Elec       q    Type
REMARK                         _______ _______ _______ _____ _____    ______ ____
ROOT
ATOM      1  C   UNL     1       7.623   7.443  17.279  0.00  0.00    +0.000 C 
ATOM      2  C   UNL     1       7.183   6.201  16.537  0.00  0.00    +0.000 C 
ATOM      3  O   UNL     1       8.035   5.401  16.156  0.00  0.00    +0.000 OA
ATOM      4  N   UNL     1       5.818   6.026  16.344  0.00  0.00    +0.000 N 
ATOM      5  C   UNL     1       4.828   7.056  16.677  0.00  0.00    +0.000 C 
ATOM      6  C   UNL     1       3.813   6.588  17.691  0.00  0.00    +0.000 A 
ATOM      7  N   UNL     1       3.025   7.532  18.259  0.00  0.00    +0.000 NA
ATOM      8  C   UNL     1       2.135   7.124  19.199  0.00  0.00    +0.000 A 
ATOM      9  N   UNL     1       1.351   8.094  19.795  0.00  0.00    +0.000 N 
ATOM     10  C   UNL     1       0.972   9.267  19.033  0.00  0.00    +0.000 C 
ATOM     11  C   UNL     1       1.490  10.501  19.745  0.00  0.00    +0.000 C 
ATOM     12  C   UNL     1       0.954  10.581  21.183  0.00  0.00    +0.000 C 
ATOM     13  C   UNL     1       1.361   9.313  21.932  0.00  0.00    +0.000 C 
ATOM     14  C   UNL     1       0.939   8.042  21.196  0.00  0.00    +0.000 C 
ATOM     15  C   UNL     1       2.052   5.744  19.553  0.00  0.00    +0.000 A 
ATOM     16  N   UNL     1       1.054   5.324  20.446  0.00  0.00    +0.000 N 
ATOM     17  N   UNL     1       2.826   4.803  18.963  0.00  0.00    +0.000 NA
ATOM     18  C   UNL     1       3.689   5.238  18.011  0.00  0.00    +0.000 A 
ATOM     19  C   UNL     1       4.540   4.195  17.339  0.00  0.00    +0.000 C 
ATOM     20  C   UNL     1       5.207   4.712  16.050  0.00  0.00    +0.000 C 
ATOM     21  C   UNL     1       6.089   3.607  15.462  0.00  0.00    +0.000 C 
ATOM     22  H   UNL     1       0.161   5.332  19.955  0.00  0.00    +0.000 HD
ENDROOT
BRANCH  12  23
ATOM     23  O   UNL     1      -0.483  10.696  21.239  0.00  0.00    +0.000 OA
BRANCH  23  24
ATOM     24  C   UNL     1      -0.963  11.732  22.000  0.00  0.00    +0.000 A 
ATOM     25  C   UNL     1      -1.833  11.543  23.071  0.00  0.00    +0.000 A 
ATOM     26  C   UNL     1      -2.259  12.624  23.841  0.00  0.00    +0.000 A 
ATOM     27  C   UNL     1      -1.821  13.904  23.529  0.00  0.00    +0.000 A 
ATOM     28  F   UNL     1      -2.248  14.934  24.264  0.00  0.00    +0.000 F 
ATOM     29  C   UNL     1      -0.955  14.118  22.465  0.00  0.00    +0.000 A 
ATOM     30  C   UNL     1      -0.521  13.030  21.710  0.00  0.00    +0.000 A 
ATOM     31  F   UNL     1       0.305  13.254  20.679  0.00  0.00    +0.000 F 
ENDBRANCH  23  24
ENDBRANCH  12  23
BRANCH  16  32
ATOM     32  C   UNL     1       1.319   4.112  21.209  0.00  0.00    +0.000 C 
BRANCH  32  33
ATOM     33  C   UNL     1       1.349   2.895  20.278  0.00  0.00    +0.000 C 
ATOM     34  F   UNL     1       1.535   1.767  21.017  0.00  0.00    +0.000 F 
ATOM     35  F   UNL     1       0.165   2.762  19.645  0.00  0.00    +0.000 F 
ENDBRANCH  32  33
ENDBRANCH  16  32
TORSDOF 4
ENDMDL
MODEL 7
REMARK VINA RESULT:      -7.1      3.880     10.327
REMARK  Name = 
REMARK  6 active torsions:
REMARK  status: ('A' for Active; 'I' for Inactive)
REMARK    1  A    between atoms: C_1  and  C_2
REMARK    2  A    between atoms: C_12  and  O_13
REMARK    3  A    between atoms: O_13  and  C_14
REMARK    4  A    between atoms: N_25  and  C_26
REMARK    5  A    between atoms: C_26  and  C_27
REMARK    6  A    between atoms: C_33  and  C_34
REMARK                            x       y       z     vdW  Elec       q    Type
REMARK                         _______ _______ _______ _____ _____    ______ ____
ROOT
ATOM      1  C   UNL     1      -1.540  16.494  21.701  0.00  0.00    +0.000 C 
ATOM      2  C   UNL     1      -3.032  16.305  21.851  0.00  0.00    +0.000 C 
ATOM      3  O   UNL     1      -3.755  17.298  21.921  0.00  0.00    +0.000 OA
ATOM      4  N   UNL     1      -3.509  15.001  21.881  0.00  0.00    +0.000 N 
ATOM      5  C   UNL     1      -2.625  13.831  21.942  0.00  0.00    +0.000 C 
ATOM      6  C   UNL     1      -2.809  12.896  20.771  0.00  0.00    +0.000 A 
ATOM      7  N   UNL     1      -1.870  11.937  20.593  0.00  0.00    +0.000 NA
ATOM      8  C   UNL     1      -2.008  11.115  19.521  0.00  0.00    +0.000 A 
ATOM      9  N   UNL     1      -1.034  10.153  19.328  0.00  0.00    +0.000 N 
ATOM     10  C   UNL     1      -0.362   9.584  20.478  0.00  0.00    +0.000 C 
ATOM     11  C   UNL     1       1.125   9.850  20.357  0.00  0.00    +0.000 C 
ATOM     12  C   UNL     1       1.691   9.276  19.049  0.00  0.00    +0.000 C 
ATOM     13  C   UNL     1       0.932   9.891  17.873  0.00  0.00    +0.000 C 
ATOM     14  C   UNL     1      -0.580   9.726  18.006  0.00  0.00    +0.000 C 
ATOM     15  C   UNL     1      -3.114  11.278  18.634  0.00  0.00    +0.000 A 
ATOM     16  N   UNL     1      -3.300  10.354  17.594  0.00  0.00    +0.000 N 
ATOM     17  N   UNL     1      -4.061  12.224  18.832  0.00  0.00    +0.000 NA
ATOM     18  C   UNL     1      -3.908  13.014  19.925  0.00  0.00    +0.000 A 
ATOM     19  C   UNL     1      -4.968  14.057  20.161  0.00  0.00    +0.000 C 
ATOM     20  C   UNL     1      -4.914  14.647  21.583  0.00  0.00    +0.000 C 
ATOM     21  C   UNL     1      -5.988  15.729  21.720  0.00  0.00    +0.000 C 
ATOM     22  H   UNL     1      -3.652   9.486  17.997  0.00  0.00    +0.000 HD
ENDROOT
BRANCH  12  23
ATOM     23  O   UNL     1       1.563   7.842  18.965  0.00  0.00    +0.000 OA
BRANCH  23  24
ATOM     24  C   UNL     1       2.710   7.166  18.633  0.00  0.00    +0.000 A 
ATOM     25  C   UNL     1       3.525   7.541  17.567  0.00  0.00    +0.000 A 
ATOM     26  C   UNL     1       4.704   6.847  17.296  0.00  0.00    +0.000 A 
ATOM     27  C   UNL     1       5.062   5.766  18.088  0.00  0.00    +0.000 A 
ATOM     28  F   UNL     1       6.186   5.099  17.809  0.00  0.00    +0.000 F 
ATOM     29  C   UNL     1       4.265   5.373  19.155  0.00  0.00    +0.000 A 
ATOM     30  C   UNL     1       3.097   6.080  19.430  0.00  0.00    +0.000 A 
ATOM     31  F   UNL     1       2.332   5.681  20.456  0.00  0.00    +0.000 F 
ENDBRANCH  23  24
ENDBRANCH  12  23
BRANCH  16  32
ATOM     32  C   UNL     1      -4.028  10.819  16.421  0.00  0.00    +0.000 C 
BRANCH  32  33
ATOM     33  C   UNL     1      -3.328  10.349  15.141  0.00  0.00    +0.000 C 
ATOM     34  F   UNL     1      -2.567   9.255  15.420  0.00  0.00    +0.000 F 
ATOM     35  F   UNL     1      -4.240   9.971  14.223  0.00  0.00    +0.000 F 
ENDBRANCH  32  33
ENDBRANCH  16  32
TORSDOF 4
ENDMDL
MODEL 8
REMARK VINA RESULT:      -7.0      3.564     10.163
REMARK  Name = 
REMARK  6 active torsions:
REMARK  status: ('A' for Active; 'I' for Inactive)
REMARK    1  A    between atoms: C_1  and  C_2
REMARK    2  A    between atoms: C_12  and  O_13
REMARK    3  A    between atoms: O_13  and  C_14
REMARK    4  A    between atoms: N_25  and  C_26
REMARK    5  A    between atoms: C_26  and  C_27
REMARK    6  A    between atoms: C_33  and  C_34
REMARK                            x       y       z     vdW  Elec       q    Type
REMARK                         _______ _______ _______ _____ _____    ______ ____
ROOT
ATOM      1  C   UNL     1      -0.315  15.992  22.538  0.00  0.00    +0.000 C 
ATOM      2  C   UNL     1      -1.817  15.930  22.701  0.00  0.00    +0.000 C 
ATOM      3  O   UNL     1      -2.438  16.974  22.895  0.00  0.00    +0.000 OA
ATOM      4  N   UNL     1      -2.417  14.681  22.601  0.00  0.00    +0.000 N 
ATOM      5  C   UNL     1      -1.650  13.433  22.514  0.00  0.00    +0.000 C 
ATOM      6  C   UNL     1      -1.939  12.655  21.253  0.00  0.00    +0.000 A 
ATOM      7  N   UNL     1      -1.100  11.636  20.950  0.00  0.00    +0.000 NA
ATOM      8  C   UNL     1      -1.330  10.954  19.799  0.00  0.00    +0.000 A 
ATOM      9  N   UNL     1      -0.457   9.931  19.481  0.00  0.00    +0.000 N 
ATOM     10  C   UNL     1       0.171   9.178  20.547  0.00  0.00    +0.000 C 
ATOM     11  C   UNL     1       1.676   9.313  20.421  0.00  0.00    +0.000 C 
ATOM     12  C   UNL     1       2.166   8.835  19.045  0.00  0.00    +0.000 C 
ATOM     13  C   UNL     1       1.456   9.646  17.961  0.00  0.00    +0.000 C 
ATOM     14  C   UNL     1      -0.063   9.611  18.110  0.00  0.00    +0.000 C 
ATOM     15  C   UNL     1      -2.426  11.318  18.961  0.00  0.00    +0.000 A 
ATOM     16  N   UNL     1      -2.715  10.536  17.832  0.00  0.00    +0.000 N 
ATOM     17  N   UNL     1      -3.275  12.322  19.283  0.00  0.00    +0.000 NA
ATOM     18  C   UNL     1      -3.032  12.969  20.451  0.00  0.00    +0.000 A 
ATOM     19  C   UNL     1      -3.982  14.076  20.823  0.00  0.00    +0.000 C 
ATOM     20  C   UNL     1      -3.853  14.498  22.299  0.00  0.00    +0.000 C 
ATOM     21  C   UNL     1      -4.816  15.655  22.577  0.00  0.00    +0.000 C 
ATOM     22  H   UNL     1      -3.144   9.666  18.146  0.00  0.00    +0.000 HD
ENDROOT
BRANCH  12  23
ATOM     23  O   UNL     1       1.899   7.438  18.810  0.00  0.00    +0.000 OA
BRANCH  23  24
ATOM     24  C   UNL     1       3.006   6.651  18.608  0.00  0.00    +0.000 A 
ATOM     25  C   UNL     1       3.869   6.825  17.529  0.00  0.00    +0.000 A 
ATOM     26  C   UNL     1       5.004   6.028  17.392  0.00  0.00    +0.000 A 
ATOM     27  C   UNL     1       5.270   5.043  18.334  0.00  0.00    +0.000 A 
ATOM     28  F   UNL     1       6.352   4.275  18.183  0.00  0.00    +0.000 F 
ATOM     29  C   UNL     1       4.423   4.850  19.416  0.00  0.00    +0.000 A 
ATOM     30  C   UNL     1       3.299   5.661  19.556  0.00  0.00    +0.000 A 
ATOM     31  F   UNL     1       2.484   5.454  20.600  0.00  0.00    +0.000 F 
ENDBRANCH  23  24
ENDBRANCH  12  23
BRANCH  16  32
ATOM     32  C   UNL     1      -3.409  11.194  16.733  0.00  0.00    +0.000 C 
BRANCH  32  33
ATOM     33  C   UNL     1      -3.487  10.262  15.520  0.00  0.00    +0.000 C 
ATOM     34  F   UNL     1      -3.731  10.998  14.401  0.00  0.00    +0.000 F 
ATOM     35  F   UNL     1      -2.306   9.639  15.333  0.00  0.00    +0.000 F 
ENDBRANCH  32  33
ENDBRANCH  16  32
TORSDOF 4
ENDMDL
MODEL 9
REMARK VINA RESULT:      -6.9      3.606     10.082
REMARK  Name = 
REMARK  6 active torsions:
REMARK  status: ('A' for Active; 'I' for Inactive)
REMARK    1  A    between atoms: C_1  and  C_2
REMARK    2  A    between atoms: C_12  and  O_13
REMARK    3  A    between atoms: O_13  and  C_14
REMARK    4  A    between atoms: N_25  and  C_26
REMARK    5  A    between atoms: C_26  and  C_27
REMARK    6  A    between atoms: C_33  and  C_34
REMARK                            x       y       z     vdW  Elec       q    Type
REMARK                         _______ _______ _______ _____ _____    ______ ____
ROOT
ATOM      1  C   UNL     1       0.862  16.035  23.090  0.00  0.00    +0.000 C 
ATOM      2  C   UNL     1      -0.612  16.357  22.988  0.00  0.00    +0.000 C 
ATOM      3  O   UNL     1      -0.966  17.534  22.997  0.00  0.00    +0.000 OA
ATOM      4  N   UNL     1      -1.491  15.287  22.868  0.00  0.00    +0.000 N 
ATOM      5  C   UNL     1      -1.067  13.889  23.003  0.00  0.00    +0.000 C 
ATOM      6  C   UNL     1      -1.348  13.070  21.767  0.00  0.00    +0.000 A 
ATOM      7  N   UNL     1      -0.763  11.851  21.687  0.00  0.00    +0.000 NA
ATOM      8  C   UNL     1      -0.981  11.123  20.562  0.00  0.00    +0.000 A 
ATOM      9  N   UNL     1      -0.361   9.890  20.473  0.00  0.00    +0.000 N 
ATOM     10  C   UNL     1      -0.121   9.129  21.682  0.00  0.00    +0.000 C 
ATOM     11  C   UNL     1       1.369   8.881  21.815  0.00  0.00    +0.000 C 
ATOM     12  C   UNL     1       1.926   8.150  20.584  0.00  0.00    +0.000 C 
ATOM     13  C   UNL     1       1.624   8.984  19.339  0.00  0.00    +0.000 C 
ATOM     14  C   UNL     1       0.143   9.335  19.218  0.00  0.00    +0.000 C 
ATOM     15  C   UNL     1      -1.803  11.647  19.521  0.00  0.00    +0.000 A 
ATOM     16  N   UNL     1      -2.106  10.838  18.414  0.00  0.00    +0.000 N 
ATOM     17  N   UNL     1      -2.404  12.856  19.618  0.00  0.00    +0.000 NA
ATOM     18  C   UNL     1      -2.186  13.549  20.764  0.00  0.00    +0.000 A 
ATOM     19  C   UNL     1      -2.865  14.887  20.887  0.00  0.00    +0.000 C 
ATOM     20  C   UNL     1      -2.861  15.425  22.330  0.00  0.00    +0.000 C 
ATOM     21  C   UNL     1      -3.524  16.805  22.354  0.00  0.00    +0.000 C 
ATOM     22  H   UNL     1      -2.787  10.138  18.705  0.00  0.00    +0.000 HD
ENDROOT
BRANCH  12  23
ATOM     23  O   UNL     1       1.348   6.842  20.400  0.00  0.00    +0.000 OA
BRANCH  23  24
ATOM     24  C   UNL     1       2.130   5.941  19.721  0.00  0.00    +0.000 A 
ATOM     25  C   UNL     1       2.453   6.087  18.374  0.00  0.00    +0.000 A 
ATOM     26  C   UNL     1       3.286   5.168  17.739  0.00  0.00    +0.000 A 
ATOM     27  C   UNL     1       3.789   4.090  18.454  0.00  0.00    +0.000 A 
ATOM     28  F   UNL     1       4.575   3.206  17.832  0.00  0.00    +0.000 F 
ATOM     29  C   UNL     1       3.480   3.922  19.797  0.00  0.00    +0.000 A 
ATOM     30  C   UNL     1       2.659   4.853  20.428  0.00  0.00    +0.000 A 
ATOM     31  F   UNL     1       2.359   4.672  21.723  0.00  0.00    +0.000 F 
ENDBRANCH  23  24
ENDBRANCH  12  23
BRANCH  16  32
ATOM     32  C   UNL     1      -2.429  11.520  17.167  0.00  0.00    +0.000 C 
BRANCH  32  33
ATOM     33  C   UNL     1      -3.140  10.561  16.206  0.00  0.00    +0.000 C 
ATOM     34  F   UNL     1      -4.482  10.783  16.261  0.00  0.00    +0.000 F 
ATOM     35  F   UNL     1      -2.751  10.799  14.937  0.00  0.00    +0.000 F 
ENDBRANCH  32  33
ENDBRANCH  16  32
TORSDOF 4
ENDMDL
