MODEL 1
REMARK VINA RESULT:      -9.4      0.000      0.000
REMARK  Name = 
REMARK  6 active torsions:
REMARK  status: ('A' for Active; 'I' for Inactive)
REMARK    1  A    between atoms: C_1  and  O_2
REMARK    2  A    between atoms: O_2  and  C_3
REMARK    3  A    between atoms: C_8  and  C_9
REMARK    4  A    between atoms: C_20  and  O_21
REMARK    5  A    between atoms: O_21  and  C_22
REMARK    6  A    between atoms: C_22  and  C_23
REMARK                            x       y       z     vdW  Elec       q    Type
REMARK                         _______ _______ _______ _____ _____    ______ ____
ROOT
ATOM      1  C   UNL     1       2.417   6.528  18.838  0.00  0.00    +0.000 A 
ATOM      2  C   UNL     1       2.488   7.582  17.918  0.00  0.00    +0.000 A 
ATOM      3  C   UNL     1       2.030   8.876  18.237  0.00  0.00    +0.000 A 
ATOM      4  C   UNL     1       1.491   9.183  19.498  0.00  0.00    +0.000 A 
ATOM      5  C   UNL     1       1.445   8.140  20.432  0.00  0.00    +0.000 A 
ATOM      6  C   UNL     1       1.894   6.843  20.092  0.00  0.00    +0.000 A 
ATOM      7  C   UNL     1       0.892   8.337  21.810  0.00  0.00    +0.000 C 
ATOM      8  C   UNL     1       0.469   9.749  22.169  0.00  0.00    +0.000 C 
ATOM      9  N   UNL     1       0.436  10.753  21.126  0.00  0.00    +0.000 N 
ATOM     10  C   UNL     1       0.929  10.522  19.844  0.00  0.00    +0.000 A 
ATOM     11  C   UNL     1       0.865  11.522  18.949  0.00  0.00    +0.000 A 
ATOM     12  C   UNL     1       0.200  12.731  19.423  0.00  0.00    +0.000 A 
ATOM     13  N   UNL     1      -0.244  12.974  20.595  0.00  0.00    +0.000 NA
ATOM     14  C   UNL     1      -0.086  11.995  21.533  0.00  0.00    +0.000 A 
ATOM     15  O   UNL     1      -0.417  12.201  22.699  0.00  0.00    +0.000 OA
ENDROOT
BRANCH   1  21
ATOM     16  C   UNL     1       4.068   4.565  18.796  0.00  0.00    +0.000 A 
ATOM     17  N   UNL     1       4.417   3.280  18.515  0.00  0.00    +0.000 NA
ATOM     18  C   UNL     1       3.519   2.530  17.850  0.00  0.00    +0.000 A 
ATOM     19  C   UNL     1       2.288   2.995  17.449  0.00  0.00    +0.000 A 
ATOM     20  C   UNL     1       1.940   4.305  17.777  0.00  0.00    +0.000 A 
ATOM     21  C   UNL     1       2.827   5.144  18.478  0.00  0.00    +0.000 A 
BRANCH  16  23
ATOM     22  C   UNL     1       6.203   5.504  18.683  0.00  0.00    +0.000 C 
ATOM     23  O   UNL     1       5.011   5.342  19.445  0.00  0.00    +0.000 OA
ENDBRANCH  16  23
ENDBRANCH   1  21
BRANCH  12  24
ATOM     24  O   UNL     1       0.072  13.603  18.399  0.00  0.00    +0.000 OA
BRANCH  24  25
ATOM     25  C   UNL     1       0.014  15.008  18.710  0.00  0.00    +0.000 C 
BRANCH  25  26
ATOM     26  C   UNL     1       1.409  15.582  18.936  0.00  0.00    +0.000 C 
ATOM     27  C   UNL     1       1.625  16.976  18.356  0.00  0.00    +0.000 C 
ATOM     28  O   UNL     1       2.806  17.501  18.990  0.00  0.00    +0.000 OA
ATOM     29  C   UNL     1       3.857  16.626  18.807  0.00  0.00    +0.000 A 
ATOM     30  N   UNL     1       5.079  17.165  18.984  0.00  0.00    +0.000 NA
ATOM     31  C   UNL     1       6.122  16.421  18.564  0.00  0.00    +0.000 A 
ATOM     32  C   UNL     1       5.989  15.197  17.922  0.00  0.00    +0.000 A 
ATOM     33  C   UNL     1       4.722  14.626  17.834  0.00  0.00    +0.000 A 
ATOM     34  C   UNL     1       3.640  15.321  18.352  0.00  0.00    +0.000 A 
ATOM     35  O   UNL     1       2.406  14.715  18.341  0.00  0.00    +0.000 OA
ENDBRANCH  25  26
ENDBRANCH  24  25
ENDBRANCH  12  24
TORSDOF 5
ENDMDL
MODEL 2
REMARK VINA RESULT:      -9.4      3.132      6.165
REMARK  Name = 
REMARK  6 active torsions:
REMARK  status: ('A' for Active; 'I' for Inactive)
REMARK    1  A    between atoms: C_1  and  O_2
REMARK    2  A    between atoms: O_2  and  C_3
REMARK    3  A    between atoms: C_8  and  C_9
REMARK    4  A    between atoms: C_20  and  O_21
REMARK    5  A    between atoms: O_21  and  C_22
REMARK    6  A    between atoms: C_22  and  C_23
REMARK                            x       y       z     vdW  Elec       q    Type
REMARK                         _______ _______ _______ _____ _____    ______ ____
ROOT
ATOM      1  C   UNL     1       2.353   5.843  19.603  0.00  0.00    +0.000 A 
ATOM      2  C   UNL     1       1.648   6.165  20.770  0.00  0.00    +0.000 A 
ATOM      3  C   UNL     1       1.152   7.463  21.001  0.00  0.00    +0.000 A 
ATOM      4  C   UNL     1       1.325   8.501  20.070  0.00  0.00    +0.000 A 
ATOM      5  C   UNL     1       2.004   8.178  18.888  0.00  0.00    +0.000 A 
ATOM      6  C   UNL     1       2.509   6.874  18.677  0.00  0.00    +0.000 A 
ATOM      7  C   UNL     1       2.255   9.194  17.817  0.00  0.00    +0.000 C 
ATOM      8  C   UNL     1       1.654  10.569  18.042  0.00  0.00    +0.000 C 
ATOM      9  N   UNL     1       1.065  10.871  19.330  0.00  0.00    +0.000 N 
ATOM     10  C   UNL     1       0.878   9.904  20.315  0.00  0.00    +0.000 A 
ATOM     11  C   UNL     1       0.309  10.279  21.474  0.00  0.00    +0.000 A 
ATOM     12  C   UNL     1       0.021  11.705  21.584  0.00  0.00    +0.000 A 
ATOM     13  N   UNL     1       0.166  12.607  20.692  0.00  0.00    +0.000 NA
ATOM     14  C   UNL     1       0.648  12.207  19.479  0.00  0.00    +0.000 A 
ATOM     15  O   UNL     1       0.730  13.012  18.553  0.00  0.00    +0.000 OA
ENDROOT
BRANCH   1  21
ATOM     16  C   UNL     1       4.314   4.193  19.495  0.00  0.00    +0.000 A 
ATOM     17  N   UNL     1       4.845   2.948  19.358  0.00  0.00    +0.000 NA
ATOM     18  C   UNL     1       3.995   1.946  19.064  0.00  0.00    +0.000 A 
ATOM     19  C   UNL     1       2.642   2.122  18.897  0.00  0.00    +0.000 A 
ATOM     20  C   UNL     1       2.117   3.401  19.075  0.00  0.00    +0.000 A 
ATOM     21  C   UNL     1       2.945   4.495  19.391  0.00  0.00    +0.000 A 
BRANCH  16  23
ATOM     22  C   UNL     1       6.062   5.498  18.659  0.00  0.00    +0.000 C 
ATOM     23  O   UNL     1       5.198   5.224  19.759  0.00  0.00    +0.000 OA
ENDBRANCH  16  23
ENDBRANCH   1  21
BRANCH  12  24
ATOM     24  O   UNL     1      -0.412  11.979  22.834  0.00  0.00    +0.000 OA
BRANCH  24  25
ATOM     25  C   UNL     1      -1.679  11.433  23.247  0.00  0.00    +0.000 C 
BRANCH  25  26
ATOM     26  C   UNL     1      -2.816  12.413  22.977  0.00  0.00    +0.000 C 
ATOM     27  C   UNL     1      -2.537  13.847  23.415  0.00  0.00    +0.000 C 
ATOM     28  O   UNL     1      -3.505  14.674  22.742  0.00  0.00    +0.000 OA
ATOM     29  C   UNL     1      -4.777  14.217  23.022  0.00  0.00    +0.000 A 
ATOM     30  N   UNL     1      -5.760  15.112  22.802  0.00  0.00    +0.000 NA
ATOM     31  C   UNL     1      -6.972  14.797  23.305  0.00  0.00    +0.000 A 
ATOM     32  C   UNL     1      -7.221  13.663  24.066  0.00  0.00    +0.000 A 
ATOM     33  C   UNL     1      -6.210  12.716  24.199  0.00  0.00    +0.000 A 
ATOM     34  C   UNL     1      -4.983  12.961  23.605  0.00  0.00    +0.000 A 
ATOM     35  O   UNL     1      -4.017  11.985  23.665  0.00  0.00    +0.000 OA
ENDBRANCH  25  26
ENDBRANCH  24  25
ENDBRANCH  12  24
TORSDOF 5
ENDMDL
MODEL 3
REMARK VINA RESULT:      -9.3      2.909      5.996
REMARK  Name = 
REMARK  6 active torsions:
REMARK  status: ('A' for Active; 'I' for Inactive)
REMARK    1  A    between atoms: C_1  and  O_2
REMARK    2  A    between atoms: O_2  and  C_3
REMARK    3  A    between atoms: C_8  and  C_9
REMARK    4  A    between atoms: C_20  and  O_21
REMARK    5  A    between atoms: O_21  and  C_22
REMARK    6  A    between atoms: C_22  and  C_23
REMARK                            x       y       z     vdW  Elec       q    Type
REMARK                         _______ _______ _______ _____ _____    ______ ____
ROOT
ATOM      1  C   UNL     1       2.353   5.963  19.660  0.00  0.00    +0.000 A 
ATOM      2  C   UNL     1       1.651   6.321  20.818  0.00  0.00    +0.000 A 
ATOM      3  C   UNL     1       1.169   7.630  21.016  0.00  0.00    +0.000 A 
ATOM      4  C   UNL     1       1.354   8.643  20.059  0.00  0.00    +0.000 A 
ATOM      5  C   UNL     1       2.031   8.283  18.887  0.00  0.00    +0.000 A 
ATOM      6  C   UNL     1       2.522   6.968  18.709  0.00  0.00    +0.000 A 
ATOM      7  C   UNL     1       2.294   9.269  17.791  0.00  0.00    +0.000 C 
ATOM      8  C   UNL     1       1.708  10.656  17.981  0.00  0.00    +0.000 C 
ATOM      9  N   UNL     1       1.121  10.996  19.260  0.00  0.00    +0.000 N 
ATOM     10  C   UNL     1       0.923  10.056  20.269  0.00  0.00    +0.000 A 
ATOM     11  C   UNL     1       0.358  10.467  21.417  0.00  0.00    +0.000 A 
ATOM     12  C   UNL     1       0.086  11.898  21.492  0.00  0.00    +0.000 A 
ATOM     13  N   UNL     1       0.241  12.776  20.577  0.00  0.00    +0.000 NA
ATOM     14  C   UNL     1       0.719  12.340  19.375  0.00  0.00    +0.000 A 
ATOM     15  O   UNL     1       0.811  13.120  18.429  0.00  0.00    +0.000 OA
ENDROOT
BRANCH   1  21
ATOM     16  C   UNL     1       4.303   4.300  19.527  0.00  0.00    +0.000 A 
ATOM     17  N   UNL     1       4.823   3.048  19.422  0.00  0.00    +0.000 NA
ATOM     18  C   UNL     1       3.957   2.037  19.224  0.00  0.00    +0.000 A 
ATOM     19  C   UNL     1       2.596   2.210  19.124  0.00  0.00    +0.000 A 
ATOM     20  C   UNL     1       2.084   3.499  19.267  0.00  0.00    +0.000 A 
ATOM     21  C   UNL     1       2.931   4.603  19.483  0.00  0.00    +0.000 A 
BRANCH  16  23
ATOM     22  C   UNL     1       6.354   5.200  18.865  0.00  0.00    +0.000 C 
ATOM     23  O   UNL     1       5.202   5.340  19.690  0.00  0.00    +0.000 OA
ENDBRANCH  16  23
ENDBRANCH   1  21
BRANCH  12  24
ATOM     24  O   UNL     1      -0.345  12.208  22.734  0.00  0.00    +0.000 OA
BRANCH  24  25
ATOM     25  C   UNL     1      -0.986  13.484  22.929  0.00  0.00    +0.000 C 
BRANCH  25  26
ATOM     26  C   UNL     1      -2.502  13.333  23.011  0.00  0.00    +0.000 C 
ATOM     27  C   UNL     1      -2.978  12.003  23.586  0.00  0.00    +0.000 C 
ATOM     28  O   UNL     1      -4.358  12.189  23.953  0.00  0.00    +0.000 OA
ATOM     29  C   UNL     1      -5.070  12.639  22.861  0.00  0.00    +0.000 A 
ATOM     30  N   UNL     1      -6.404  12.468  22.946  0.00  0.00    +0.000 NA
ATOM     31  C   UNL     1      -7.100  12.652  21.806  0.00  0.00    +0.000 A 
ATOM     32  C   UNL     1      -6.513  12.937  20.580  0.00  0.00    +0.000 A 
ATOM     33  C   UNL     1      -5.145  13.195  20.542  0.00  0.00    +0.000 A 
ATOM     34  C   UNL     1      -4.418  13.117  21.719  0.00  0.00    +0.000 A 
ATOM     35  O   UNL     1      -3.087  13.459  21.691  0.00  0.00    +0.000 OA
ENDBRANCH  25  26
ENDBRANCH  24  25
ENDBRANCH  12  24
TORSDOF 5
ENDMDL
MODEL 4
REMARK VINA RESULT:      -9.3      3.083      6.259
REMARK  Name = 
REMARK  6 active torsions:
REMARK  status: ('A' for Active; 'I' for Inactive)
REMARK    1  A    between atoms: C_1  and  O_2
REMARK    2  A    between atoms: O_2  and  C_3
REMARK    3  A    between atoms: C_8  and  C_9
REMARK    4  A    between atoms: C_20  and  O_21
REMARK    5  A    between atoms: O_21  and  C_22
REMARK    6  A    between atoms: C_22  and  C_23
REMARK                            x       y       z     vdW  Elec       q    Type
REMARK                         _______ _______ _______ _____ _____    ______ ____
ROOT
ATOM      1  C   UNL     1       2.344   5.861  19.613  0.00  0.00    +0.000 A 
ATOM      2  C   UNL     1       1.636   6.177  20.780  0.00  0.00    +0.000 A 
ATOM      3  C   UNL     1       1.144   7.476  21.018  0.00  0.00    +0.000 A 
ATOM      4  C   UNL     1       1.325   8.520  20.094  0.00  0.00    +0.000 A 
ATOM      5  C   UNL     1       2.007   8.202  18.913  0.00  0.00    +0.000 A 
ATOM      6  C   UNL     1       2.508   6.897  18.695  0.00  0.00    +0.000 A 
ATOM      7  C   UNL     1       2.266   9.224  17.850  0.00  0.00    +0.000 C 
ATOM      8  C   UNL     1       1.670  10.600  18.082  0.00  0.00    +0.000 C 
ATOM      9  N   UNL     1       1.077  10.895  19.369  0.00  0.00    +0.000 N 
ATOM     10  C   UNL     1       0.883   9.923  20.347  0.00  0.00    +0.000 A 
ATOM     11  C   UNL     1       0.311  10.293  21.506  0.00  0.00    +0.000 A 
ATOM     12  C   UNL     1       0.029  11.719  21.625  0.00  0.00    +0.000 A 
ATOM     13  N   UNL     1       0.180  12.626  20.739  0.00  0.00    +0.000 NA
ATOM     14  C   UNL     1       0.665  12.232  19.525  0.00  0.00    +0.000 A 
ATOM     15  O   UNL     1       0.754  13.043  18.605  0.00  0.00    +0.000 OA
ENDROOT
BRANCH   1  21
ATOM     16  C   UNL     1       4.298   4.201  19.513  0.00  0.00    +0.000 A 
ATOM     17  N   UNL     1       4.823   2.955  19.369  0.00  0.00    +0.000 NA
ATOM     18  C   UNL     1       3.972   1.961  19.054  0.00  0.00    +0.000 A 
ATOM     19  C   UNL     1       2.622   2.145  18.873  0.00  0.00    +0.000 A 
ATOM     20  C   UNL     1       2.102   3.426  19.058  0.00  0.00    +0.000 A 
ATOM     21  C   UNL     1       2.932   4.511  19.395  0.00  0.00    +0.000 A 
BRANCH  16  23
ATOM     22  C   UNL     1       6.218   5.339  18.825  0.00  0.00    +0.000 C 
ATOM     23  O   UNL     1       5.184   5.225  19.798  0.00  0.00    +0.000 OA
ENDBRANCH  16  23
ENDBRANCH   1  21
BRANCH  12  24
ATOM     24  O   UNL     1      -0.408  11.987  22.875  0.00  0.00    +0.000 OA
BRANCH  24  25
ATOM     25  C   UNL     1      -1.321  13.086  23.052  0.00  0.00    +0.000 C 
BRANCH  25  26
ATOM     26  C   UNL     1      -2.731  12.710  22.608  0.00  0.00    +0.000 C 
ATOM     27  C   UNL     1      -3.277  13.543  21.453  0.00  0.00    +0.000 C 
ATOM     28  O   UNL     1      -4.400  12.815  20.922  0.00  0.00    +0.000 OA
ATOM     29  C   UNL     1      -5.304  12.558  21.932  0.00  0.00    +0.000 A 
ATOM     30  N   UNL     1      -6.549  12.256  21.513  0.00  0.00    +0.000 NA
ATOM     31  C   UNL     1      -7.509  12.256  22.460  0.00  0.00    +0.000 A 
ATOM     32  C   UNL     1      -7.287  12.604  23.785  0.00  0.00    +0.000 A 
ATOM     33  C   UNL     1      -5.977  12.823  24.205  0.00  0.00    +0.000 A 
ATOM     34  C   UNL     1      -4.954  12.727  23.276  0.00  0.00    +0.000 A 
ATOM     35  O   UNL     1      -3.657  12.857  23.713  0.00  0.00    +0.000 OA
ENDBRANCH  25  26
ENDBRANCH  24  25
ENDBRANCH  12  24
TORSDOF 5
ENDMDL
MODEL 5
REMARK VINA RESULT:      -9.3      3.144      9.526
REMARK  Name = 
REMARK  6 active torsions:
REMARK  status: ('A' for Active; 'I' for Inactive)
REMARK    1  A    between atoms: C_1  and  O_2
REMARK    2  A    between atoms: O_2  and  C_3
REMARK    3  A    between atoms: C_8  and  C_9
REMARK    4  A    between atoms: C_20  and  O_21
REMARK    5  A    between atoms: O_21  and  C_22
REMARK    6  A    between atoms: C_22  and  C_23
REMARK                            x       y       z     vdW  Elec       q    Type
REMARK                         _______ _______ _______ _____ _____    ______ ____
ROOT
ATOM      1  C   UNL     1       1.456  10.593  18.781  0.00  0.00    +0.000 A 
ATOM      2  C   UNL     1       2.126   9.902  17.764  0.00  0.00    +0.000 A 
ATOM      3  C   UNL     1       2.442   8.534  17.882  0.00  0.00    +0.000 A 
ATOM      4  C   UNL     1       2.091   7.786  19.019  0.00  0.00    +0.000 A 
ATOM      5  C   UNL     1       1.395   8.466  20.027  0.00  0.00    +0.000 A 
ATOM      6  C   UNL     1       1.099   9.843  19.901  0.00  0.00    +0.000 A 
ATOM      7  C   UNL     1       0.965   7.784  21.289  0.00  0.00    +0.000 C 
ATOM      8  C   UNL     1       1.245   6.295  21.377  0.00  0.00    +0.000 C 
ATOM      9  N   UNL     1       2.065   5.678  20.356  0.00  0.00    +0.000 N 
ATOM     10  C   UNL     1       2.474   6.356  19.210  0.00  0.00    +0.000 A 
ATOM     11  C   UNL     1       3.224   5.693  18.313  0.00  0.00    +0.000 A 
ATOM     12  C   UNL     1       3.587   4.334  18.700  0.00  0.00    +0.000 A 
ATOM     13  N   UNL     1       3.212   3.685  19.733  0.00  0.00    +0.000 NA
ATOM     14  C   UNL     1       2.367   4.324  20.593  0.00  0.00    +0.000 A 
ATOM     15  O   UNL     1       1.904   3.724  21.561  0.00  0.00    +0.000 OA
ENDROOT
BRANCH   1  21
ATOM     16  C   UNL     1      -0.083  12.646  18.750  0.00  0.00    +0.000 A 
ATOM     17  N   UNL     1      -0.316  13.986  18.725  0.00  0.00    +0.000 NA
ATOM     18  C   UNL     1       0.752  14.794  18.598  0.00  0.00    +0.000 A 
ATOM     19  C   UNL     1       2.044  14.335  18.492  0.00  0.00    +0.000 A 
ATOM     20  C   UNL     1       2.261  12.959  18.552  0.00  0.00    +0.000 A 
ATOM     21  C   UNL     1       1.192  12.055  18.692  0.00  0.00    +0.000 A 
BRANCH  16  23
ATOM     22  C   UNL     1      -1.951  11.791  17.637  0.00  0.00    +0.000 C 
ATOM     23  O   UNL     1      -1.189  11.819  18.841  0.00  0.00    +0.000 OA
ENDBRANCH  16  23
ENDBRANCH   1  21
BRANCH  12  24
ATOM     24  O   UNL     1       4.450   3.826  17.793  0.00  0.00    +0.000 OA
BRANCH  24  25
ATOM     25  C   UNL     1       5.858   4.059  17.993  0.00  0.00    +0.000 C 
BRANCH  25  26
ATOM     26  C   UNL     1       6.565   4.333  16.669  0.00  0.00    +0.000 C 
ATOM     27  C   UNL     1       6.655   5.808  16.290  0.00  0.00    +0.000 C 
ATOM     28  O   UNL     1       7.664   5.904  15.269  0.00  0.00    +0.000 OA
ATOM     29  C   UNL     1       7.351   5.054  14.228  0.00  0.00    +0.000 A 
ATOM     30  N   UNL     1       7.967   5.336  13.063  0.00  0.00    +0.000 NA
ATOM     31  C   UNL     1       7.494   4.699  11.972  0.00  0.00    +0.000 A 
ATOM     32  C   UNL     1       6.398   3.846  11.991  0.00  0.00    +0.000 A 
ATOM     33  C   UNL     1       5.840   3.506  13.221  0.00  0.00    +0.000 A 
ATOM     34  C   UNL     1       6.373   4.064  14.372  0.00  0.00    +0.000 A 
ATOM     35  O   UNL     1       5.877   3.658  15.588  0.00  0.00    +0.000 OA
ENDBRANCH  25  26
ENDBRANCH  24  25
ENDBRANCH  12  24
TORSDOF 5
ENDMDL
MODEL 6
REMARK VINA RESULT:      -9.1      3.724      6.207
REMARK  Name = 
REMARK  6 active torsions:
REMARK  status: ('A' for Active; 'I' for Inactive)
REMARK    1  A    between atoms: C_1  and  O_2
REMARK    2  A    between atoms: O_2  and  C_3
REMARK    3  A    between atoms: C_8  and  C_9
REMARK    4  A    between atoms: C_20  and  O_21
REMARK    5  A    between atoms: O_21  and  C_22
REMARK    6  A    between atoms: C_22  and  C_23
REMARK                            x       y       z     vdW  Elec       q    Type
REMARK                         _______ _______ _______ _____ _____    ______ ____
ROOT
ATOM      1  C   UNL     1       2.743   6.941  18.344  0.00  0.00    +0.000 A 
ATOM      2  C   UNL     1       2.240   7.969  17.536  0.00  0.00    +0.000 A 
ATOM      3  C   UNL     1       1.495   9.037  18.074  0.00  0.00    +0.000 A 
ATOM      4  C   UNL     1       1.227   9.137  19.450  0.00  0.00    +0.000 A 
ATOM      5  C   UNL     1       1.752   8.127  20.267  0.00  0.00    +0.000 A 
ATOM      6  C   UNL     1       2.485   7.053  19.710  0.00  0.00    +0.000 A 
ATOM      7  C   UNL     1       1.536   8.117  21.749  0.00  0.00    +0.000 C 
ATOM      8  C   UNL     1       0.795   9.307  22.328  0.00  0.00    +0.000 C 
ATOM      9  N   UNL     1       0.182  10.255  21.421  0.00  0.00    +0.000 N 
ATOM     10  C   UNL     1       0.379  10.212  20.043  0.00  0.00    +0.000 A 
ATOM     11  C   UNL     1      -0.223  11.145  19.286  0.00  0.00    +0.000 A 
ATOM     12  C   UNL     1      -1.092  12.063  20.015  0.00  0.00    +0.000 A 
ATOM     13  N   UNL     1      -1.276  12.134  21.277  0.00  0.00    +0.000 NA
ATOM     14  C   UNL     1      -0.583  11.252  22.055  0.00  0.00    +0.000 A 
ATOM     15  O   UNL     1      -0.653  11.326  23.280  0.00  0.00    +0.000 OA
ENDROOT
BRANCH   1  21
ATOM     16  C   UNL     1       4.799   5.788  17.331  0.00  0.00    +0.000 A 
ATOM     17  N   UNL     1       5.471   4.704  16.859  0.00  0.00    +0.000 NA
ATOM     18  C   UNL     1       4.788   3.547  16.773  0.00  0.00    +0.000 A 
ATOM     19  C   UNL     1       3.468   3.415  17.133  0.00  0.00    +0.000 A 
ATOM     20  C   UNL     1       2.810   4.532  17.645  0.00  0.00    +0.000 A 
ATOM     21  C   UNL     1       3.463   5.773  17.769  0.00  0.00    +0.000 A 
BRANCH  16  23
ATOM     22  C   UNL     1       6.906   6.794  17.386  0.00  0.00    +0.000 C 
ATOM     23  O   UNL     1       5.494   6.983  17.379  0.00  0.00    +0.000 OA
ENDBRANCH  16  23
ENDBRANCH   1  21
BRANCH  12  24
ATOM     24  O   UNL     1      -1.745  12.854  19.137  0.00  0.00    +0.000 OA
BRANCH  24  25
ATOM     25  C   UNL     1      -2.582  12.224  18.149  0.00  0.00    +0.000 C 
BRANCH  25  26
ATOM     26  C   UNL     1      -3.860  11.676  18.776  0.00  0.00    +0.000 C 
ATOM     27  C   UNL     1      -5.044  11.572  17.820  0.00  0.00    +0.000 C 
ATOM     28  O   UNL     1      -5.997  10.695  18.447  0.00  0.00    +0.000 OA
ATOM     29  C   UNL     1      -6.306  11.171  19.705  0.00  0.00    +0.000 A 
ATOM     30  N   UNL     1      -7.454  10.694  20.224  0.00  0.00    +0.000 NA
ATOM     31  C   UNL     1      -7.916  11.325  21.322  0.00  0.00    +0.000 A 
ATOM     32  C   UNL     1      -7.313  12.445  21.880  0.00  0.00    +0.000 A 
ATOM     33  C   UNL     1      -6.083  12.859  21.376  0.00  0.00    +0.000 A 
ATOM     34  C   UNL     1      -5.530  12.164  20.313  0.00  0.00    +0.000 A 
ATOM     35  O   UNL     1      -4.276  12.522  19.877  0.00  0.00    +0.000 OA
ENDBRANCH  25  26
ENDBRANCH  24  25
ENDBRANCH  12  24
TORSDOF 5
ENDMDL
MODEL 7
REMARK VINA RESULT:      -9.0      2.996      5.782
REMARK  Name = 
REMARK  6 active torsions:
REMARK  status: ('A' for Active; 'I' for Inactive)
REMARK    1  A    between atoms: C_1  and  O_2
REMARK    2  A    between atoms: O_2  and  C_3
REMARK    3  A    between atoms: C_8  and  C_9
REMARK    4  A    between atoms: C_20  and  O_21
REMARK    5  A    between atoms: O_21  and  C_22
REMARK    6  A    between atoms: C_22  and  C_23
REMARK                            x       y       z     vdW  Elec       q    Type
REMARK                         _______ _______ _______ _____ _____    ______ ____
ROOT
ATOM      1  C   UNL     1       2.357   5.897  19.651  0.00  0.00    +0.000 A 
ATOM      2  C   UNL     1       1.619   6.222  20.796  0.00  0.00    +0.000 A 
ATOM      3  C   UNL     1       1.118   7.522  21.009  0.00  0.00    +0.000 A 
ATOM      4  C   UNL     1       1.318   8.557  20.080  0.00  0.00    +0.000 A 
ATOM      5  C   UNL     1       2.031   8.229  18.919  0.00  0.00    +0.000 A 
ATOM      6  C   UNL     1       2.541   6.924  18.726  0.00  0.00    +0.000 A 
ATOM      7  C   UNL     1       2.313   9.242  17.852  0.00  0.00    +0.000 C 
ATOM      8  C   UNL     1       1.708  10.618  18.056  0.00  0.00    +0.000 C 
ATOM      9  N   UNL     1       1.081  10.924  19.325  0.00  0.00    +0.000 N 
ATOM     10  C   UNL     1       0.866   9.961  20.307  0.00  0.00    +0.000 A 
ATOM     11  C   UNL     1       0.264  10.340  21.448  0.00  0.00    +0.000 A 
ATOM     12  C   UNL     1      -0.026  11.767  21.546  0.00  0.00    +0.000 A 
ATOM     13  N   UNL     1       0.145  12.665  20.654  0.00  0.00    +0.000 NA
ATOM     14  C   UNL     1       0.661  12.261  19.457  0.00  0.00    +0.000 A 
ATOM     15  O   UNL     1       0.771  13.063  18.532  0.00  0.00    +0.000 OA
ENDROOT
BRANCH   1  21
ATOM     16  C   UNL     1       4.328   4.258  19.537  0.00  0.00    +0.000 A 
ATOM     17  N   UNL     1       4.864   3.013  19.420  0.00  0.00    +0.000 NA
ATOM     18  C   UNL     1       4.015   1.998  19.176  0.00  0.00    +0.000 A 
ATOM     19  C   UNL     1       2.657   2.159  19.041  0.00  0.00    +0.000 A 
ATOM     20  C   UNL     1       2.127   3.439  19.197  0.00  0.00    +0.000 A 
ATOM     21  C   UNL     1       2.954   4.547  19.461  0.00  0.00    +0.000 A 
BRANCH  16  23
ATOM     22  C   UNL     1       6.350   5.237  18.895  0.00  0.00    +0.000 C 
ATOM     23  O   UNL     1       5.210   5.302  19.748  0.00  0.00    +0.000 OA
ENDBRANCH  16  23
ENDBRANCH   1  21
BRANCH  12  24
ATOM     24  O   UNL     1      -0.494  12.045  22.781  0.00  0.00    +0.000 OA
BRANCH  24  25
ATOM     25  C   UNL     1      -1.685  11.365  23.223  0.00  0.00    +0.000 C 
BRANCH  25  26
ATOM     26  C   UNL     1      -2.806  12.355  23.524  0.00  0.00    +0.000 C 
ATOM     27  C   UNL     1      -3.694  12.692  22.330  0.00  0.00    +0.000 C 
ATOM     28  O   UNL     1      -4.888  13.291  22.867  0.00  0.00    +0.000 OA
ATOM     29  C   UNL     1      -4.548  14.367  23.662  0.00  0.00    +0.000 A 
ATOM     30  N   UNL     1      -5.548  15.241  23.888  0.00  0.00    +0.000 NA
ATOM     31  C   UNL     1      -5.192  16.422  24.432  0.00  0.00    +0.000 A 
ATOM     32  C   UNL     1      -3.879  16.785  24.699  0.00  0.00    +0.000 A 
ATOM     33  C   UNL     1      -2.879  15.829  24.539  0.00  0.00    +0.000 A 
ATOM     34  C   UNL     1      -3.228  14.569  24.079  0.00  0.00    +0.000 A 
ATOM     35  O   UNL     1      -2.252  13.604  24.006  0.00  0.00    +0.000 OA
ENDBRANCH  25  26
ENDBRANCH  24  25
ENDBRANCH  12  24
TORSDOF 5
ENDMDL
MODEL 8
REMARK VINA RESULT:      -8.9      3.246      6.214
REMARK  Name = 
REMARK  6 active torsions:
REMARK  status: ('A' for Active; 'I' for Inactive)
REMARK    1  A    between atoms: C_1  and  O_2
REMARK    2  A    between atoms: O_2  and  C_3
REMARK    3  A    between atoms: C_8  and  C_9
REMARK    4  A    between atoms: C_20  and  O_21
REMARK    5  A    between atoms: O_21  and  C_22
REMARK    6  A    between atoms: C_22  and  C_23
REMARK                            x       y       z     vdW  Elec       q    Type
REMARK                         _______ _______ _______ _____ _____    ______ ____
ROOT
ATOM      1  C   UNL     1       2.333   5.999  19.684  0.00  0.00    +0.000 A 
ATOM      2  C   UNL     1       1.614   6.310  20.846  0.00  0.00    +0.000 A 
ATOM      3  C   UNL     1       1.100   7.601  21.075  0.00  0.00    +0.000 A 
ATOM      4  C   UNL     1       1.266   8.643  20.146  0.00  0.00    +0.000 A 
ATOM      5  C   UNL     1       1.959   8.330  18.970  0.00  0.00    +0.000 A 
ATOM      6  C   UNL     1       2.484   7.033  18.761  0.00  0.00    +0.000 A 
ATOM      7  C   UNL     1       2.206   9.351  17.902  0.00  0.00    +0.000 C 
ATOM      8  C   UNL     1       1.586  10.718  18.124  0.00  0.00    +0.000 C 
ATOM      9  N   UNL     1       0.981  11.010  19.408  0.00  0.00    +0.000 N 
ATOM     10  C   UNL     1       0.800  10.039  20.390  0.00  0.00    +0.000 A 
ATOM     11  C   UNL     1       0.216  10.406  21.544  0.00  0.00    +0.000 A 
ATOM     12  C   UNL     1      -0.091  11.828  21.654  0.00  0.00    +0.000 A 
ATOM     13  N   UNL     1       0.049  12.732  20.764  0.00  0.00    +0.000 NA
ATOM     14  C   UNL     1       0.546  12.340  19.555  0.00  0.00    +0.000 A 
ATOM     15  O   UNL     1       0.625  13.147  18.630  0.00  0.00    +0.000 OA
ENDROOT
BRANCH   1  21
ATOM     16  C   UNL     1       4.326   4.409  19.400  0.00  0.00    +0.000 A 
ATOM     17  N   UNL     1       4.883   3.175  19.268  0.00  0.00    +0.000 NA
ATOM     18  C   UNL     1       4.042   2.129  19.164  0.00  0.00    +0.000 A 
ATOM     19  C   UNL     1       2.673   2.249  19.184  0.00  0.00    +0.000 A 
ATOM     20  C   UNL     1       2.126   3.520  19.353  0.00  0.00    +0.000 A 
ATOM     21  C   UNL     1       2.945   4.659  19.476  0.00  0.00    +0.000 A 
BRANCH  16  23
ATOM     22  C   UNL     1       6.520   5.141  19.070  0.00  0.00    +0.000 C 
ATOM     23  O   UNL     1       5.195   5.484  19.467  0.00  0.00    +0.000 OA
ENDBRANCH  16  23
ENDBRANCH   1  21
BRANCH  12  24
ATOM     24  O   UNL     1      -0.538  12.094  22.901  0.00  0.00    +0.000 OA
BRANCH  24  25
ATOM     25  C   UNL     1      -1.109  13.393  23.152  0.00  0.00    +0.000 C 
BRANCH  25  26
ATOM     26  C   UNL     1      -2.606  13.293  23.426  0.00  0.00    +0.000 C 
ATOM     27  C   UNL     1      -3.409  12.599  22.331  0.00  0.00    +0.000 C 
ATOM     28  O   UNL     1      -4.676  12.246  22.917  0.00  0.00    +0.000 OA
ATOM     29  C   UNL     1      -5.269  13.373  23.448  0.00  0.00    +0.000 A 
ATOM     30  N   UNL     1      -6.597  13.269  23.654  0.00  0.00    +0.000 NA
ATOM     31  C   UNL     1      -7.248  14.419  23.921  0.00  0.00    +0.000 A 
ATOM     32  C   UNL     1      -6.639  15.667  23.928  0.00  0.00    +0.000 A 
ATOM     33  C   UNL     1      -5.254  15.732  23.801  0.00  0.00    +0.000 A 
ATOM     34  C   UNL     1      -4.544  14.555  23.630  0.00  0.00    +0.000 A 
ATOM     35  O   UNL     1      -3.171  14.617  23.593  0.00  0.00    +0.000 OA
ENDBRANCH  25  26
ENDBRANCH  24  25
ENDBRANCH  12  24
TORSDOF 5
ENDMDL
MODEL 9
REMARK VINA RESULT:      -8.9      4.107      6.410
REMARK  Name = 
REMARK  6 active torsions:
REMARK  status: ('A' for Active; 'I' for Inactive)
REMARK    1  A    between atoms: C_1  and  O_2
REMARK    2  A    between atoms: O_2  and  C_3
REMARK    3  A    between atoms: C_8  and  C_9
REMARK    4  A    between atoms: C_20  and  O_21
REMARK    5  A    between atoms: O_21  and  C_22
REMARK    6  A    between atoms: C_22  and  C_23
REMARK                            x       y       z     vdW  Elec       q    Type
REMARK                         _______ _______ _______ _____ _____    ______ ____
ROOT
ATOM      1  C   UNL     1       2.437   7.510  18.434  0.00  0.00    +0.000 A 
ATOM      2  C   UNL     1       1.740   8.456  17.671  0.00  0.00    +0.000 A 
ATOM      3  C   UNL     1       0.894   9.411  18.270  0.00  0.00    +0.000 A 
ATOM      4  C   UNL     1       0.714   9.475  19.662  0.00  0.00    +0.000 A 
ATOM      5  C   UNL     1       1.431   8.550  20.431  0.00  0.00    +0.000 A 
ATOM      6  C   UNL     1       2.265   7.587  19.815  0.00  0.00    +0.000 A 
ATOM      7  C   UNL     1       1.326   8.512  21.925  0.00  0.00    +0.000 C 
ATOM      8  C   UNL     1       0.470   9.589  22.565  0.00  0.00    +0.000 C 
ATOM      9  N   UNL     1      -0.333  10.441  21.712  0.00  0.00    +0.000 N 
ATOM     10  C   UNL     1      -0.230  10.423  20.323  0.00  0.00    +0.000 A 
ATOM     11  C   UNL     1      -1.009  11.262  19.618  0.00  0.00    +0.000 A 
ATOM     12  C   UNL     1      -1.942  12.051  20.415  0.00  0.00    +0.000 A 
ATOM     13  N   UNL     1      -2.043  12.099  21.687  0.00  0.00    +0.000 NA
ATOM     14  C   UNL     1      -1.181  11.323  22.407  0.00  0.00    +0.000 A 
ATOM     15  O   UNL     1      -1.172  11.389  23.634  0.00  0.00    +0.000 OA
ENDROOT
BRANCH   1  21
ATOM     16  C   UNL     1       2.934   5.087  17.751  0.00  0.00    +0.000 A 
ATOM     17  N   UNL     1       3.669   4.132  17.120  0.00  0.00    +0.000 NA
ATOM     18  C   UNL     1       4.816   4.524  16.536  0.00  0.00    +0.000 A 
ATOM     19  C   UNL     1       5.270   5.822  16.549  0.00  0.00    +0.000 A 
ATOM     20  C   UNL     1       4.484   6.789  17.174  0.00  0.00    +0.000 A 
ATOM     21  C   UNL     1       3.269   6.452  17.799  0.00  0.00    +0.000 A 
BRANCH  16  23
ATOM     22  C   UNL     1       2.026   3.702  19.398  0.00  0.00    +0.000 C 
ATOM     23  O   UNL     1       1.776   4.670  18.383  0.00  0.00    +0.000 OA
ENDBRANCH  16  23
ENDBRANCH   1  21
BRANCH  12  24
ATOM     24  O   UNL     1      -2.760  12.743  19.592  0.00  0.00    +0.000 OA
BRANCH  24  25
ATOM     25  C   UNL     1      -4.096  12.243  19.388  0.00  0.00    +0.000 C 
BRANCH  25  26
ATOM     26  C   UNL     1      -5.115  13.050  20.187  0.00  0.00    +0.000 C 
ATOM     27  C   UNL     1      -4.626  14.422  20.640  0.00  0.00    +0.000 C 
ATOM     28  O   UNL     1      -5.799  15.171  21.006  0.00  0.00    +0.000 OA
ATOM     29  C   UNL     1      -6.520  14.469  21.951  0.00  0.00    +0.000 A 
ATOM     30  N   UNL     1      -7.392  15.210  22.662  0.00  0.00    +0.000 NA
ATOM     31  C   UNL     1      -7.917  14.622  23.756  0.00  0.00    +0.000 A 
ATOM     32  C   UNL     1      -7.559  13.355  24.198  0.00  0.00    +0.000 A 
ATOM     33  C   UNL     1      -6.725  12.581  23.394  0.00  0.00    +0.000 A 
ATOM     34  C   UNL     1      -6.252  13.120  22.209  0.00  0.00    +0.000 A 
ATOM     35  O   UNL     1      -5.502  12.322  21.379  0.00  0.00    +0.000 OA
ENDBRANCH  25  26
ENDBRANCH  24  25
ENDBRANCH  12  24
TORSDOF 5
ENDMDL
