MODEL 1
REMARK VINA RESULT:      -7.3      0.000      0.000
REMARK  Name = 
REMARK  16 active torsions:
REMARK  status: ('A' for Active; 'I' for Inactive)
REMARK    1  A    between atoms: C_1  and  C_2
REMARK    2  A    between atoms: N_4  and  C_5
REMARK    3  A    between atoms: C_6  and  N_7
REMARK    4  A    between atoms: N_10  and  C_11
REMARK    5  A    between atoms: C_11  and  C_12
REMARK    6  A    between atoms: C_12  and  C_13
REMARK    7  A    between atoms: C_13  and  C_14
REMARK    8  A    between atoms: C_14  and  N_15
REMARK    9  A    between atoms: C_17  and  C_18
REMARK   10  A    between atoms: C_18  and  O_20
REMARK   11  A    between atoms: C_22  and  C_23
REMARK   12  A    between atoms: C_23  and  O_24
REMARK   13  A    between atoms: C_23  and  C_25
REMARK   14  A    between atoms: C_25  and  O_26
REMARK   15  A    between atoms: C_25  and  C_27
REMARK   16  A    between atoms: C_27  and  O_28
REMARK                            x       y       z     vdW  Elec       q    Type
REMARK                         _______ _______ _______ _____ _____    ______ ____
ROOT
ATOM      1  C   UNL     1       4.934   5.843  17.785  0.00  0.00    +0.000 C 
ATOM      2  C   UNL     1       4.665   5.204  19.179  0.00  0.00    +0.000 C 
ATOM      3  C   UNL     1       4.073   3.843  19.092  0.00  0.00    +0.000 C 
ATOM      4  C   UNL     1       3.902   3.184  17.940  0.00  0.00    +0.000 C 
ATOM      5  O   UNL     1       4.261   3.691  16.704  0.00  0.00    +0.000 OA
ATOM      6  C   UNL     1       5.278   4.727  16.739  0.00  0.00    +0.000 C 
ENDROOT
BRANCH   2   7
ATOM      7  N   UNL     1       3.733   5.999  19.963  0.00  0.00    +0.000 N 
ATOM      8  C   UNL     1       2.797   6.858  19.493  0.00  0.00    +0.000 C 
ATOM      9  N   UNL     1       2.481   7.058  18.265  0.00  0.00    +0.000 NA
ATOM     10  N   UNL     1       2.196   7.540  20.508  0.00  0.00    +0.000 N 
ATOM     11  H   UNL     1       3.656   5.774  20.946  0.00  0.00    +0.000 HD
ATOM     12  H   UNL     1       3.033   6.478  17.639  0.00  0.00    +0.000 HD
ATOM     13  H   UNL     1       2.862   7.887  21.189  0.00  0.00    +0.000 HD
BRANCH  10  14
ATOM     14  C   UNL     1       1.141   8.504  20.188  0.00  0.00    +0.000 C 
BRANCH  14  15
ATOM     15  C   UNL     1       0.043   8.549  21.249  0.00  0.00    +0.000 C 
BRANCH  15  16
ATOM     16  C   UNL     1       0.476   9.288  22.523  0.00  0.00    +0.000 C 
BRANCH  16  17
ATOM     17  C   UNL     1      -0.665  10.084  23.161  0.00  0.00    +0.000 C 
BRANCH  17  18
ATOM     18  N   UNL     1      -0.532  11.514  22.913  0.00  0.00    +0.000 NA
ATOM     19  H   UNL     1      -1.340  12.007  23.289  0.00  0.00    +0.000 HD
ATOM     20  H   UNL     1      -0.534  11.688  21.908  0.00  0.00    +0.000 HD
ENDBRANCH  17  18
ENDBRANCH  16  17
ENDBRANCH  15  16
ENDBRANCH  14  15
ENDBRANCH  10  14
ENDBRANCH   2   7
BRANCH   1  24
ATOM     21  C   UNL     1       8.151   7.880  18.030  0.00  0.00    +0.000 C 
ATOM     22  C   UNL     1       7.266   6.668  18.128  0.00  0.00    +0.000 C 
ATOM     23  O   UNL     1       7.700   5.548  18.371  0.00  0.00    +0.000 OA
ATOM     24  N   UNL     1       5.934   6.921  17.875  0.00  0.00    +0.000 N 
ATOM     25  H   UNL     1       5.727   7.778  17.376  0.00  0.00    +0.000 HD
ENDBRANCH   1  24
BRANCH   4  26
ATOM     26  C   UNL     1       3.293   1.819  18.022  0.00  0.00    +0.000 C 
ATOM     27  O   UNL     1       3.830   0.840  18.513  0.00  0.00    +0.000 OA
BRANCH  26  28
ATOM     28  O   UNL     1       2.065   1.790  17.466  0.00  0.00    +0.000 OA
ATOM     29  H   UNL     1       1.603   2.641  17.573  0.00  0.00    +0.000 HD
ENDBRANCH  26  28
ENDBRANCH   4  26
BRANCH   6  30
ATOM     30  C   UNL     1       5.412   5.295  15.291  0.00  0.00    +0.000 C 
BRANCH  30  31
ATOM     31  O   UNL     1       5.122   6.705  15.268  0.00  0.00    +0.000 OA
ATOM     32  H   UNL     1       5.984   7.145  15.096  0.00  0.00    +0.000 HD
ENDBRANCH  30  31
BRANCH  30  33
ATOM     33  C   UNL     1       6.802   5.159  14.628  0.00  0.00    +0.000 C 
BRANCH  33  34
ATOM     34  O   UNL     1       7.726   4.611  15.595  0.00  0.00    +0.000 OA
ATOM     35  H   UNL     1       8.591   4.474  15.164  0.00  0.00    +0.000 HD
ENDBRANCH  33  34
BRANCH  33  36
ATOM     36  C   UNL     1       6.909   4.359  13.333  0.00  0.00    +0.000 C 
BRANCH  36  37
ATOM     37  O   UNL     1       6.243   3.107  13.497  0.00  0.00    +0.000 OA
ATOM     38  H   UNL     1       6.371   2.600  12.670  0.00  0.00    +0.000 HD
ENDBRANCH  36  37
ENDBRANCH  33  36
ENDBRANCH  30  33
ENDBRANCH   6  30
TORSDOF 15
ENDMDL
MODEL 2
REMARK VINA RESULT:      -7.1      3.437      8.032
REMARK  Name = 
REMARK  16 active torsions:
REMARK  status: ('A' for Active; 'I' for Inactive)
REMARK    1  A    between atoms: C_1  and  C_2
REMARK    2  A    between atoms: N_4  and  C_5
REMARK    3  A    between atoms: C_6  and  N_7
REMARK    4  A    between atoms: N_10  and  C_11
REMARK    5  A    between atoms: C_11  and  C_12
REMARK    6  A    between atoms: C_12  and  C_13
REMARK    7  A    between atoms: C_13  and  C_14
REMARK    8  A    between atoms: C_14  and  N_15
REMARK    9  A    between atoms: C_17  and  C_18
REMARK   10  A    between atoms: C_18  and  O_20
REMARK   11  A    between atoms: C_22  and  C_23
REMARK   12  A    between atoms: C_23  and  O_24
REMARK   13  A    between atoms: C_23  and  C_25
REMARK   14  A    between atoms: C_25  and  O_26
REMARK   15  A    between atoms: C_25  and  C_27
REMARK   16  A    between atoms: C_27  and  O_28
REMARK                            x       y       z     vdW  Elec       q    Type
REMARK                         _______ _______ _______ _____ _____    ______ ____
ROOT
ATOM      1  C   UNL     1       4.417   4.554  17.172  0.00  0.00    +0.000 C 
ATOM      2  C   UNL     1       5.897   4.075  17.116  0.00  0.00    +0.000 C 
ATOM      3  C   UNL     1       6.873   5.175  17.327  0.00  0.00    +0.000 C 
ATOM      4  C   UNL     1       6.521   6.424  17.653  0.00  0.00    +0.000 C 
ATOM      5  O   UNL     1       5.211   6.830  17.836  0.00  0.00    +0.000 OA
ATOM      6  C   UNL     1       4.279   5.764  18.159  0.00  0.00    +0.000 C 
ENDROOT
BRANCH   2   7
ATOM      7  N   UNL     1       6.223   3.489  15.825  0.00  0.00    +0.000 N 
ATOM      8  C   UNL     1       6.031   4.044  14.604  0.00  0.00    +0.000 C 
ATOM      9  N   UNL     1       5.622   5.236  14.355  0.00  0.00    +0.000 NA
ATOM     10  N   UNL     1       6.318   3.162  13.607  0.00  0.00    +0.000 N 
ATOM     11  H   UNL     1       6.798   2.658  15.834  0.00  0.00    +0.000 HD
ATOM     12  H   UNL     1       5.443   5.755  15.210  0.00  0.00    +0.000 HD
ATOM     13  H   UNL     1       5.926   2.243  13.779  0.00  0.00    +0.000 HD
BRANCH  10  14
ATOM     14  C   UNL     1       6.185   3.596  12.216  0.00  0.00    +0.000 C 
BRANCH  14  15
ATOM     15  C   UNL     1       5.141   2.791  11.444  0.00  0.00    +0.000 C 
BRANCH  15  16
ATOM     16  C   UNL     1       3.805   3.532  11.297  0.00  0.00    +0.000 C 
BRANCH  16  17
ATOM     17  C   UNL     1       3.037   3.122  10.039  0.00  0.00    +0.000 C 
BRANCH  17  18
ATOM     18  N   UNL     1       2.921   4.223   9.092  0.00  0.00    +0.000 NA
ATOM     19  H   UNL     1       2.052   4.139   8.568  0.00  0.00    +0.000 HD
ATOM     20  H   UNL     1       3.674   4.165   8.405  0.00  0.00    +0.000 HD
ENDBRANCH  17  18
ENDBRANCH  16  17
ENDBRANCH  15  16
ENDBRANCH  14  15
ENDBRANCH  10  14
ENDBRANCH   2   7
BRANCH   1  24
ATOM     21  C   UNL     1       2.434   1.728  18.798  0.00  0.00    +0.000 C 
ATOM     22  C   UNL     1       3.544   2.731  18.639  0.00  0.00    +0.000 C 
ATOM     23  O   UNL     1       4.385   2.933  19.507  0.00  0.00    +0.000 OA
ATOM     24  N   UNL     1       3.502   3.433  17.453  0.00  0.00    +0.000 N 
ATOM     25  H   UNL     1       2.616   3.434  16.962  0.00  0.00    +0.000 HD
ENDBRANCH   1  24
BRANCH   4  26
ATOM     26  C   UNL     1       7.626   7.417  17.834  0.00  0.00    +0.000 C 
ATOM     27  O   UNL     1       7.811   8.397  17.131  0.00  0.00    +0.000 OA
BRANCH  26  28
ATOM     28  O   UNL     1       8.421   7.091  18.874  0.00  0.00    +0.000 OA
ATOM     29  H   UNL     1       9.325   7.432  18.755  0.00  0.00    +0.000 HD
ENDBRANCH  26  28
ENDBRANCH   4  26
BRANCH   6  30
ATOM     30  C   UNL     1       2.845   6.380  18.144  0.00  0.00    +0.000 C 
BRANCH  30  31
ATOM     31  O   UNL     1       2.003   5.735  19.118  0.00  0.00    +0.000 OA
ATOM     32  H   UNL     1       2.227   4.780  19.064  0.00  0.00    +0.000 HD
ENDBRANCH  30  31
BRANCH  30  33
ATOM     33  C   UNL     1       2.744   7.890  18.461  0.00  0.00    +0.000 C 
BRANCH  33  34
ATOM     34  O   UNL     1       2.579   8.614  17.221  0.00  0.00    +0.000 OA
ATOM     35  H   UNL     1       1.626   8.699  17.029  0.00  0.00    +0.000 HD
ENDBRANCH  33  34
BRANCH  33  36
ATOM     36  C   UNL     1       1.675   8.349  19.448  0.00  0.00    +0.000 C 
BRANCH  36  37
ATOM     37  O   UNL     1       1.038   9.522  18.941  0.00  0.00    +0.000 OA
ATOM     38  H   UNL     1       1.208  10.243  19.580  0.00  0.00    +0.000 HD
ENDBRANCH  36  37
ENDBRANCH  33  36
ENDBRANCH  30  33
ENDBRANCH   6  30
TORSDOF 15
ENDMDL
MODEL 3
REMARK VINA RESULT:      -7.1      1.246      1.596
REMARK  Name = 
REMARK  16 active torsions:
REMARK  status: ('A' for Active; 'I' for Inactive)
REMARK    1  A    between atoms: C_1  and  C_2
REMARK    2  A    between atoms: N_4  and  C_5
REMARK    3  A    between atoms: C_6  and  N_7
REMARK    4  A    between atoms: N_10  and  C_11
REMARK    5  A    between atoms: C_11  and  C_12
REMARK    6  A    between atoms: C_12  and  C_13
REMARK    7  A    between atoms: C_13  and  C_14
REMARK    8  A    between atoms: C_14  and  N_15
REMARK    9  A    between atoms: C_17  and  C_18
REMARK   10  A    between atoms: C_18  and  O_20
REMARK   11  A    between atoms: C_22  and  C_23
REMARK   12  A    between atoms: C_23  and  O_24
REMARK   13  A    between atoms: C_23  and  C_25
REMARK   14  A    between atoms: C_25  and  O_26
REMARK   15  A    between atoms: C_25  and  C_27
REMARK   16  A    between atoms: C_27  and  O_28
REMARK                            x       y       z     vdW  Elec       q    Type
REMARK                         _______ _______ _______ _____ _____    ______ ____
ROOT
ATOM      1  C   UNL     1       4.315   5.536  18.139  0.00  0.00    +0.000 C 
ATOM      2  C   UNL     1       3.701   5.224  19.536  0.00  0.00    +0.000 C 
ATOM      3  C   UNL     1       2.712   4.115  19.503  0.00  0.00    +0.000 C 
ATOM      4  C   UNL     1       2.464   3.377  18.415  0.00  0.00    +0.000 C 
ATOM      5  O   UNL     1       3.102   3.560  17.201  0.00  0.00    +0.000 OA
ATOM      6  C   UNL     1       4.390   4.227  17.280  0.00  0.00    +0.000 C 
ENDROOT
BRANCH   2   7
ATOM      7  N   UNL     1       2.997   6.375  20.081  0.00  0.00    +0.000 N 
ATOM      8  C   UNL     1       2.269   7.288  19.394  0.00  0.00    +0.000 C 
ATOM      9  N   UNL     1       1.973   7.255  18.145  0.00  0.00    +0.000 NA
ATOM     10  N   UNL     1       1.869   8.311  20.200  0.00  0.00    +0.000 N 
ATOM     11  H   UNL     1       2.899   6.414  21.086  0.00  0.00    +0.000 HD
ATOM     12  H   UNL     1       2.360   6.433  17.691  0.00  0.00    +0.000 HD
ATOM     13  H   UNL     1       2.615   8.649  20.796  0.00  0.00    +0.000 HD
BRANCH  10  14
ATOM     14  C   UNL     1       1.053   9.385  19.630  0.00  0.00    +0.000 C 
BRANCH  14  15
ATOM     15  C   UNL     1       0.236  10.128  20.685  0.00  0.00    +0.000 C 
BRANCH  15  16
ATOM     16  C   UNL     1      -0.309   9.200  21.779  0.00  0.00    +0.000 C 
BRANCH  16  17
ATOM     17  C   UNL     1      -0.387   9.881  23.147  0.00  0.00    +0.000 C 
BRANCH  17  18
ATOM     18  N   UNL     1      -1.391  10.938  23.169  0.00  0.00    +0.000 NA
ATOM     19  H   UNL     1      -1.823  11.023  22.250  0.00  0.00    +0.000 HD
ATOM     20  H   UNL     1      -0.941  11.834  23.356  0.00  0.00    +0.000 HD
ENDBRANCH  17  18
ENDBRANCH  16  17
ENDBRANCH  15  16
ENDBRANCH  14  15
ENDBRANCH  10  14
ENDBRANCH   2   7
BRANCH   1  24
ATOM     21  C   UNL     1       7.948   6.519  18.764  0.00  0.00    +0.000 C 
ATOM     22  C   UNL     1       6.698   5.689  18.870  0.00  0.00    +0.000 C 
ATOM     23  O   UNL     1       6.675   4.590  19.409  0.00  0.00    +0.000 OA
ATOM     24  N   UNL     1       5.595   6.255  18.266  0.00  0.00    +0.000 N 
ATOM     25  H   UNL     1       5.778   6.981  17.584  0.00  0.00    +0.000 HD
ENDBRANCH   1  24
BRANCH   4  26
ATOM     26  C   UNL     1       1.440   2.294  18.547  0.00  0.00    +0.000 C 
ATOM     27  O   UNL     1       0.251   2.420  18.310  0.00  0.00    +0.000 OA
BRANCH  26  28
ATOM     28  O   UNL     1       1.992   1.142  18.981  0.00  0.00    +0.000 OA
ATOM     29  H   UNL     1       2.814   0.934  18.501  0.00  0.00    +0.000 HD
ENDBRANCH  26  28
ENDBRANCH   4  26
BRANCH   6  30
ATOM     30  C   UNL     1       4.861   4.504  15.818  0.00  0.00    +0.000 C 
BRANCH  30  31
ATOM     31  O   UNL     1       4.945   5.920  15.570  0.00  0.00    +0.000 OA
ATOM     32  H   UNL     1       4.221   6.116  14.934  0.00  0.00    +0.000 HD
ENDBRANCH  30  31
BRANCH  30  33
ATOM     33  C   UNL     1       6.248   3.945  15.426  0.00  0.00    +0.000 C 
BRANCH  33  34
ATOM     34  O   UNL     1       6.154   3.350  14.112  0.00  0.00    +0.000 OA
ATOM     35  H   UNL     1       6.987   3.513  13.631  0.00  0.00    +0.000 HD
ENDBRANCH  33  34
BRANCH  33  36
ATOM     36  C   UNL     1       7.443   4.893  15.455  0.00  0.00    +0.000 C 
BRANCH  36  37
ATOM     37  O   UNL     1       7.625   5.461  14.157  0.00  0.00    +0.000 OA
ATOM     38  H   UNL     1       7.221   6.351  14.172  0.00  0.00    +0.000 HD
ENDBRANCH  36  37
ENDBRANCH  33  36
ENDBRANCH  30  33
ENDBRANCH   6  30
TORSDOF 15
ENDMDL
MODEL 4
REMARK VINA RESULT:      -7.0      0.839      1.042
REMARK  Name = 
REMARK  16 active torsions:
REMARK  status: ('A' for Active; 'I' for Inactive)
REMARK    1  A    between atoms: C_1  and  C_2
REMARK    2  A    between atoms: N_4  and  C_5
REMARK    3  A    between atoms: C_6  and  N_7
REMARK    4  A    between atoms: N_10  and  C_11
REMARK    5  A    between atoms: C_11  and  C_12
REMARK    6  A    between atoms: C_12  and  C_13
REMARK    7  A    between atoms: C_13  and  C_14
REMARK    8  A    between atoms: C_14  and  N_15
REMARK    9  A    between atoms: C_17  and  C_18
REMARK   10  A    between atoms: C_18  and  O_20
REMARK   11  A    between atoms: C_22  and  C_23
REMARK   12  A    between atoms: C_23  and  O_24
REMARK   13  A    between atoms: C_23  and  C_25
REMARK   14  A    between atoms: C_25  and  O_26
REMARK   15  A    between atoms: C_25  and  C_27
REMARK   16  A    between atoms: C_27  and  O_28
REMARK                            x       y       z     vdW  Elec       q    Type
REMARK                         _______ _______ _______ _____ _____    ______ ____
ROOT
ATOM      1  C   UNL     1       4.764   5.979  17.635  0.00  0.00    +0.000 C 
ATOM      2  C   UNL     1       4.392   5.530  19.079  0.00  0.00    +0.000 C 
ATOM      3  C   UNL     1       3.841   4.151  19.136  0.00  0.00    +0.000 C 
ATOM      4  C   UNL     1       3.785   3.333  18.079  0.00  0.00    +0.000 C 
ATOM      5  O   UNL     1       4.236   3.676  16.817  0.00  0.00    +0.000 OA
ATOM      6  C   UNL     1       5.222   4.742  16.788  0.00  0.00    +0.000 C 
ENDROOT
BRANCH   2   7
ATOM      7  N   UNL     1       3.379   6.394  19.664  0.00  0.00    +0.000 N 
ATOM      8  C   UNL     1       2.681   7.374  19.041  0.00  0.00    +0.000 C 
ATOM      9  N   UNL     1       2.705   7.660  17.789  0.00  0.00    +0.000 NA
ATOM     10  N   UNL     1       1.917   8.077  19.922  0.00  0.00    +0.000 N 
ATOM     11  H   UNL     1       3.036   6.138  20.580  0.00  0.00    +0.000 HD
ATOM     12  H   UNL     1       3.334   7.047  17.279  0.00  0.00    +0.000 HD
ATOM     13  H   UNL     1       2.422   8.316  20.767  0.00  0.00    +0.000 HD
BRANCH  10  14
ATOM     14  C   UNL     1       1.078   9.167  19.422  0.00  0.00    +0.000 C 
BRANCH  14  15
ATOM     15  C   UNL     1      -0.087   9.491  20.355  0.00  0.00    +0.000 C 
BRANCH  15  16
ATOM     16  C   UNL     1      -0.071   8.653  21.641  0.00  0.00    +0.000 C 
BRANCH  16  17
ATOM     17  C   UNL     1       0.500   9.417  22.837  0.00  0.00    +0.000 C 
BRANCH  17  18
ATOM     18  N   UNL     1       1.951   9.299  22.912  0.00  0.00    +0.000 NA
ATOM     19  H   UNL     1       2.236   8.360  22.639  0.00  0.00    +0.000 HD
ATOM     20  H   UNL     1       2.254   9.419  23.878  0.00  0.00    +0.000 HD
ENDBRANCH  17  18
ENDBRANCH  16  17
ENDBRANCH  15  16
ENDBRANCH  14  15
ENDBRANCH  10  14
ENDBRANCH   2   7
BRANCH   1  24
ATOM     21  C   UNL     1       7.910   8.135  17.761  0.00  0.00    +0.000 C 
ATOM     22  C   UNL     1       7.063   6.906  17.943  0.00  0.00    +0.000 C 
ATOM     23  O   UNL     1       7.528   5.824  18.279  0.00  0.00    +0.000 OA
ATOM     24  N   UNL     1       5.728   7.094  17.653  0.00  0.00    +0.000 N 
ATOM     25  H   UNL     1       5.501   7.901  17.086  0.00  0.00    +0.000 HD
ENDBRANCH   1  24
BRANCH   4  26
ATOM     26  C   UNL     1       3.203   1.972  18.303  0.00  0.00    +0.000 C 
ATOM     27  O   UNL     1       2.045   1.746  18.612  0.00  0.00    +0.000 OA
BRANCH  26  28
ATOM     28  O   UNL     1       4.129   1.005  18.137  0.00  0.00    +0.000 OA
ATOM     29  H   UNL     1       4.048   0.311  18.816  0.00  0.00    +0.000 HD
ENDBRANCH  26  28
ENDBRANCH   4  26
BRANCH   6  30
ATOM     30  C   UNL     1       5.467   5.108  15.290  0.00  0.00    +0.000 C 
BRANCH  30  31
ATOM     31  O   UNL     1       5.084   6.472  15.030  0.00  0.00    +0.000 OA
ATOM     32  H   UNL     1       5.823   6.853  14.505  0.00  0.00    +0.000 HD
ENDBRANCH  30  31
BRANCH  30  33
ATOM     33  C   UNL     1       6.924   4.996  14.786  0.00  0.00    +0.000 C 
BRANCH  33  34
ATOM     34  O   UNL     1       7.714   4.329  15.797  0.00  0.00    +0.000 OA
ATOM     35  H   UNL     1       8.055   4.996  16.422  0.00  0.00    +0.000 HD
ENDBRANCH  33  34
BRANCH  33  36
ATOM     36  C   UNL     1       7.171   4.321  13.440  0.00  0.00    +0.000 C 
BRANCH  36  37
ATOM     37  O   UNL     1       6.272   3.222  13.291  0.00  0.00    +0.000 OA
ATOM     38  H   UNL     1       5.976   3.214  12.359  0.00  0.00    +0.000 HD
ENDBRANCH  36  37
ENDBRANCH  33  36
ENDBRANCH  30  33
ENDBRANCH   6  30
TORSDOF 15
ENDMDL
MODEL 5
REMARK VINA RESULT:      -7.0      1.890      2.247
REMARK  Name = 
REMARK  16 active torsions:
REMARK  status: ('A' for Active; 'I' for Inactive)
REMARK    1  A    between atoms: C_1  and  C_2
REMARK    2  A    between atoms: N_4  and  C_5
REMARK    3  A    between atoms: C_6  and  N_7
REMARK    4  A    between atoms: N_10  and  C_11
REMARK    5  A    between atoms: C_11  and  C_12
REMARK    6  A    between atoms: C_12  and  C_13
REMARK    7  A    between atoms: C_13  and  C_14
REMARK    8  A    between atoms: C_14  and  N_15
REMARK    9  A    between atoms: C_17  and  C_18
REMARK   10  A    between atoms: C_18  and  O_20
REMARK   11  A    between atoms: C_22  and  C_23
REMARK   12  A    between atoms: C_23  and  O_24
REMARK   13  A    between atoms: C_23  and  C_25
REMARK   14  A    between atoms: C_25  and  O_26
REMARK   15  A    between atoms: C_25  and  C_27
REMARK   16  A    between atoms: C_27  and  O_28
REMARK                            x       y       z     vdW  Elec       q    Type
REMARK                         _______ _______ _______ _____ _____    ______ ____
ROOT
ATOM      1  C   UNL     1       4.256   5.631  17.998  0.00  0.00    +0.000 C 
ATOM      2  C   UNL     1       3.611   5.400  19.396  0.00  0.00    +0.000 C 
ATOM      3  C   UNL     1       2.651   4.265  19.414  0.00  0.00    +0.000 C 
ATOM      4  C   UNL     1       2.453   3.447  18.373  0.00  0.00    +0.000 C 
ATOM      5  O   UNL     1       3.121   3.563  17.167  0.00  0.00    +0.000 OA
ATOM      6  C   UNL     1       4.389   4.268  17.235  0.00  0.00    +0.000 C 
ENDROOT
BRANCH   2   7
ATOM      7  N   UNL     1       2.864   6.566  19.841  0.00  0.00    +0.000 N 
ATOM      8  C   UNL     1       2.282   7.510  19.062  0.00  0.00    +0.000 C 
ATOM      9  N   UNL     1       2.189   7.501  17.782  0.00  0.00    +0.000 NA
ATOM     10  N   UNL     1       1.789   8.535  19.811  0.00  0.00    +0.000 N 
ATOM     11  H   UNL     1       2.606   6.596  20.819  0.00  0.00    +0.000 HD
ATOM     12  H   UNL     1       2.619   6.672  17.382  0.00  0.00    +0.000 HD
ATOM     13  H   UNL     1       2.439   8.842  20.524  0.00  0.00    +0.000 HD
BRANCH  10  14
ATOM     14  C   UNL     1       1.107   9.641  19.136  0.00  0.00    +0.000 C 
BRANCH  14  15
ATOM     15  C   UNL     1       0.537  10.667  20.114  0.00  0.00    +0.000 C 
BRANCH  15  16
ATOM     16  C   UNL     1      -0.875  11.132  19.734  0.00  0.00    +0.000 C 
BRANCH  16  17
ATOM     17  C   UNL     1      -1.122  11.097  18.224  0.00  0.00    +0.000 C 
BRANCH  17  18
ATOM     18  N   UNL     1      -1.276  12.437  17.670  0.00  0.00    +0.000 NA
ATOM     19  H   UNL     1      -1.245  13.127  18.419  0.00  0.00    +0.000 HD
ATOM     20  H   UNL     1      -2.197  12.525  17.240  0.00  0.00    +0.000 HD
ENDBRANCH  17  18
ENDBRANCH  16  17
ENDBRANCH  15  16
ENDBRANCH  14  15
ENDBRANCH  10  14
ENDBRANCH   2   7
BRANCH   1  24
ATOM     21  C   UNL     1       7.859   6.736  18.597  0.00  0.00    +0.000 C 
ATOM     22  C   UNL     1       6.635   5.870  18.721  0.00  0.00    +0.000 C 
ATOM     23  O   UNL     1       6.647   4.780  19.279  0.00  0.00    +0.000 OA
ATOM     24  N   UNL     1       5.514   6.391  18.109  0.00  0.00    +0.000 N 
ATOM     25  H   UNL     1       5.674   7.110  17.414  0.00  0.00    +0.000 HD
ENDBRANCH   1  24
BRANCH   4  26
ATOM     26  C   UNL     1       1.453   2.348  18.553  0.00  0.00    +0.000 C 
ATOM     27  O   UNL     1       0.245   2.473  18.434  0.00  0.00    +0.000 OA
BRANCH  26  28
ATOM     28  O   UNL     1       2.050   1.185  18.883  0.00  0.00    +0.000 OA
ATOM     29  H   UNL     1       1.515   0.674  19.517  0.00  0.00    +0.000 HD
ENDBRANCH  26  28
ENDBRANCH   4  26
BRANCH   6  30
ATOM     30  C   UNL     1       4.894   4.457  15.770  0.00  0.00    +0.000 C 
BRANCH  30  31
ATOM     31  O   UNL     1       4.983   5.856  15.438  0.00  0.00    +0.000 OA
ATOM     32  H   UNL     1       4.972   6.328  16.300  0.00  0.00    +0.000 HD
ENDBRANCH  30  31
BRANCH  30  33
ATOM     33  C   UNL     1       6.290   3.877  15.446  0.00  0.00    +0.000 C 
BRANCH  33  34
ATOM     34  O   UNL     1       6.248   3.273  14.133  0.00  0.00    +0.000 OA
ATOM     35  H   UNL     1       6.335   2.306  14.227  0.00  0.00    +0.000 HD
ENDBRANCH  33  34
BRANCH  33  36
ATOM     36  C   UNL     1       7.494   4.811  15.522  0.00  0.00    +0.000 C 
BRANCH  36  37
ATOM     37  O   UNL     1       7.676   5.450  14.258  0.00  0.00    +0.000 OA
ATOM     38  H   UNL     1       8.009   6.353  14.436  0.00  0.00    +0.000 HD
ENDBRANCH  36  37
ENDBRANCH  33  36
ENDBRANCH  30  33
ENDBRANCH   6  30
TORSDOF 15
ENDMDL
MODEL 6
REMARK VINA RESULT:      -6.9      3.417      8.009
REMARK  Name = 
REMARK  16 active torsions:
REMARK  status: ('A' for Active; 'I' for Inactive)
REMARK    1  A    between atoms: C_1  and  C_2
REMARK    2  A    between atoms: N_4  and  C_5
REMARK    3  A    between atoms: C_6  and  N_7
REMARK    4  A    between atoms: N_10  and  C_11
REMARK    5  A    between atoms: C_11  and  C_12
REMARK    6  A    between atoms: C_12  and  C_13
REMARK    7  A    between atoms: C_13  and  C_14
REMARK    8  A    between atoms: C_14  and  N_15
REMARK    9  A    between atoms: C_17  and  C_18
REMARK   10  A    between atoms: C_18  and  O_20
REMARK   11  A    between atoms: C_22  and  C_23
REMARK   12  A    between atoms: C_23  and  O_24
REMARK   13  A    between atoms: C_23  and  C_25
REMARK   14  A    between atoms: C_25  and  O_26
REMARK   15  A    between atoms: C_25  and  C_27
REMARK   16  A    between atoms: C_27  and  O_28
REMARK                            x       y       z     vdW  Elec       q    Type
REMARK                         _______ _______ _______ _____ _____    ______ ____
ROOT
ATOM      1  C   UNL     1       4.596   4.525  17.250  0.00  0.00    +0.000 C 
ATOM      2  C   UNL     1       6.093   4.114  17.136  0.00  0.00    +0.000 C 
ATOM      3  C   UNL     1       7.026   5.253  17.340  0.00  0.00    +0.000 C 
ATOM      4  C   UNL     1       6.631   6.477  17.706  0.00  0.00    +0.000 C 
ATOM      5  O   UNL     1       5.311   6.820  17.941  0.00  0.00    +0.000 OA
ATOM      6  C   UNL     1       4.438   5.707  18.269  0.00  0.00    +0.000 C 
ENDROOT
BRANCH   2   7
ATOM      7  N   UNL     1       6.401   3.572  15.821  0.00  0.00    +0.000 N 
ATOM      8  C   UNL     1       6.016   4.070  14.621  0.00  0.00    +0.000 C 
ATOM      9  N   UNL     1       5.395   5.173  14.408  0.00  0.00    +0.000 NA
ATOM     10  N   UNL     1       6.360   3.232  13.604  0.00  0.00    +0.000 N 
ATOM     11  H   UNL     1       7.105   2.848  15.781  0.00  0.00    +0.000 HD
ATOM     12  H   UNL     1       5.205   5.668  15.275  0.00  0.00    +0.000 HD
ATOM     13  H   UNL     1       6.143   2.264  13.809  0.00  0.00    +0.000 HD
BRANCH  10  14
ATOM     14  C   UNL     1       6.038   3.618  12.229  0.00  0.00    +0.000 C 
BRANCH  14  15
ATOM     15  C   UNL     1       5.299   2.521  11.466  0.00  0.00    +0.000 C 
BRANCH  15  16
ATOM     16  C   UNL     1       3.833   2.877  11.181  0.00  0.00    +0.000 C 
BRANCH  16  17
ATOM     17  C   UNL     1       3.686   4.158  10.357  0.00  0.00    +0.000 C 
BRANCH  17  18
ATOM     18  N   UNL     1       2.836   3.956   9.190  0.00  0.00    +0.000 NA
ATOM     19  H   UNL     1       1.902   4.317   9.377  0.00  0.00    +0.000 HD
ATOM     20  H   UNL     1       2.726   2.957   9.015  0.00  0.00    +0.000 HD
ENDBRANCH  17  18
ENDBRANCH  16  17
ENDBRANCH  15  16
ENDBRANCH  14  15
ENDBRANCH  10  14
ENDBRANCH   2   7
BRANCH   1  24
ATOM     21  C   UNL     1       2.722   1.639  18.898  0.00  0.00    +0.000 C 
ATOM     22  C   UNL     1       3.773   2.704  18.749  0.00  0.00    +0.000 C 
ATOM     23  O   UNL     1       4.559   2.991  19.643  0.00  0.00    +0.000 OA
ATOM     24  N   UNL     1       3.741   3.359  17.535  0.00  0.00    +0.000 N 
ATOM     25  H   UNL     1       2.880   3.286  17.007  0.00  0.00    +0.000 HD
ENDBRANCH   1  24
BRANCH   4  26
ATOM     26  C   UNL     1       7.696   7.515  17.873  0.00  0.00    +0.000 C 
ATOM     27  O   UNL     1       7.846   8.489  17.155  0.00  0.00    +0.000 OA
BRANCH  26  28
ATOM     28  O   UNL     1       8.499   7.236  18.921  0.00  0.00    +0.000 OA
ATOM     29  H   UNL     1       8.502   6.284  19.127  0.00  0.00    +0.000 HD
ENDBRANCH  26  28
ENDBRANCH   4  26
BRANCH   6  30
ATOM     30  C   UNL     1       2.978   6.258  18.315  0.00  0.00    +0.000 C 
BRANCH  30  31
ATOM     31  O   UNL     1       2.102   5.449  17.508  0.00  0.00    +0.000 OA
ATOM     32  H   UNL     1       2.682   5.036  16.830  0.00  0.00    +0.000 HD
ENDBRANCH  30  31
BRANCH  30  33
ATOM     33  C   UNL     1       2.308   6.310  19.707  0.00  0.00    +0.000 C 
BRANCH  33  34
ATOM     34  O   UNL     1       3.139   5.593  20.649  0.00  0.00    +0.000 OA
ATOM     35  H   UNL     1       3.937   5.274  20.187  0.00  0.00    +0.000 HD
ENDBRANCH  33  34
BRANCH  33  36
ATOM     36  C   UNL     1       1.965   7.677  20.292  0.00  0.00    +0.000 C 
BRANCH  36  37
ATOM     37  O   UNL     1       1.667   8.582  19.229  0.00  0.00    +0.000 OA
ATOM     38  H   UNL     1       0.722   8.824  19.311  0.00  0.00    +0.000 HD
ENDBRANCH  36  37
ENDBRANCH  33  36
ENDBRANCH  30  33
ENDBRANCH   6  30
TORSDOF 15
ENDMDL
MODEL 7
REMARK VINA RESULT:      -6.9      3.795      8.210
REMARK  Name = 
REMARK  16 active torsions:
REMARK  status: ('A' for Active; 'I' for Inactive)
REMARK    1  A    between atoms: C_1  and  C_2
REMARK    2  A    between atoms: N_4  and  C_5
REMARK    3  A    between atoms: C_6  and  N_7
REMARK    4  A    between atoms: N_10  and  C_11
REMARK    5  A    between atoms: C_11  and  C_12
REMARK    6  A    between atoms: C_12  and  C_13
REMARK    7  A    between atoms: C_13  and  C_14
REMARK    8  A    between atoms: C_14  and  N_15
REMARK    9  A    between atoms: C_17  and  C_18
REMARK   10  A    between atoms: C_18  and  O_20
REMARK   11  A    between atoms: C_22  and  C_23
REMARK   12  A    between atoms: C_23  and  O_24
REMARK   13  A    between atoms: C_23  and  C_25
REMARK   14  A    between atoms: C_25  and  O_26
REMARK   15  A    between atoms: C_25  and  C_27
REMARK   16  A    between atoms: C_27  and  O_28
REMARK                            x       y       z     vdW  Elec       q    Type
REMARK                         _______ _______ _______ _____ _____    ______ ____
ROOT
ATOM      1  C   UNL     1       3.017   4.551  18.272  0.00  0.00    +0.000 C 
ATOM      2  C   UNL     1       4.070   5.602  17.811  0.00  0.00    +0.000 C 
ATOM      3  C   UNL     1       3.572   6.999  17.894  0.00  0.00    +0.000 C 
ATOM      4  C   UNL     1       2.389   7.334  18.424  0.00  0.00    +0.000 C 
ATOM      5  O   UNL     1       1.501   6.418  18.959  0.00  0.00    +0.000 OA
ATOM      6  C   UNL     1       2.097   5.163  19.384  0.00  0.00    +0.000 C 
ENDROOT
BRANCH   2   7
ATOM      7  N   UNL     1       4.462   5.395  16.426  0.00  0.00    +0.000 N 
ATOM      8  C   UNL     1       5.455   4.595  15.969  0.00  0.00    +0.000 C 
ATOM      9  N   UNL     1       6.174   3.787  16.661  0.00  0.00    +0.000 NA
ATOM     10  N   UNL     1       5.639   4.750  14.628  0.00  0.00    +0.000 N 
ATOM     11  H   UNL     1       3.834   5.749  15.717  0.00  0.00    +0.000 HD
ATOM     12  H   UNL     1       5.914   3.804  17.642  0.00  0.00    +0.000 HD
ATOM     13  H   UNL     1       5.646   5.724  14.348  0.00  0.00    +0.000 HD
BRANCH  10  14
ATOM     14  C   UNL     1       6.664   3.949  13.956  0.00  0.00    +0.000 C 
BRANCH  14  15
ATOM     15  C   UNL     1       6.531   3.979  12.434  0.00  0.00    +0.000 C 
BRANCH  15  16
ATOM     16  C   UNL     1       5.341   3.155  11.924  0.00  0.00    +0.000 C 
BRANCH  16  17
ATOM     17  C   UNL     1       5.746   1.752  11.466  0.00  0.00    +0.000 C 
BRANCH  17  18
ATOM     18  N   UNL     1       7.185   1.646  11.258  0.00  0.00    +0.000 NA
ATOM     19  H   UNL     1       7.602   2.575  11.244  0.00  0.00    +0.000 HD
ATOM     20  H   UNL     1       7.369   1.236  10.342  0.00  0.00    +0.000 HD
ENDBRANCH  17  18
ENDBRANCH  16  17
ENDBRANCH  15  16
ENDBRANCH  14  15
ENDBRANCH  10  14
ENDBRANCH   2   7
BRANCH   1  24
ATOM     21  C   UNL     1       4.186   0.924  18.464  0.00  0.00    +0.000 C 
ATOM     22  C   UNL     1       3.314   2.080  18.059  0.00  0.00    +0.000 C 
ATOM     23  O   UNL     1       2.404   1.972  17.246  0.00  0.00    +0.000 OA
ATOM     24  N   UNL     1       3.659   3.279  18.647  0.00  0.00    +0.000 N 
ATOM     25  H   UNL     1       4.594   3.338  19.032  0.00  0.00    +0.000 HD
ENDBRANCH   1  24
BRANCH   4  26
ATOM     26  C   UNL     1       2.036   8.788  18.435  0.00  0.00    +0.000 C 
ATOM     27  O   UNL     1       1.468   9.365  19.347  0.00  0.00    +0.000 OA
BRANCH  26  28
ATOM     28  O   UNL     1       2.410   9.397  17.291  0.00  0.00    +0.000 OA
ATOM     29  H   UNL     1       2.379   8.786  16.533  0.00  0.00    +0.000 HD
ENDBRANCH  26  28
ENDBRANCH   4  26
BRANCH   6  30
ATOM     30  C   UNL     1       0.929   4.205  19.780  0.00  0.00    +0.000 C 
BRANCH  30  31
ATOM     31  O   UNL     1       0.525   3.402  18.655  0.00  0.00    +0.000 OA
ATOM     32  H   UNL     1       0.861   2.499  18.847  0.00  0.00    +0.000 HD
ENDBRANCH  30  31
BRANCH  30  33
ATOM     33  C   UNL     1       1.226   3.194  20.910  0.00  0.00    +0.000 C 
BRANCH  33  34
ATOM     34  O   UNL     1       1.365   1.877  20.330  0.00  0.00    +0.000 OA
ATOM     35  H   UNL     1       2.245   1.522  20.559  0.00  0.00    +0.000 HD
ENDBRANCH  33  34
BRANCH  33  36
ATOM     36  C   UNL     1       2.419   3.461  21.823  0.00  0.00    +0.000 C 
BRANCH  36  37
ATOM     37  O   UNL     1       3.395   2.435  21.635  0.00  0.00    +0.000 OA
ATOM     38  H   UNL     1       3.342   2.154  20.700  0.00  0.00    +0.000 HD
ENDBRANCH  36  37
ENDBRANCH  33  36
ENDBRANCH  30  33
ENDBRANCH   6  30
TORSDOF 15
ENDMDL
MODEL 8
REMARK VINA RESULT:      -6.9      2.052      2.465
REMARK  Name = 
REMARK  16 active torsions:
REMARK  status: ('A' for Active; 'I' for Inactive)
REMARK    1  A    between atoms: C_1  and  C_2
REMARK    2  A    between atoms: N_4  and  C_5
REMARK    3  A    between atoms: C_6  and  N_7
REMARK    4  A    between atoms: N_10  and  C_11
REMARK    5  A    between atoms: C_11  and  C_12
REMARK    6  A    between atoms: C_12  and  C_13
REMARK    7  A    between atoms: C_13  and  C_14
REMARK    8  A    between atoms: C_14  and  N_15
REMARK    9  A    between atoms: C_17  and  C_18
REMARK   10  A    between atoms: C_18  and  O_20
REMARK   11  A    between atoms: C_22  and  C_23
REMARK   12  A    between atoms: C_23  and  O_24
REMARK   13  A    between atoms: C_23  and  C_25
REMARK   14  A    between atoms: C_25  and  O_26
REMARK   15  A    between atoms: C_25  and  C_27
REMARK   16  A    between atoms: C_27  and  O_28
REMARK                            x       y       z     vdW  Elec       q    Type
REMARK                         _______ _______ _______ _____ _____    ______ ____
ROOT
ATOM      1  C   UNL     1       4.815   5.742  17.395  0.00  0.00    +0.000 C 
ATOM      2  C   UNL     1       3.731   6.016  18.479  0.00  0.00    +0.000 C 
ATOM      3  C   UNL     1       2.738   4.918  18.599  0.00  0.00    +0.000 C 
ATOM      4  C   UNL     1       2.831   3.759  17.937  0.00  0.00    +0.000 C 
ATOM      5  O   UNL     1       3.865   3.451  17.070  0.00  0.00    +0.000 OA
ATOM      6  C   UNL     1       5.089   4.202  17.286  0.00  0.00    +0.000 C 
ENDROOT
BRANCH   2   7
ATOM      7  N   UNL     1       2.968   7.218  18.181  0.00  0.00    +0.000 N 
ATOM      8  C   UNL     1       2.219   7.946  19.045  0.00  0.00    +0.000 C 
ATOM      9  N   UNL     1       2.121   7.774  20.313  0.00  0.00    +0.000 NA
ATOM     10  N   UNL     1       1.528   8.925  18.398  0.00  0.00    +0.000 N 
ATOM     11  H   UNL     1       3.139   7.656  17.286  0.00  0.00    +0.000 HD
ATOM     12  H   UNL     1       2.691   6.994  20.629  0.00  0.00    +0.000 HD
ATOM     13  H   UNL     1       1.087   8.592  17.549  0.00  0.00    +0.000 HD
BRANCH  10  14
ATOM     14  C   UNL     1       0.676   9.825  19.178  0.00  0.00    +0.000 C 
BRANCH  14  15
ATOM     15  C   UNL     1      -0.795   9.742  18.773  0.00  0.00    +0.000 C 
BRANCH  15  16
ATOM     16  C   UNL     1      -1.560  11.046  19.038  0.00  0.00    +0.000 C 
BRANCH  16  17
ATOM     17  C   UNL     1      -1.859  11.826  17.756  0.00  0.00    +0.000 C 
BRANCH  17  18
ATOM     18  N   UNL     1      -0.936  12.938  17.570  0.00  0.00    +0.000 NA
ATOM     19  H   UNL     1      -0.007  12.583  17.351  0.00  0.00    +0.000 HD
ATOM     20  H   UNL     1      -0.844  13.456  18.444  0.00  0.00    +0.000 HD
ENDBRANCH  17  18
ENDBRANCH  16  17
ENDBRANCH  15  16
ENDBRANCH  14  15
ENDBRANCH  10  14
ENDBRANCH   2   7
BRANCH   1  24
ATOM     21  C   UNL     1       8.191   7.095  18.549  0.00  0.00    +0.000 C 
ATOM     22  C   UNL     1       6.964   6.225  18.573  0.00  0.00    +0.000 C 
ATOM     23  O   UNL     1       6.837   5.279  19.339  0.00  0.00    +0.000 OA
ATOM     24  N   UNL     1       6.020   6.559  17.625  0.00  0.00    +0.000 N 
ATOM     25  H   UNL     1       6.343   7.122  16.847  0.00  0.00    +0.000 HD
ENDBRANCH   1  24
BRANCH   4  26
ATOM     26  C   UNL     1       1.749   2.752  18.171  0.00  0.00    +0.000 C 
ATOM     27  O   UNL     1       0.564   3.012  18.293  0.00  0.00    +0.000 OA
BRANCH  26  28
ATOM     28  O   UNL     1       2.246   1.500  18.249  0.00  0.00    +0.000 OA
ATOM     29  H   UNL     1       2.107   1.113  19.131  0.00  0.00    +0.000 HD
ENDBRANCH  26  28
ENDBRANCH   4  26
BRANCH   6  30
ATOM     30  C   UNL     1       6.060   3.855  16.114  0.00  0.00    +0.000 C 
BRANCH  30  31
ATOM     31  O   UNL     1       5.797   2.533  15.609  0.00  0.00    +0.000 OA
ATOM     32  H   UNL     1       6.365   2.441  14.812  0.00  0.00    +0.000 HD
ENDBRANCH  30  31
BRANCH  30  33
ATOM     33  C   UNL     1       5.997   4.779  14.876  0.00  0.00    +0.000 C 
BRANCH  33  34
ATOM     34  O   UNL     1       7.286   5.410  14.701  0.00  0.00    +0.000 OA
ATOM     35  H   UNL     1       7.938   4.959  15.270  0.00  0.00    +0.000 HD
ENDBRANCH  33  34
BRANCH  33  36
ATOM     36  C   UNL     1       5.558   4.173  13.546  0.00  0.00    +0.000 C 
BRANCH  36  37
ATOM     37  O   UNL     1       6.562   3.266  13.088  0.00  0.00    +0.000 OA
ATOM     38  H   UNL     1       6.105   2.452  12.795  0.00  0.00    +0.000 HD
ENDBRANCH  36  37
ENDBRANCH  33  36
ENDBRANCH  30  33
ENDBRANCH   6  30
TORSDOF 15
ENDMDL
MODEL 9
REMARK VINA RESULT:      -6.9      3.336      8.305
REMARK  Name = 
REMARK  16 active torsions:
REMARK  status: ('A' for Active; 'I' for Inactive)
REMARK    1  A    between atoms: C_1  and  C_2
REMARK    2  A    between atoms: N_4  and  C_5
REMARK    3  A    between atoms: C_6  and  N_7
REMARK    4  A    between atoms: N_10  and  C_11
REMARK    5  A    between atoms: C_11  and  C_12
REMARK    6  A    between atoms: C_12  and  C_13
REMARK    7  A    between atoms: C_13  and  C_14
REMARK    8  A    between atoms: C_14  and  N_15
REMARK    9  A    between atoms: C_17  and  C_18
REMARK   10  A    between atoms: C_18  and  O_20
REMARK   11  A    between atoms: C_22  and  C_23
REMARK   12  A    between atoms: C_23  and  O_24
REMARK   13  A    between atoms: C_23  and  C_25
REMARK   14  A    between atoms: C_25  and  O_26
REMARK   15  A    between atoms: C_25  and  C_27
REMARK   16  A    between atoms: C_27  and  O_28
REMARK                            x       y       z     vdW  Elec       q    Type
REMARK                         _______ _______ _______ _____ _____    ______ ____
ROOT
ATOM      1  C   UNL     1       4.326   4.619  17.493  0.00  0.00    +0.000 C 
ATOM      2  C   UNL     1       5.779   4.072  17.382  0.00  0.00    +0.000 C 
ATOM      3  C   UNL     1       6.812   5.130  17.529  0.00  0.00    +0.000 C 
ATOM      4  C   UNL     1       6.531   6.399  17.848  0.00  0.00    +0.000 C 
ATOM      5  O   UNL     1       5.250   6.867  18.080  0.00  0.00    +0.000 OA
ATOM      6  C   UNL     1       4.287   5.850  18.463  0.00  0.00    +0.000 C 
ENDROOT
BRANCH   2   7
ATOM      7  N   UNL     1       6.020   3.451  16.088  0.00  0.00    +0.000 N 
ATOM      8  C   UNL     1       6.125   4.074  14.890  0.00  0.00    +0.000 C 
ATOM      9  N   UNL     1       6.136   5.340  14.678  0.00  0.00    +0.000 NA
ATOM     10  N   UNL     1       6.210   3.175  13.870  0.00  0.00    +0.000 N 
ATOM     11  H   UNL     1       6.302   2.480  16.095  0.00  0.00    +0.000 HD
ATOM     12  H   UNL     1       6.052   5.864  15.544  0.00  0.00    +0.000 HD
ATOM     13  H   UNL     1       5.535   2.424  13.958  0.00  0.00    +0.000 HD
BRANCH  10  14
ATOM     14  C   UNL     1       6.347   3.670  12.499  0.00  0.00    +0.000 C 
BRANCH  14  15
ATOM     15  C   UNL     1       5.114   3.385  11.643  0.00  0.00    +0.000 C 
BRANCH  15  16
ATOM     16  C   UNL     1       5.018   1.916  11.208  0.00  0.00    +0.000 C 
BRANCH  16  17
ATOM     17  C   UNL     1       6.389   1.266  11.014  0.00  0.00    +0.000 C 
BRANCH  17  18
ATOM     18  N   UNL     1       6.350  -0.168  11.275  0.00  0.00    +0.000 NA
ATOM     19  H   UNL     1       7.191  -0.451  11.774  0.00  0.00    +0.000 HD
ATOM     20  H   UNL     1       6.359  -0.677  10.391  0.00  0.00    +0.000 HD
ENDBRANCH  17  18
ENDBRANCH  16  17
ENDBRANCH  15  16
ENDBRANCH  14  15
ENDBRANCH  10  14
ENDBRANCH   2   7
BRANCH   1  24
ATOM     21  C   UNL     1       2.295   1.912  19.255  0.00  0.00    +0.000 C 
ATOM     22  C   UNL     1       3.440   2.859  19.028  0.00  0.00    +0.000 C 
ATOM     23  O   UNL     1       4.329   3.035  19.853  0.00  0.00    +0.000 OA
ATOM     24  N   UNL     1       3.375   3.546  17.834  0.00  0.00    +0.000 N 
ATOM     25  H   UNL     1       2.468   3.582  17.385  0.00  0.00    +0.000 HD
ENDBRANCH   1  24
BRANCH   4  26
ATOM     26  C   UNL     1       7.687   7.344  17.961  0.00  0.00    +0.000 C 
ATOM     27  O   UNL     1       7.945   8.235  17.170  0.00  0.00    +0.000 OA
BRANCH  26  28
ATOM     28  O   UNL     1       8.435   7.081  19.053  0.00  0.00    +0.000 OA
ATOM     29  H   UNL     1       8.932   7.867  19.345  0.00  0.00    +0.000 HD
ENDBRANCH  26  28
ENDBRANCH   4  26
BRANCH   6  30
ATOM     30  C   UNL     1       2.882   6.531  18.499  0.00  0.00    +0.000 C 
BRANCH  30  31
ATOM     31  O   UNL     1       2.003   5.938  17.525  0.00  0.00    +0.000 OA
ATOM     32  H   UNL     1       1.099   6.229  17.779  0.00  0.00    +0.000 HD
ENDBRANCH  30  31
BRANCH  30  33
ATOM     33  C   UNL     1       2.114   6.446  19.838  0.00  0.00    +0.000 C 
BRANCH  33  34
ATOM     34  O   UNL     1       2.883   5.646  20.764  0.00  0.00    +0.000 OA
ATOM     35  H   UNL     1       2.295   4.983  21.172  0.00  0.00    +0.000 HD
ENDBRANCH  33  34
BRANCH  33  36
ATOM     36  C   UNL     1       1.714   7.749  20.523  0.00  0.00    +0.000 C 
BRANCH  36  37
ATOM     37  O   UNL     1       1.562   8.773  19.539  0.00  0.00    +0.000 OA
ATOM     38  H   UNL     1       0.646   8.714  19.199  0.00  0.00    +0.000 HD
ENDBRANCH  36  37
ENDBRANCH  33  36
ENDBRANCH  30  33
ENDBRANCH   6  30
TORSDOF 15
ENDMDL
