MODEL 1
REMARK VINA RESULT:      -7.5      0.000      0.000
REMARK  Name = 
REMARK  2 active torsions:
REMARK  status: ('A' for Active; 'I' for Inactive)
REMARK    1  A    between atoms: N_1  and  N_2
REMARK    2  A    between atoms: C_3  and  C_4
REMARK                            x       y       z     vdW  Elec       q    Type
REMARK                         _______ _______ _______ _____ _____    ______ ____
ROOT
ATOM      1  N   UNL     1       5.954   4.831  18.384  0.00  0.00    +0.000 N 
ATOM      2  C   UNL     1       4.709   4.226  18.121  0.00  0.00    +0.000 A 
ATOM      3  N   UNL     1       4.340   3.928  16.908  0.00  0.00    +0.000 NA
ATOM      4  C   UNL     1       5.227   4.152  15.843  0.00  0.00    +0.000 A 
ATOM      5  C   UNL     1       4.867   3.735  14.559  0.00  0.00    +0.000 A 
ATOM      6  C   UNL     1       5.748   3.902  13.485  0.00  0.00    +0.000 A 
ATOM      7 CL   UNL     1       5.308   3.341  11.920  0.00  0.00    +0.000 Cl
ATOM      8  C   UNL     1       6.990   4.509  13.672  0.00  0.00    +0.000 A 
ATOM      9  C   UNL     1       7.353   4.950  14.942  0.00  0.00    +0.000 A 
ATOM     10  C   UNL     1       6.473   4.761  16.012  0.00  0.00    +0.000 A 
ATOM     11  C   UNL     1       6.844   5.181  17.369  0.00  0.00    +0.000 A 
ATOM     12  O   UNL     1       7.880   5.824  17.563  0.00  0.00    +0.000 OA
ENDROOT
BRANCH   2  13
ATOM     13  C   UNL     1       3.745   3.969  19.247  0.00  0.00    +0.000 A 
ATOM     14  C   UNL     1       2.829   4.975  19.591  0.00  0.00    +0.000 A 
ATOM     15  C   UNL     1       1.988   4.820  20.699  0.00  0.00    +0.000 A 
ATOM     16  C   UNL     1       2.059   3.664  21.474  0.00  0.00    +0.000 A 
ATOM     17  C   UNL     1       2.923   2.637  21.108  0.00  0.00    +0.000 A 
ATOM     18  C   UNL     1       3.732   2.775  19.979  0.00  0.00    +0.000 A 
ENDBRANCH   2  13
BRANCH   1  19
ATOM     19  N   UNL     1       6.349   5.230  19.698  0.00  0.00    +0.000 N 
ATOM     20  H   UNL     1       5.907   6.127  19.895  0.00  0.00    +0.000 HD
ATOM     21  H   UNL     1       7.356   5.430  19.642  0.00  0.00    +0.000 HD
ENDBRANCH   1  19
TORSDOF 2
ENDMDL
MODEL 2
REMARK VINA RESULT:      -7.4      0.223      1.125
REMARK  Name = 
REMARK  2 active torsions:
REMARK  status: ('A' for Active; 'I' for Inactive)
REMARK    1  A    between atoms: N_1  and  N_2
REMARK    2  A    between atoms: C_3  and  C_4
REMARK                            x       y       z     vdW  Elec       q    Type
REMARK                         _______ _______ _______ _____ _____    ______ ____
ROOT
ATOM      1  N   UNL     1       5.871   4.815  18.376  0.00  0.00    +0.000 N 
ATOM      2  C   UNL     1       4.588   4.306  18.094  0.00  0.00    +0.000 A 
ATOM      3  N   UNL     1       4.215   4.038  16.875  0.00  0.00    +0.000 NA
ATOM      4  C   UNL     1       5.131   4.196  15.823  0.00  0.00    +0.000 A 
ATOM      5  C   UNL     1       4.759   3.809  14.534  0.00  0.00    +0.000 A 
ATOM      6  C   UNL     1       5.665   3.911  13.473  0.00  0.00    +0.000 A 
ATOM      7 CL   UNL     1       5.206   3.386  11.901  0.00  0.00    +0.000 Cl
ATOM      8  C   UNL     1       6.947   4.421  13.678  0.00  0.00    +0.000 A 
ATOM      9  C   UNL     1       7.323   4.833  14.954  0.00  0.00    +0.000 A 
ATOM     10  C   UNL     1       6.417   4.709  16.011  0.00  0.00    +0.000 A 
ATOM     11  C   UNL     1       6.799   5.098  17.374  0.00  0.00    +0.000 A 
ATOM     12  O   UNL     1       7.878   5.661  17.584  0.00  0.00    +0.000 OA
ENDROOT
BRANCH   2  13
ATOM     13  C   UNL     1       3.592   4.122  19.206  0.00  0.00    +0.000 A 
ATOM     14  C   UNL     1       3.673   2.966  19.998  0.00  0.00    +0.000 A 
ATOM     15  C   UNL     1       2.703   2.703  20.971  0.00  0.00    +0.000 A 
ATOM     16  C   UNL     1       1.643   3.588  21.159  0.00  0.00    +0.000 A 
ATOM     17  C   UNL     1       1.584   4.765  20.420  0.00  0.00    +0.000 A 
ATOM     18  C   UNL     1       2.574   5.046  19.476  0.00  0.00    +0.000 A 
ENDBRANCH   2  13
BRANCH   1  19
ATOM     19  N   UNL     1       6.277   5.182  19.696  0.00  0.00    +0.000 N 
ATOM     20  H   UNL     1       5.439   5.233  20.275  0.00  0.00    +0.000 HD
ATOM     21  H   UNL     1       6.619   6.150  19.629  0.00  0.00    +0.000 HD
ENDBRANCH   1  19
TORSDOF 2
ENDMDL
MODEL 3
REMARK VINA RESULT:      -7.3      2.422      6.075
REMARK  Name = 
REMARK  2 active torsions:
REMARK  status: ('A' for Active; 'I' for Inactive)
REMARK    1  A    between atoms: N_1  and  N_2
REMARK    2  A    between atoms: C_3  and  C_4
REMARK                            x       y       z     vdW  Elec       q    Type
REMARK                         _______ _______ _______ _____ _____    ______ ____
ROOT
ATOM      1  N   UNL     1       6.376   4.690  16.987  0.00  0.00    +0.000 N 
ATOM      2  C   UNL     1       5.628   4.242  15.880  0.00  0.00    +0.000 A 
ATOM      3  N   UNL     1       4.463   3.679  16.028  0.00  0.00    +0.000 NA
ATOM      4  C   UNL     1       3.908   3.573  17.314  0.00  0.00    +0.000 A 
ATOM      5  C   UNL     1       2.615   3.063  17.455  0.00  0.00    +0.000 A 
ATOM      6  C   UNL     1       2.016   2.989  18.717  0.00  0.00    +0.000 A 
ATOM      7 CL   UNL     1       0.406   2.402  18.868  0.00  0.00    +0.000 Cl
ATOM      8  C   UNL     1       2.706   3.399  19.858  0.00  0.00    +0.000 A 
ATOM      9  C   UNL     1       4.004   3.888  19.734  0.00  0.00    +0.000 A 
ATOM     10  C   UNL     1       4.587   3.977  18.467  0.00  0.00    +0.000 A 
ATOM     11  C   UNL     1       5.938   4.524  18.301  0.00  0.00    +0.000 A 
ATOM     12  O   UNL     1       6.630   4.792  19.288  0.00  0.00    +0.000 OA
ENDROOT
BRANCH   2  13
ATOM     13  C   UNL     1       6.200   4.352  14.493  0.00  0.00    +0.000 A 
ATOM     14  C   UNL     1       5.670   3.538  13.480  0.00  0.00    +0.000 A 
ATOM     15  C   UNL     1       6.243   3.530  12.203  0.00  0.00    +0.000 A 
ATOM     16  C   UNL     1       7.350   4.330  11.929  0.00  0.00    +0.000 A 
ATOM     17  C   UNL     1       7.848   5.183  12.909  0.00  0.00    +0.000 A 
ATOM     18  C   UNL     1       7.251   5.220  14.170  0.00  0.00    +0.000 A 
ENDBRANCH   2  13
BRANCH   1  19
ATOM     19  N   UNL     1       7.686   5.246  16.853  0.00  0.00    +0.000 N 
ATOM     20  H   UNL     1       7.659   6.196  17.222  0.00  0.00    +0.000 HD
ATOM     21  H   UNL     1       7.845   5.353  15.842  0.00  0.00    +0.000 HD
ENDBRANCH   1  19
TORSDOF 2
ENDMDL
MODEL 4
REMARK VINA RESULT:      -7.1      2.421      6.037
REMARK  Name = 
REMARK  2 active torsions:
REMARK  status: ('A' for Active; 'I' for Inactive)
REMARK    1  A    between atoms: N_1  and  N_2
REMARK    2  A    between atoms: C_3  and  C_4
REMARK                            x       y       z     vdW  Elec       q    Type
REMARK                         _______ _______ _______ _____ _____    ______ ____
ROOT
ATOM      1  N   UNL     1       6.421   4.651  17.007  0.00  0.00    +0.000 N 
ATOM      2  C   UNL     1       5.693   4.175  15.898  0.00  0.00    +0.000 A 
ATOM      3  N   UNL     1       4.516   3.637  16.036  0.00  0.00    +0.000 NA
ATOM      4  C   UNL     1       3.926   3.587  17.310  0.00  0.00    +0.000 A 
ATOM      5  C   UNL     1       2.621   3.103  17.436  0.00  0.00    +0.000 A 
ATOM      6  C   UNL     1       1.989   3.084  18.684  0.00  0.00    +0.000 A 
ATOM      7 CL   UNL     1       0.366   2.529  18.814  0.00  0.00    +0.000 Cl
ATOM      8  C   UNL     1       2.657   3.524  19.827  0.00  0.00    +0.000 A 
ATOM      9  C   UNL     1       3.966   3.987  19.719  0.00  0.00    +0.000 A 
ATOM     10  C   UNL     1       4.582   4.021  18.465  0.00  0.00    +0.000 A 
ATOM     11  C   UNL     1       5.947   4.540  18.314  0.00  0.00    +0.000 A 
ATOM     12  O   UNL     1       6.618   4.832  19.309  0.00  0.00    +0.000 OA
ENDROOT
BRANCH   2  13
ATOM     13  C   UNL     1       6.302   4.225  14.523  0.00  0.00    +0.000 A 
ATOM     14  C   UNL     1       7.295   5.181  14.261  0.00  0.00    +0.000 A 
ATOM     15  C   UNL     1       7.810   5.333  12.969  0.00  0.00    +0.000 A 
ATOM     16  C   UNL     1       7.336   4.536  11.929  0.00  0.00    +0.000 A 
ATOM     17  C   UNL     1       6.393   3.547  12.189  0.00  0.00    +0.000 A 
ATOM     18  C   UNL     1       5.908   3.369  13.486  0.00  0.00    +0.000 A 
ENDBRANCH   2  13
BRANCH   1  19
ATOM     19  N   UNL     1       7.742   5.180  16.887  0.00  0.00    +0.000 N 
ATOM     20  H   UNL     1       7.843   5.922  17.579  0.00  0.00    +0.000 HD
ATOM     21  H   UNL     1       7.775   5.654  15.975  0.00  0.00    +0.000 HD
ENDBRANCH   1  19
TORSDOF 2
ENDMDL
MODEL 5
REMARK VINA RESULT:      -7.0      3.456      6.437
REMARK  Name = 
REMARK  2 active torsions:
REMARK  status: ('A' for Active; 'I' for Inactive)
REMARK    1  A    between atoms: N_1  and  N_2
REMARK    2  A    between atoms: C_3  and  C_4
REMARK                            x       y       z     vdW  Elec       q    Type
REMARK                         _______ _______ _______ _____ _____    ______ ____
ROOT
ATOM      1  N   UNL     1       4.122   4.430  18.654  0.00  0.00    +0.000 N 
ATOM      2  C   UNL     1       4.334   5.347  17.605  0.00  0.00    +0.000 A 
ATOM      3  N   UNL     1       3.720   6.494  17.569  0.00  0.00    +0.000 NA
ATOM      4  C   UNL     1       2.875   6.857  18.631  0.00  0.00    +0.000 A 
ATOM      5  C   UNL     1       2.301   8.131  18.638  0.00  0.00    +0.000 A 
ATOM      6  C   UNL     1       1.493   8.539  19.704  0.00  0.00    +0.000 A 
ATOM      7 CL   UNL     1       0.832  10.127  19.719  0.00  0.00    +0.000 Cl
ATOM      8  C   UNL     1       1.227   7.675  20.767  0.00  0.00    +0.000 A 
ATOM      9  C   UNL     1       1.775   6.395  20.762  0.00  0.00    +0.000 A 
ATOM     10  C   UNL     1       2.596   6.004  19.702  0.00  0.00    +0.000 A 
ATOM     11  C   UNL     1       3.219   4.674  19.688  0.00  0.00    +0.000 A 
ATOM     12  O   UNL     1       2.922   3.836  20.545  0.00  0.00    +0.000 OA
ENDROOT
BRANCH   2  13
ATOM     13  C   UNL     1       5.240   4.983  16.460  0.00  0.00    +0.000 A 
ATOM     14  C   UNL     1       6.602   5.310  16.549  0.00  0.00    +0.000 A 
ATOM     15  C   UNL     1       7.457   5.087  15.464  0.00  0.00    +0.000 A 
ATOM     16  C   UNL     1       6.961   4.540  14.283  0.00  0.00    +0.000 A 
ATOM     17  C   UNL     1       5.625   4.159  14.204  0.00  0.00    +0.000 A 
ATOM     18  C   UNL     1       4.780   4.345  15.301  0.00  0.00    +0.000 A 
ENDBRANCH   2  13
BRANCH   1  19
ATOM     19  N   UNL     1       4.731   3.138  18.677  0.00  0.00    +0.000 N 
ATOM     20  H   UNL     1       5.583   3.206  19.233  0.00  0.00    +0.000 HD
ATOM     21  H   UNL     1       5.050   2.958  17.715  0.00  0.00    +0.000 HD
ENDBRANCH   1  19
TORSDOF 2
ENDMDL
MODEL 6
REMARK VINA RESULT:      -6.9      3.467      6.462
REMARK  Name = 
REMARK  2 active torsions:
REMARK  status: ('A' for Active; 'I' for Inactive)
REMARK    1  A    between atoms: N_1  and  N_2
REMARK    2  A    between atoms: C_3  and  C_4
REMARK                            x       y       z     vdW  Elec       q    Type
REMARK                         _______ _______ _______ _____ _____    ______ ____
ROOT
ATOM      1  N   UNL     1       4.170   4.516  18.551  0.00  0.00    +0.000 N 
ATOM      2  C   UNL     1       4.359   5.478  17.540  0.00  0.00    +0.000 A 
ATOM      3  N   UNL     1       3.721   6.613  17.552  0.00  0.00    +0.000 NA
ATOM      4  C   UNL     1       2.873   6.916  18.630  0.00  0.00    +0.000 A 
ATOM      5  C   UNL     1       2.272   8.175  18.689  0.00  0.00    +0.000 A 
ATOM      6  C   UNL     1       1.460   8.524  19.773  0.00  0.00    +0.000 A 
ATOM      7 CL   UNL     1       0.766  10.096  19.854  0.00  0.00    +0.000 Cl
ATOM      8  C   UNL     1       1.217   7.613  20.801  0.00  0.00    +0.000 A 
ATOM      9  C   UNL     1       1.790   6.346  20.744  0.00  0.00    +0.000 A 
ATOM     10  C   UNL     1       2.616   6.014  19.666  0.00  0.00    +0.000 A 
ATOM     11  C   UNL     1       3.266   4.700  19.598  0.00  0.00    +0.000 A 
ATOM     12  O   UNL     1       2.990   3.822  20.421  0.00  0.00    +0.000 OA
ENDROOT
BRANCH   2  13
ATOM     13  C   UNL     1       5.268   5.179  16.379  0.00  0.00    +0.000 A 
ATOM     14  C   UNL     1       4.733   4.529  15.256  0.00  0.00    +0.000 A 
ATOM     15  C   UNL     1       5.565   4.137  14.201  0.00  0.00    +0.000 A 
ATOM     16  C   UNL     1       6.934   4.386  14.259  0.00  0.00    +0.000 A 
ATOM     17  C   UNL     1       7.466   5.080  15.341  0.00  0.00    +0.000 A 
ATOM     18  C   UNL     1       6.630   5.507  16.375  0.00  0.00    +0.000 A 
ENDBRANCH   2  13
BRANCH   1  19
ATOM     19  N   UNL     1       4.806   3.237  18.521  0.00  0.00    +0.000 N 
ATOM     20  H   UNL     1       4.633   2.783  19.417  0.00  0.00    +0.000 HD
ATOM     21  H   UNL     1       5.817   3.424  18.503  0.00  0.00    +0.000 HD
ENDBRANCH   1  19
TORSDOF 2
ENDMDL
MODEL 7
REMARK VINA RESULT:      -6.7      2.824      6.287
REMARK  Name = 
REMARK  2 active torsions:
REMARK  status: ('A' for Active; 'I' for Inactive)
REMARK    1  A    between atoms: N_1  and  N_2
REMARK    2  A    between atoms: C_3  and  C_4
REMARK                            x       y       z     vdW  Elec       q    Type
REMARK                         _______ _______ _______ _____ _____    ______ ____
ROOT
ATOM      1  N   UNL     1       4.754   6.180  16.120  0.00  0.00    +0.000 N 
ATOM      2  C   UNL     1       5.122   4.841  15.882  0.00  0.00    +0.000 A 
ATOM      3  N   UNL     1       4.916   3.911  16.769  0.00  0.00    +0.000 NA
ATOM      4  C   UNL     1       4.253   4.233  17.964  0.00  0.00    +0.000 A 
ATOM      5  C   UNL     1       3.943   3.212  18.866  0.00  0.00    +0.000 A 
ATOM      6  C   UNL     1       3.241   3.493  20.043  0.00  0.00    +0.000 A 
ATOM      7 CL   UNL     1       2.826   2.217  21.119  0.00  0.00    +0.000 Cl
ATOM      8  C   UNL     1       2.860   4.800  20.349  0.00  0.00    +0.000 A 
ATOM      9  C   UNL     1       3.183   5.831  19.471  0.00  0.00    +0.000 A 
ATOM     10  C   UNL     1       3.867   5.536  18.288  0.00  0.00    +0.000 A 
ATOM     11  C   UNL     1       4.187   6.596  17.324  0.00  0.00    +0.000 A 
ATOM     12  O   UNL     1       3.974   7.780  17.603  0.00  0.00    +0.000 OA
ENDROOT
BRANCH   2  13
ATOM     13  C   UNL     1       5.828   4.471  14.606  0.00  0.00    +0.000 A 
ATOM     14  C   UNL     1       7.102   5.006  14.361  0.00  0.00    +0.000 A 
ATOM     15  C   UNL     1       7.747   4.775  13.141  0.00  0.00    +0.000 A 
ATOM     16  C   UNL     1       7.124   4.012  12.155  0.00  0.00    +0.000 A 
ATOM     17  C   UNL     1       5.887   3.429  12.409  0.00  0.00    +0.000 A 
ATOM     18  C   UNL     1       5.261   3.628  13.641  0.00  0.00    +0.000 A 
ENDBRANCH   2  13
BRANCH   1  19
ATOM     19  N   UNL     1       5.034   7.229  15.190  0.00  0.00    +0.000 N 
ATOM     20  H   UNL     1       6.032   7.427  15.238  0.00  0.00    +0.000 HD
ATOM     21  H   UNL     1       4.572   8.069  15.563  0.00  0.00    +0.000 HD
ENDBRANCH   1  19
TORSDOF 2
ENDMDL
MODEL 8
REMARK VINA RESULT:      -6.7      3.916      6.583
REMARK  Name = 
REMARK  2 active torsions:
REMARK  status: ('A' for Active; 'I' for Inactive)
REMARK    1  A    between atoms: N_1  and  N_2
REMARK    2  A    between atoms: C_3  and  C_4
REMARK                            x       y       z     vdW  Elec       q    Type
REMARK                         _______ _______ _______ _____ _____    ______ ____
ROOT
ATOM      1  N   UNL     1       3.821   5.392  19.045  0.00  0.00    +0.000 N 
ATOM      2  C   UNL     1       4.093   6.128  17.875  0.00  0.00    +0.000 A 
ATOM      3  N   UNL     1       3.475   7.245  17.614  0.00  0.00    +0.000 NA
ATOM      4  C   UNL     1       2.565   7.763  18.549  0.00  0.00    +0.000 A 
ATOM      5  C   UNL     1       1.984   9.011  18.312  0.00  0.00    +0.000 A 
ATOM      6  C   UNL     1       1.109   9.575  19.247  0.00  0.00    +0.000 A 
ATOM      7 CL   UNL     1       0.438  11.133  18.961  0.00  0.00    +0.000 Cl
ATOM      8  C   UNL     1       0.783   8.893  20.419  0.00  0.00    +0.000 A 
ATOM      9  C   UNL     1       1.336   7.637  20.657  0.00  0.00    +0.000 A 
ATOM     10  C   UNL     1       2.224   7.091  19.726  0.00  0.00    +0.000 A 
ATOM     11  C   UNL     1       2.854   5.787  19.969  0.00  0.00    +0.000 A 
ATOM     12  O   UNL     1       2.510   5.096  20.932  0.00  0.00    +0.000 OA
ENDROOT
BRANCH   2  13
ATOM     13  C   UNL     1       5.070   5.596  16.862  0.00  0.00    +0.000 A 
ATOM     14  C   UNL     1       4.634   4.618  15.955  0.00  0.00    +0.000 A 
ATOM     15  C   UNL     1       5.536   4.020  15.068  0.00  0.00    +0.000 A 
ATOM     16  C   UNL     1       6.880   4.389  15.083  0.00  0.00    +0.000 A 
ATOM     17  C   UNL     1       7.311   5.398  15.938  0.00  0.00    +0.000 A 
ATOM     18  C   UNL     1       6.403   6.023  16.794  0.00  0.00    +0.000 A 
ENDBRANCH   2  13
BRANCH   1  19
ATOM     19  N   UNL     1       4.435   4.130  19.316  0.00  0.00    +0.000 N 
ATOM     20  H   UNL     1       4.744   4.138  20.288  0.00  0.00    +0.000 HD
ATOM     21  H   UNL     1       5.299   4.110  18.758  0.00  0.00    +0.000 HD
ENDBRANCH   1  19
TORSDOF 2
ENDMDL
MODEL 9
REMARK VINA RESULT:      -6.6      3.051      3.899
REMARK  Name = 
REMARK  2 active torsions:
REMARK  status: ('A' for Active; 'I' for Inactive)
REMARK    1  A    between atoms: N_1  and  N_2
REMARK    2  A    between atoms: C_3  and  C_4
REMARK                            x       y       z     vdW  Elec       q    Type
REMARK                         _______ _______ _______ _____ _____    ______ ____
ROOT
ATOM      1  N   UNL     1       2.855   4.973  18.270  0.00  0.00    +0.000 N 
ATOM      2  C   UNL     1       3.126   6.321  17.961  0.00  0.00    +0.000 A 
ATOM      3  N   UNL     1       4.091   6.652  17.150  0.00  0.00    +0.000 NA
ATOM      4  C   UNL     1       4.836   5.644  16.518  0.00  0.00    +0.000 A 
ATOM      5  C   UNL     1       5.799   6.004  15.572  0.00  0.00    +0.000 A 
ATOM      6  C   UNL     1       6.526   5.021  14.891  0.00  0.00    +0.000 A 
ATOM      7 CL   UNL     1       7.675   5.480  13.695  0.00  0.00    +0.000 Cl
ATOM      8  C   UNL     1       6.319   3.668  15.160  0.00  0.00    +0.000 A 
ATOM      9  C   UNL     1       5.379   3.296  16.117  0.00  0.00    +0.000 A 
ATOM     10  C   UNL     1       4.644   4.285  16.778  0.00  0.00    +0.000 A 
ATOM     11  C   UNL     1       3.619   3.922  17.763  0.00  0.00    +0.000 A 
ATOM     12  O   UNL     1       3.481   2.747  18.119  0.00  0.00    +0.000 OA
ENDROOT
BRANCH   2  13
ATOM     13  C   UNL     1       2.336   7.417  18.621  0.00  0.00    +0.000 A 
ATOM     14  C   UNL     1       1.869   8.479  17.831  0.00  0.00    +0.000 A 
ATOM     15  C   UNL     1       1.223   9.572  18.421  0.00  0.00    +0.000 A 
ATOM     16  C   UNL     1       1.043   9.615  19.802  0.00  0.00    +0.000 A 
ATOM     17  C   UNL     1       1.451   8.541  20.588  0.00  0.00    +0.000 A 
ATOM     18  C   UNL     1       2.059   7.434  19.994  0.00  0.00    +0.000 A 
ENDBRANCH   2  13
BRANCH   1  19
ATOM     19  N   UNL     1       1.848   4.590  19.209  0.00  0.00    +0.000 N 
ATOM     20  H   UNL     1       2.276   3.954  19.881  0.00  0.00    +0.000 HD
ATOM     21  H   UNL     1       1.175   4.017  18.684  0.00  0.00    +0.000 HD
ENDBRANCH   1  19
TORSDOF 2
ENDMDL
