MODEL 1
REMARK VINA RESULT:      -7.8      0.000      0.000
REMARK  Name = 
REMARK  2 active torsions:
REMARK  status: ('A' for Active; 'I' for Inactive)
REMARK    1  A    between atoms: C_1  and  N_2
REMARK    2  A    between atoms: C_9  and  C_10
REMARK                            x       y       z     vdW  Elec       q    Type
REMARK                         _______ _______ _______ _____ _____    ______ ____
ROOT
ATOM      1  C   UNL     1       7.799   6.637  18.539  0.00  0.00    +0.000 C 
ATOM      2  N   UNL     1       7.152   5.937  17.456  0.00  0.00    +0.000 N 
ATOM      3  N   UNL     1       7.654   6.012  16.211  0.00  0.00    +0.000 NA
ATOM      4  C   UNL     1       6.820   5.273  15.485  0.00  0.00    +0.000 A 
ATOM      5  N   UNL     1       6.959   5.117  14.163  0.00  0.00    +0.000 N 
ATOM      6  C   UNL     1       5.787   4.699  16.268  0.00  0.00    +0.000 A 
ATOM      7  C   UNL     1       4.687   3.871  16.056  0.00  0.00    +0.000 A 
ATOM      8  N   UNL     1       3.864   3.542  17.087  0.00  0.00    +0.000 NA
ATOM      9  C   UNL     1       4.110   4.015  18.339  0.00  0.00    +0.000 A 
ATOM     10  C   UNL     1       5.197   4.840  18.629  0.00  0.00    +0.000 A 
ATOM     11  C   UNL     1       6.026   5.164  17.556  0.00  0.00    +0.000 A 
ATOM     12  H   UNL     1       7.794   5.486  13.723  0.00  0.00    +0.000 HD
ATOM     13  H   UNL     1       6.430   4.453  13.616  0.00  0.00    +0.000 HD
ENDROOT
BRANCH   9  14
ATOM     14  C   UNL     1       3.137   3.623  19.381  0.00  0.00    +0.000 A 
ATOM     15  C   UNL     1       3.520   2.882  20.515  0.00  0.00    +0.000 A 
ATOM     16  C   UNL     1       2.599   2.541  21.510  0.00  0.00    +0.000 A 
ATOM     17  C   UNL     1       1.270   2.932  21.390  0.00  0.00    +0.000 A 
ATOM     18  C   UNL     1       0.861   3.656  20.273  0.00  0.00    +0.000 A 
ATOM     19  C   UNL     1       1.783   3.994  19.281  0.00  0.00    +0.000 A 
ENDBRANCH   9  14
TORSDOF 1
ENDMDL
MODEL 2
REMARK VINA RESULT:      -7.8      0.087      1.167
REMARK  Name = 
REMARK  2 active torsions:
REMARK  status: ('A' for Active; 'I' for Inactive)
REMARK    1  A    between atoms: C_1  and  N_2
REMARK    2  A    between atoms: C_9  and  C_10
REMARK                            x       y       z     vdW  Elec       q    Type
REMARK                         _______ _______ _______ _____ _____    ______ ____
ROOT
ATOM      1  C   UNL     1       7.784   6.696  18.473  0.00  0.00    +0.000 C 
ATOM      2  N   UNL     1       7.138   5.957  17.415  0.00  0.00    +0.000 N 
ATOM      3  N   UNL     1       7.640   5.991  16.168  0.00  0.00    +0.000 NA
ATOM      4  C   UNL     1       6.807   5.225  15.468  0.00  0.00    +0.000 A 
ATOM      5  N   UNL     1       6.947   5.025  14.152  0.00  0.00    +0.000 N 
ATOM      6  C   UNL     1       5.777   4.675  16.271  0.00  0.00    +0.000 A 
ATOM      7  C   UNL     1       4.680   3.836  16.088  0.00  0.00    +0.000 A 
ATOM      8  N   UNL     1       3.858   3.540  17.130  0.00  0.00    +0.000 NA
ATOM      9  C   UNL     1       4.103   4.056  18.365  0.00  0.00    +0.000 A 
ATOM     10  C   UNL     1       5.187   4.895  18.626  0.00  0.00    +0.000 A 
ATOM     11  C   UNL     1       6.015   5.185  17.542  0.00  0.00    +0.000 A 
ATOM     12  H   UNL     1       7.780   5.381  13.699  0.00  0.00    +0.000 HD
ATOM     13  H   UNL     1       6.419   4.341  13.628  0.00  0.00    +0.000 HD
ENDROOT
BRANCH   9  14
ATOM     14  C   UNL     1       3.133   3.697  19.420  0.00  0.00    +0.000 A 
ATOM     15  C   UNL     1       1.805   4.164  19.400  0.00  0.00    +0.000 A 
ATOM     16  C   UNL     1       0.885   3.795  20.386  0.00  0.00    +0.000 A 
ATOM     17  C   UNL     1       1.276   2.950  21.419  0.00  0.00    +0.000 A 
ATOM     18  C   UNL     1       2.586   2.481  21.470  0.00  0.00    +0.000 A 
ATOM     19  C   UNL     1       3.502   2.853  20.484  0.00  0.00    +0.000 A 
ENDBRANCH   9  14
TORSDOF 1
ENDMDL
MODEL 3
REMARK VINA RESULT:      -7.3      2.343      6.367
REMARK  Name = 
REMARK  2 active torsions:
REMARK  status: ('A' for Active; 'I' for Inactive)
REMARK    1  A    between atoms: C_1  and  N_2
REMARK    2  A    between atoms: C_9  and  C_10
REMARK                            x       y       z     vdW  Elec       q    Type
REMARK                         _______ _______ _______ _____ _____    ______ ____
ROOT
ATOM      1  C   UNL     1       3.445   1.780  18.633  0.00  0.00    +0.000 C 
ATOM      2  N   UNL     1       3.556   3.219  18.644  0.00  0.00    +0.000 N 
ATOM      3  N   UNL     1       3.038   3.925  19.664  0.00  0.00    +0.000 NA
ATOM      4  C   UNL     1       3.308   5.189  19.348  0.00  0.00    +0.000 A 
ATOM      5  N   UNL     1       2.923   6.221  20.108  0.00  0.00    +0.000 N 
ATOM      6  C   UNL     1       4.024   5.297  18.130  0.00  0.00    +0.000 A 
ATOM      7  C   UNL     1       4.555   6.321  17.347  0.00  0.00    +0.000 A 
ATOM      8  N   UNL     1       5.176   6.036  16.170  0.00  0.00    +0.000 NA
ATOM      9  C   UNL     1       5.291   4.747  15.750  0.00  0.00    +0.000 A 
ATOM     10  C   UNL     1       4.794   3.671  16.485  0.00  0.00    +0.000 A 
ATOM     11  C   UNL     1       4.160   3.987  17.686  0.00  0.00    +0.000 A 
ATOM     12  H   UNL     1       2.510   6.021  21.011  0.00  0.00    +0.000 HD
ATOM     13  H   UNL     1       3.236   7.171  19.967  0.00  0.00    +0.000 HD
ENDROOT
BRANCH   9  14
ATOM     14  C   UNL     1       5.957   4.551  14.444  0.00  0.00    +0.000 A 
ATOM     15  C   UNL     1       7.155   5.211  14.114  0.00  0.00    +0.000 A 
ATOM     16  C   UNL     1       7.793   4.996  12.889  0.00  0.00    +0.000 A 
ATOM     17  C   UNL     1       7.243   4.117  11.963  0.00  0.00    +0.000 A 
ATOM     18  C   UNL     1       6.052   3.458  12.259  0.00  0.00    +0.000 A 
ATOM     19  C   UNL     1       5.417   3.676  13.484  0.00  0.00    +0.000 A 
ENDBRANCH   9  14
TORSDOF 1
ENDMDL
MODEL 4
REMARK VINA RESULT:      -7.3      2.393      6.349
REMARK  Name = 
REMARK  2 active torsions:
REMARK  status: ('A' for Active; 'I' for Inactive)
REMARK    1  A    between atoms: C_1  and  N_2
REMARK    2  A    between atoms: C_9  and  C_10
REMARK                            x       y       z     vdW  Elec       q    Type
REMARK                         _______ _______ _______ _____ _____    ______ ____
ROOT
ATOM      1  C   UNL     1       3.777   2.028  18.989  0.00  0.00    +0.000 C 
ATOM      2  N   UNL     1       3.749   3.463  18.846  0.00  0.00    +0.000 N 
ATOM      3  N   UNL     1       3.179   4.223  19.797  0.00  0.00    +0.000 NA
ATOM      4  C   UNL     1       3.322   5.465  19.342  0.00  0.00    +0.000 A 
ATOM      5  N   UNL     1       2.849   6.532  19.998  0.00  0.00    +0.000 N 
ATOM      6  C   UNL     1       4.008   5.509  18.103  0.00  0.00    +0.000 A 
ATOM      7  C   UNL     1       4.428   6.488  17.204  0.00  0.00    +0.000 A 
ATOM      8  N   UNL     1       5.058   6.138  16.051  0.00  0.00    +0.000 NA
ATOM      9  C   UNL     1       5.292   4.828  15.766  0.00  0.00    +0.000 A 
ATOM     10  C   UNL     1       4.910   3.795  16.623  0.00  0.00    +0.000 A 
ATOM     11  C   UNL     1       4.265   4.177  17.798  0.00  0.00    +0.000 A 
ATOM     12  H   UNL     1       2.468   6.393  20.926  0.00  0.00    +0.000 HD
ATOM     13  H   UNL     1       3.067   7.487  19.750  0.00  0.00    +0.000 HD
ENDROOT
BRANCH   9  14
ATOM     14  C   UNL     1       5.956   4.556  14.474  0.00  0.00    +0.000 A 
ATOM     15  C   UNL     1       5.412   3.662  13.532  0.00  0.00    +0.000 A 
ATOM     16  C   UNL     1       6.032   3.434  12.300  0.00  0.00    +0.000 A 
ATOM     17  C   UNL     1       7.214   4.093  11.984  0.00  0.00    +0.000 A 
ATOM     18  C   UNL     1       7.781   4.974  12.901  0.00  0.00    +0.000 A 
ATOM     19  C   UNL     1       7.159   5.200  14.131  0.00  0.00    +0.000 A 
ENDBRANCH   9  14
TORSDOF 1
ENDMDL
MODEL 5
REMARK VINA RESULT:      -7.1      1.523      2.477
REMARK  Name = 
REMARK  2 active torsions:
REMARK  status: ('A' for Active; 'I' for Inactive)
REMARK    1  A    between atoms: C_1  and  N_2
REMARK    2  A    between atoms: C_9  and  C_10
REMARK                            x       y       z     vdW  Elec       q    Type
REMARK                         _______ _______ _______ _____ _____    ______ ____
ROOT
ATOM      1  C   UNL     1       6.271   3.876  14.397  0.00  0.00    +0.000 C 
ATOM      2  N   UNL     1       6.380   4.860  15.447  0.00  0.00    +0.000 N 
ATOM      3  N   UNL     1       7.375   5.764  15.421  0.00  0.00    +0.000 NA
ATOM      4  C   UNL     1       7.178   6.487  16.520  0.00  0.00    +0.000 A 
ATOM      5  N   UNL     1       7.990   7.489  16.879  0.00  0.00    +0.000 N 
ATOM      6  C   UNL     1       6.037   6.064  17.246  0.00  0.00    +0.000 A 
ATOM      7  C   UNL     1       5.376   6.438  18.415  0.00  0.00    +0.000 A 
ATOM      8  N   UNL     1       4.282   5.749  18.837  0.00  0.00    +0.000 NA
ATOM      9  C   UNL     1       3.818   4.691  18.118  0.00  0.00    +0.000 A 
ATOM     10  C   UNL     1       4.422   4.266  16.935  0.00  0.00    +0.000 A 
ATOM     11  C   UNL     1       5.542   4.986  16.523  0.00  0.00    +0.000 A 
ATOM     12  H   UNL     1       8.714   7.774  16.230  0.00  0.00    +0.000 HD
ATOM     13  H   UNL     1       7.785   8.140  17.623  0.00  0.00    +0.000 HD
ENDROOT
BRANCH   9  14
ATOM     14  C   UNL     1       2.642   3.993  18.681  0.00  0.00    +0.000 A 
ATOM     15  C   UNL     1       2.052   2.891  18.034  0.00  0.00    +0.000 A 
ATOM     16  C   UNL     1       0.959   2.218  18.589  0.00  0.00    +0.000 A 
ATOM     17  C   UNL     1       0.429   2.638  19.803  0.00  0.00    +0.000 A 
ATOM     18  C   UNL     1       0.985   3.732  20.460  0.00  0.00    +0.000 A 
ATOM     19  C   UNL     1       2.077   4.402  19.903  0.00  0.00    +0.000 A 
ENDBRANCH   9  14
TORSDOF 1
ENDMDL
MODEL 6
REMARK VINA RESULT:      -7.0      1.440      2.354
REMARK  Name = 
REMARK  2 active torsions:
REMARK  status: ('A' for Active; 'I' for Inactive)
REMARK    1  A    between atoms: C_1  and  N_2
REMARK    2  A    between atoms: C_9  and  C_10
REMARK                            x       y       z     vdW  Elec       q    Type
REMARK                         _______ _______ _______ _____ _____    ______ ____
ROOT
ATOM      1  C   UNL     1       6.033   4.001  14.432  0.00  0.00    +0.000 C 
ATOM      2  N   UNL     1       6.236   4.909  15.535  0.00  0.00    +0.000 N 
ATOM      3  N   UNL     1       7.246   5.795  15.499  0.00  0.00    +0.000 NA
ATOM      4  C   UNL     1       7.143   6.445  16.655  0.00  0.00    +0.000 A 
ATOM      5  N   UNL     1       7.999   7.406  17.021  0.00  0.00    +0.000 N 
ATOM      6  C   UNL     1       6.046   5.992  17.431  0.00  0.00    +0.000 A 
ATOM      7  C   UNL     1       5.477   6.297  18.666  0.00  0.00    +0.000 A 
ATOM      8  N   UNL     1       4.401   5.599  19.118  0.00  0.00    +0.000 NA
ATOM      9  C   UNL     1       3.865   4.600  18.365  0.00  0.00    +0.000 A 
ATOM     10  C   UNL     1       4.375   4.247  17.115  0.00  0.00    +0.000 A 
ATOM     11  C   UNL     1       5.479   4.975  16.674  0.00  0.00    +0.000 A 
ATOM     12  H   UNL     1       8.682   7.722  16.343  0.00  0.00    +0.000 HD
ATOM     13  H   UNL     1       7.861   8.008  17.820  0.00  0.00    +0.000 HD
ENDROOT
BRANCH   9  14
ATOM     14  C   UNL     1       2.717   3.885  18.962  0.00  0.00    +0.000 A 
ATOM     15  C   UNL     1       2.432   3.955  20.339  0.00  0.00    +0.000 A 
ATOM     16  C   UNL     1       1.327   3.300  20.890  0.00  0.00    +0.000 A 
ATOM     17  C   UNL     1       0.482   2.556  20.074  0.00  0.00    +0.000 A 
ATOM     18  C   UNL     1       0.746   2.460  18.711  0.00  0.00    +0.000 A 
ATOM     19  C   UNL     1       1.851   3.115  18.163  0.00  0.00    +0.000 A 
ENDBRANCH   9  14
TORSDOF 1
ENDMDL
MODEL 7
REMARK VINA RESULT:      -6.8      3.660      4.978
REMARK  Name = 
REMARK  2 active torsions:
REMARK  status: ('A' for Active; 'I' for Inactive)
REMARK    1  A    between atoms: C_1  and  N_2
REMARK    2  A    between atoms: C_9  and  C_10
REMARK                            x       y       z     vdW  Elec       q    Type
REMARK                         _______ _______ _______ _____ _____    ______ ____
ROOT
ATOM      1  C   UNL     1       2.059   2.586  18.570  0.00  0.00    +0.000 C 
ATOM      2  N   UNL     1       3.082   3.376  17.928  0.00  0.00    +0.000 N 
ATOM      3  N   UNL     1       4.088   2.770  17.275  0.00  0.00    +0.000 NA
ATOM      4  C   UNL     1       4.832   3.778  16.828  0.00  0.00    +0.000 A 
ATOM      5  N   UNL     1       5.966   3.589  16.141  0.00  0.00    +0.000 N 
ATOM      6  C   UNL     1       4.292   5.041  17.175  0.00  0.00    +0.000 A 
ATOM      7  C   UNL     1       4.624   6.381  16.980  0.00  0.00    +0.000 A 
ATOM      8  N   UNL     1       3.850   7.366  17.511  0.00  0.00    +0.000 NA
ATOM      9  C   UNL     1       2.740   7.052  18.233  0.00  0.00    +0.000 A 
ATOM     10  C   UNL     1       2.340   5.736  18.460  0.00  0.00    +0.000 A 
ATOM     11  C   UNL     1       3.149   4.743  17.908  0.00  0.00    +0.000 A 
ATOM     12  H   UNL     1       6.202   2.646  15.858  0.00  0.00    +0.000 HD
ATOM     13  H   UNL     1       6.469   4.329  15.671  0.00  0.00    +0.000 HD
ENDROOT
BRANCH   9  14
ATOM     14  C   UNL     1       1.988   8.196  18.791  0.00  0.00    +0.000 A 
ATOM     15  C   UNL     1       1.601   9.291  17.994  0.00  0.00    +0.000 A 
ATOM     16  C   UNL     1       0.864  10.355  18.523  0.00  0.00    +0.000 A 
ATOM     17  C   UNL     1       0.500  10.348  19.865  0.00  0.00    +0.000 A 
ATOM     18  C   UNL     1       0.878   9.283  20.679  0.00  0.00    +0.000 A 
ATOM     19  C   UNL     1       1.615   8.223  20.147  0.00  0.00    +0.000 A 
ENDBRANCH   9  14
TORSDOF 1
ENDMDL
MODEL 8
REMARK VINA RESULT:      -6.8      2.401      6.022
REMARK  Name = 
REMARK  2 active torsions:
REMARK  status: ('A' for Active; 'I' for Inactive)
REMARK    1  A    between atoms: C_1  and  N_2
REMARK    2  A    between atoms: C_9  and  C_10
REMARK                            x       y       z     vdW  Elec       q    Type
REMARK                         _______ _______ _______ _____ _____    ______ ____
ROOT
ATOM      1  C   UNL     1       2.144   7.311  19.987  0.00  0.00    +0.000 C 
ATOM      2  N   UNL     1       2.079   5.872  19.905  0.00  0.00    +0.000 N 
ATOM      3  N   UNL     1       1.280   5.186  20.741  0.00  0.00    +0.000 NA
ATOM      4  C   UNL     1       1.474   3.916  20.398  0.00  0.00    +0.000 A 
ATOM      5  N   UNL     1       0.871   2.899  21.026  0.00  0.00    +0.000 N 
ATOM      6  C   UNL     1       2.385   3.782  19.320  0.00  0.00    +0.000 A 
ATOM      7  C   UNL     1       2.936   2.742  18.574  0.00  0.00    +0.000 A 
ATOM      8  N   UNL     1       3.843   3.003  17.594  0.00  0.00    +0.000 NA
ATOM      9  C   UNL     1       4.217   4.284  17.330  0.00  0.00    +0.000 A 
ATOM     10  C   UNL     1       3.701   5.376  18.028  0.00  0.00    +0.000 A 
ATOM     11  C   UNL     1       2.774   5.084  19.027  0.00  0.00    +0.000 A 
ATOM     12  H   UNL     1       0.159   3.116  21.713  0.00  0.00    +0.000 HD
ATOM     13  H   UNL     1       0.889   1.944  20.697  0.00  0.00    +0.000 HD
ENDROOT
BRANCH   9  14
ATOM     14  C   UNL     1       5.231   4.454  16.267  0.00  0.00    +0.000 A 
ATOM     15  C   UNL     1       6.475   5.063  16.518  0.00  0.00    +0.000 A 
ATOM     16  C   UNL     1       7.440   5.192  15.514  0.00  0.00    +0.000 A 
ATOM     17  C   UNL     1       7.178   4.719  14.233  0.00  0.00    +0.000 A 
ATOM     18  C   UNL     1       5.951   4.122  13.954  0.00  0.00    +0.000 A 
ATOM     19  C   UNL     1       4.990   3.995  14.959  0.00  0.00    +0.000 A 
ENDBRANCH   9  14
TORSDOF 1
ENDMDL
MODEL 9
REMARK VINA RESULT:      -6.8      2.426      6.081
REMARK  Name = 
REMARK  2 active torsions:
REMARK  status: ('A' for Active; 'I' for Inactive)
REMARK    1  A    between atoms: C_1  and  N_2
REMARK    2  A    between atoms: C_9  and  C_10
REMARK                            x       y       z     vdW  Elec       q    Type
REMARK                         _______ _______ _______ _____ _____    ______ ____
ROOT
ATOM      1  C   UNL     1       2.189   7.311  19.912  0.00  0.00    +0.000 C 
ATOM      2  N   UNL     1       2.086   5.874  19.826  0.00  0.00    +0.000 N 
ATOM      3  N   UNL     1       1.259   5.208  20.650  0.00  0.00    +0.000 NA
ATOM      4  C   UNL     1       1.422   3.934  20.306  0.00  0.00    +0.000 A 
ATOM      5  N   UNL     1       0.785   2.932  20.924  0.00  0.00    +0.000 N 
ATOM      6  C   UNL     1       2.342   3.778  19.239  0.00  0.00    +0.000 A 
ATOM      7  C   UNL     1       2.874   2.725  18.497  0.00  0.00    +0.000 A 
ATOM      8  N   UNL     1       3.799   2.963  17.529  0.00  0.00    +0.000 NA
ATOM      9  C   UNL     1       4.211   4.234  17.272  0.00  0.00    +0.000 A 
ATOM     10  C   UNL     1       3.716   5.338  17.967  0.00  0.00    +0.000 A 
ATOM     11  C   UNL     1       2.770   5.069  18.954  0.00  0.00    +0.000 A 
ATOM     12  H   UNL     1       0.070   3.167  21.603  0.00  0.00    +0.000 HD
ATOM     13  H   UNL     1       0.781   1.978  20.593  0.00  0.00    +0.000 HD
ENDROOT
BRANCH   9  14
ATOM     14  C   UNL     1       5.242   4.379  16.222  0.00  0.00    +0.000 A 
ATOM     15  C   UNL     1       5.044   3.897  14.915  0.00  0.00    +0.000 A 
ATOM     16  C   UNL     1       6.013   4.066  13.920  0.00  0.00    +0.000 A 
ATOM     17  C   UNL     1       7.204   4.718  14.214  0.00  0.00    +0.000 A 
ATOM     18  C   UNL     1       7.431   5.196  15.502  0.00  0.00    +0.000 A 
ATOM     19  C   UNL     1       6.462   5.026  16.493  0.00  0.00    +0.000 A 
ENDBRANCH   9  14
TORSDOF 1
ENDMDL
