MODEL 1
REMARK VINA RESULT:      -7.5      0.000      0.000
REMARK  Name = 
REMARK  7 active torsions:
REMARK  status: ('A' for Active; 'I' for Inactive)
REMARK    1  A    between atoms: C_1  and  C_2
REMARK    2  A    between atoms: N_4  and  O_5
REMARK    3  A    between atoms: O_5  and  C_6
REMARK    4  A    between atoms: N_8  and  C_9
REMARK    5  A    between atoms: C_12  and  S_13
REMARK    6  A    between atoms: S_13  and  N_14
REMARK    7  A    between atoms: C_17  and  C_18
REMARK                            x       y       z     vdW  Elec       q    Type
REMARK                         _______ _______ _______ _____ _____    ______ ____
ROOT
ATOM      1  C   UNL     1       4.595   4.447  16.584  0.00  0.00    +0.000 A 
ATOM      2  C   UNL     1       4.188   5.631  17.194  0.00  0.00    +0.000 A 
ATOM      3  C   UNL     1       3.395   5.609  18.336  0.00  0.00    +0.000 A 
ATOM      4  C   UNL     1       2.970   4.393  18.880  0.00  0.00    +0.000 A 
ATOM      5  C   UNL     1       3.298   3.183  18.241  0.00  0.00    +0.000 A 
ATOM      6  C   UNL     1       2.883   1.820  18.718  0.00  0.00    +0.000 C 
ATOM      7  C   UNL     1       4.102   3.235  17.078  0.00  0.00    +0.000 A 
ENDROOT
BRANCH   1  10
ATOM      8  C   UNL     1       6.677   5.028  15.319  0.00  0.00    +0.000 C 
ATOM      9  O   UNL     1       7.208   5.134  14.218  0.00  0.00    +0.000 OA
ATOM     10  N   UNL     1       5.449   4.422  15.469  0.00  0.00    +0.000 N 
ATOM     11  H   UNL     1       5.164   3.904  14.649  0.00  0.00    +0.000 HD
BRANCH   8  12
ATOM     12  O   UNL     1       7.302   5.356  16.498  0.00  0.00    +0.000 OA
BRANCH  12  16
ATOM     13  C   UNL     1       7.936   8.642  17.950  0.00  0.00    +0.000 C 
ATOM     14  C   UNL     1       7.815   7.169  17.706  0.00  0.00    +0.000 C 
ATOM     15 CL   UNL     1       7.880   6.171  19.102  0.00  0.00    +0.000 Cl
ATOM     16  N   UNL     1       7.614   6.732  16.502  0.00  0.00    +0.000 NA
ENDBRANCH  12  16
ENDBRANCH   8  12
ENDBRANCH   1  10
BRANCH   4  17
ATOM     17  S   UNL     1       2.059   4.485  20.402  0.00  0.00    +0.000 S 
ATOM     18  O   UNL     1       0.668   4.183  20.141  0.00  0.00    +0.000 OA
ATOM     19  O   UNL     1       2.801   3.820  21.449  0.00  0.00    +0.000 OA
BRANCH  17  20
ATOM     20  N   UNL     1       2.142   6.115  20.789  0.00  0.00    +0.000 NA
ATOM     21  H   UNL     1       1.548   6.647  20.152  0.00  0.00    +0.000 HD
ATOM     22  H   UNL     1       1.899   6.239  21.773  0.00  0.00    +0.000 HD
ENDBRANCH  17  20
ENDBRANCH   4  17
TORSDOF 5
ENDMDL
MODEL 2
REMARK VINA RESULT:      -7.3      0.828      1.038
REMARK  Name = 
REMARK  7 active torsions:
REMARK  status: ('A' for Active; 'I' for Inactive)
REMARK    1  A    between atoms: C_1  and  C_2
REMARK    2  A    between atoms: N_4  and  O_5
REMARK    3  A    between atoms: O_5  and  C_6
REMARK    4  A    between atoms: N_8  and  C_9
REMARK    5  A    between atoms: C_12  and  S_13
REMARK    6  A    between atoms: S_13  and  N_14
REMARK    7  A    between atoms: C_17  and  C_18
REMARK                            x       y       z     vdW  Elec       q    Type
REMARK                         _______ _______ _______ _____ _____    ______ ____
ROOT
ATOM      1  C   UNL     1       4.538   4.422  16.658  0.00  0.00    +0.000 A 
ATOM      2  C   UNL     1       4.088   5.602  17.246  0.00  0.00    +0.000 A 
ATOM      3  C   UNL     1       3.324   5.575  18.408  0.00  0.00    +0.000 A 
ATOM      4  C   UNL     1       2.969   4.356  18.994  0.00  0.00    +0.000 A 
ATOM      5  C   UNL     1       3.340   3.145  18.379  0.00  0.00    +0.000 A 
ATOM      6  C   UNL     1       3.001   1.777  18.902  0.00  0.00    +0.000 C 
ATOM      7  C   UNL     1       4.114   3.202  17.197  0.00  0.00    +0.000 A 
ENDROOT
BRANCH   1  10
ATOM      8  C   UNL     1       6.589   5.017  15.351  0.00  0.00    +0.000 C 
ATOM      9  O   UNL     1       7.095   5.131  14.238  0.00  0.00    +0.000 OA
ATOM     10  N   UNL     1       5.367   4.406  15.525  0.00  0.00    +0.000 N 
ATOM     11  H   UNL     1       5.065   3.892  14.708  0.00  0.00    +0.000 HD
BRANCH   8  12
ATOM     12  O   UNL     1       7.239   5.341  16.517  0.00  0.00    +0.000 OA
BRANCH  12  16
ATOM     13  C   UNL     1       7.946   8.630  17.928  0.00  0.00    +0.000 C 
ATOM     14  C   UNL     1       7.791   7.157  17.703  0.00  0.00    +0.000 C 
ATOM     15 CL   UNL     1       7.830   6.176  19.112  0.00  0.00    +0.000 Cl
ATOM     16  N   UNL     1       7.582   6.709  16.504  0.00  0.00    +0.000 NA
ENDBRANCH  12  16
ENDBRANCH   8  12
ENDBRANCH   1  10
BRANCH   4  17
ATOM     17  S   UNL     1       2.090   4.446  20.534  0.00  0.00    +0.000 S 
ATOM     18  O   UNL     1       2.736   3.584  21.500  0.00  0.00    +0.000 OA
ATOM     19  O   UNL     1       1.779   5.826  20.831  0.00  0.00    +0.000 OA
BRANCH  17  20
ATOM     20  N   UNL     1       0.612   3.745  20.162  0.00  0.00    +0.000 NA
ATOM     21  H   UNL     1       0.611   3.452  19.185  0.00  0.00    +0.000 HD
ATOM     22  H   UNL     1       0.428   2.984  20.817  0.00  0.00    +0.000 HD
ENDBRANCH  17  20
ENDBRANCH   4  17
TORSDOF 5
ENDMDL
MODEL 3
REMARK VINA RESULT:      -7.3      0.974      1.960
REMARK  Name = 
REMARK  7 active torsions:
REMARK  status: ('A' for Active; 'I' for Inactive)
REMARK    1  A    between atoms: C_1  and  C_2
REMARK    2  A    between atoms: N_4  and  O_5
REMARK    3  A    between atoms: O_5  and  C_6
REMARK    4  A    between atoms: N_8  and  C_9
REMARK    5  A    between atoms: C_12  and  S_13
REMARK    6  A    between atoms: S_13  and  N_14
REMARK    7  A    between atoms: C_17  and  C_18
REMARK                            x       y       z     vdW  Elec       q    Type
REMARK                         _______ _______ _______ _____ _____    ______ ____
ROOT
ATOM      1  C   UNL     1       4.682   4.322  16.595  0.00  0.00    +0.000 A 
ATOM      2  C   UNL     1       4.527   3.158  17.345  0.00  0.00    +0.000 A 
ATOM      3  C   UNL     1       3.744   3.148  18.494  0.00  0.00    +0.000 A 
ATOM      4  C   UNL     1       3.117   4.319  18.934  0.00  0.00    +0.000 A 
ATOM      5  C   UNL     1       3.320   5.528  18.243  0.00  0.00    +0.000 A 
ATOM      6  C   UNL     1       2.718   6.850  18.630  0.00  0.00    +0.000 C 
ATOM      7  C   UNL     1       4.124   5.509  17.080  0.00  0.00    +0.000 A 
ENDROOT
BRANCH   1  10
ATOM      8  C   UNL     1       6.626   4.956  15.149  0.00  0.00    +0.000 C 
ATOM      9  O   UNL     1       7.035   5.129  14.005  0.00  0.00    +0.000 OA
ATOM     10  N   UNL     1       5.408   4.360  15.394  0.00  0.00    +0.000 N 
ATOM     11  H   UNL     1       5.023   3.903  14.578  0.00  0.00    +0.000 HD
BRANCH   8  12
ATOM     12  O   UNL     1       7.384   5.194  16.270  0.00  0.00    +0.000 OA
BRANCH  12  16
ATOM     13  C   UNL     1       7.762   8.472  17.825  0.00  0.00    +0.000 C 
ATOM     14  C   UNL     1       7.669   7.000  17.560  0.00  0.00    +0.000 C 
ATOM     15 CL   UNL     1       7.431   6.005  18.938  0.00  0.00    +0.000 Cl
ATOM     16  N   UNL     1       7.710   6.564  16.339  0.00  0.00    +0.000 NA
ENDBRANCH  12  16
ENDBRANCH   8  12
ENDBRANCH   1  10
BRANCH   4  17
ATOM     17  S   UNL     1       2.052   4.161  20.346  0.00  0.00    +0.000 S 
ATOM     18  O   UNL     1       2.343   5.227  21.281  0.00  0.00    +0.000 OA
ATOM     19  O   UNL     1       0.705   3.879  19.906  0.00  0.00    +0.000 OA
BRANCH  17  20
ATOM     20  N   UNL     1       2.578   2.733  21.052  0.00  0.00    +0.000 NA
ATOM     21  H   UNL     1       1.930   2.459  21.791  0.00  0.00    +0.000 HD
ATOM     22  H   UNL     1       2.694   2.024  20.327  0.00  0.00    +0.000 HD
ENDBRANCH  17  20
ENDBRANCH   4  17
TORSDOF 5
ENDMDL
MODEL 4
REMARK VINA RESULT:      -7.2      3.095      4.434
REMARK  Name = 
REMARK  7 active torsions:
REMARK  status: ('A' for Active; 'I' for Inactive)
REMARK    1  A    between atoms: C_1  and  C_2
REMARK    2  A    between atoms: N_4  and  O_5
REMARK    3  A    between atoms: O_5  and  C_6
REMARK    4  A    between atoms: N_8  and  C_9
REMARK    5  A    between atoms: C_12  and  S_13
REMARK    6  A    between atoms: S_13  and  N_14
REMARK    7  A    between atoms: C_17  and  C_18
REMARK                            x       y       z     vdW  Elec       q    Type
REMARK                         _______ _______ _______ _____ _____    ______ ____
ROOT
ATOM      1  C   UNL     1       5.456   5.071  16.251  0.00  0.00    +0.000 A 
ATOM      2  C   UNL     1       5.281   3.709  16.484  0.00  0.00    +0.000 A 
ATOM      3  C   UNL     1       4.204   3.246  17.233  0.00  0.00    +0.000 A 
ATOM      4  C   UNL     1       3.289   4.145  17.789  0.00  0.00    +0.000 A 
ATOM      5  C   UNL     1       3.484   5.531  17.639  0.00  0.00    +0.000 A 
ATOM      6  C   UNL     1       2.583   6.592  18.206  0.00  0.00    +0.000 C 
ATOM      7  C   UNL     1       4.590   5.974  16.876  0.00  0.00    +0.000 A 
ENDROOT
BRANCH   1  10
ATOM      8  C   UNL     1       6.914   5.126  14.216  0.00  0.00    +0.000 C 
ATOM      9  O   UNL     1       7.979   5.496  13.731  0.00  0.00    +0.000 OA
ATOM     10  N   UNL     1       6.490   5.577  15.446  0.00  0.00    +0.000 N 
ATOM     11  H   UNL     1       7.017   6.374  15.776  0.00  0.00    +0.000 HD
BRANCH   8  12
ATOM     12  O   UNL     1       5.994   4.366  13.535  0.00  0.00    +0.000 OA
BRANCH  12  16
ATOM     13  C   UNL     1       6.312   1.594  11.186  0.00  0.00    +0.000 C 
ATOM     14  C   UNL     1       5.868   2.822  11.921  0.00  0.00    +0.000 C 
ATOM     15 CL   UNL     1       4.272   3.358  11.586  0.00  0.00    +0.000 Cl
ATOM     16  N   UNL     1       6.659   3.371  12.790  0.00  0.00    +0.000 NA
ENDBRANCH  12  16
ENDBRANCH   8  12
ENDBRANCH   1  10
BRANCH   4  17
ATOM     17  S   UNL     1       1.894   3.435  18.628  0.00  0.00    +0.000 S 
ATOM     18  O   UNL     1       1.954   3.786  20.030  0.00  0.00    +0.000 OA
ATOM     19  O   UNL     1       0.701   3.642  17.839  0.00  0.00    +0.000 OA
BRANCH  17  20
ATOM     20  N   UNL     1       2.194   1.787  18.522  0.00  0.00    +0.000 NA
ATOM     21  H   UNL     1       2.243   1.512  17.541  0.00  0.00    +0.000 HD
ATOM     22  H   UNL     1       3.040   1.567  19.049  0.00  0.00    +0.000 HD
ENDBRANCH  17  20
ENDBRANCH   4  17
TORSDOF 5
ENDMDL
MODEL 5
REMARK VINA RESULT:      -7.2      0.581      1.620
REMARK  Name = 
REMARK  7 active torsions:
REMARK  status: ('A' for Active; 'I' for Inactive)
REMARK    1  A    between atoms: C_1  and  C_2
REMARK    2  A    between atoms: N_4  and  O_5
REMARK    3  A    between atoms: O_5  and  C_6
REMARK    4  A    between atoms: N_8  and  C_9
REMARK    5  A    between atoms: C_12  and  S_13
REMARK    6  A    between atoms: S_13  and  N_14
REMARK    7  A    between atoms: C_17  and  C_18
REMARK                            x       y       z     vdW  Elec       q    Type
REMARK                         _______ _______ _______ _____ _____    ______ ____
ROOT
ATOM      1  C   UNL     1       4.699   4.257  16.620  0.00  0.00    +0.000 A 
ATOM      2  C   UNL     1       4.620   3.095  17.384  0.00  0.00    +0.000 A 
ATOM      3  C   UNL     1       3.850   3.052  18.541  0.00  0.00    +0.000 A 
ATOM      4  C   UNL     1       3.158   4.188  18.973  0.00  0.00    +0.000 A 
ATOM      5  C   UNL     1       3.282   5.399  18.267  0.00  0.00    +0.000 A 
ATOM      6  C   UNL     1       2.606   6.687  18.645  0.00  0.00    +0.000 C 
ATOM      7  C   UNL     1       4.076   5.415  17.096  0.00  0.00    +0.000 A 
ENDROOT
BRANCH   1  10
ATOM      8  C   UNL     1       6.612   4.950  15.159  0.00  0.00    +0.000 C 
ATOM      9  O   UNL     1       7.005   5.144  14.013  0.00  0.00    +0.000 OA
ATOM     10  N   UNL     1       5.411   4.324  15.411  0.00  0.00    +0.000 N 
ATOM     11  H   UNL     1       5.027   3.867  14.595  0.00  0.00    +0.000 HD
BRANCH   8  12
ATOM     12  O   UNL     1       7.377   5.193  16.274  0.00  0.00    +0.000 OA
BRANCH  12  16
ATOM     13  C   UNL     1       7.759   8.482  17.804  0.00  0.00    +0.000 C 
ATOM     14  C   UNL     1       7.663   7.009  17.551  0.00  0.00    +0.000 C 
ATOM     15 CL   UNL     1       7.418   6.025  18.936  0.00  0.00    +0.000 Cl
ATOM     16  N   UNL     1       7.706   6.563  16.334  0.00  0.00    +0.000 NA
ENDBRANCH  12  16
ENDBRANCH   8  12
ENDBRANCH   1  10
BRANCH   4  17
ATOM     17  S   UNL     1       2.117   3.984  20.398  0.00  0.00    +0.000 S 
ATOM     18  O   UNL     1       0.732   4.065  19.988  0.00  0.00    +0.000 OA
ATOM     19  O   UNL     1       2.612   2.891  21.204  0.00  0.00    +0.000 OA
BRANCH  17  20
ATOM     20  N   UNL     1       2.444   5.361  21.299  0.00  0.00    +0.000 NA
ATOM     21  H   UNL     1       1.655   6.005  21.233  0.00  0.00    +0.000 HD
ATOM     22  H   UNL     1       2.670   5.089  22.256  0.00  0.00    +0.000 HD
ENDBRANCH  17  20
ENDBRANCH   4  17
TORSDOF 5
ENDMDL
MODEL 6
REMARK VINA RESULT:      -7.1      2.737      6.093
REMARK  Name = 
REMARK  7 active torsions:
REMARK  status: ('A' for Active; 'I' for Inactive)
REMARK    1  A    between atoms: C_1  and  C_2
REMARK    2  A    between atoms: N_4  and  O_5
REMARK    3  A    between atoms: O_5  and  C_6
REMARK    4  A    between atoms: N_8  and  C_9
REMARK    5  A    between atoms: C_12  and  S_13
REMARK    6  A    between atoms: S_13  and  N_14
REMARK    7  A    between atoms: C_17  and  C_18
REMARK                            x       y       z     vdW  Elec       q    Type
REMARK                         _______ _______ _______ _____ _____    ______ ____
ROOT
ATOM      1  C   UNL     1       4.256   3.247  19.110  0.00  0.00    +0.000 A 
ATOM      2  C   UNL     1       3.895   2.904  17.809  0.00  0.00    +0.000 A 
ATOM      3  C   UNL     1       4.544   3.469  16.716  0.00  0.00    +0.000 A 
ATOM      4  C   UNL     1       5.556   4.415  16.904  0.00  0.00    +0.000 A 
ATOM      5  C   UNL     1       5.889   4.841  18.203  0.00  0.00    +0.000 A 
ATOM      6  C   UNL     1       6.941   5.863  18.529  0.00  0.00    +0.000 C 
ATOM      7  C   UNL     1       5.210   4.253  19.297  0.00  0.00    +0.000 A 
ENDROOT
BRANCH   1  10
ATOM      8  C   UNL     1       2.536   3.032  20.916  0.00  0.00    +0.000 C 
ATOM      9  O   UNL     1       2.270   2.582  22.027  0.00  0.00    +0.000 OA
ATOM     10  N   UNL     1       3.675   2.652  20.241  0.00  0.00    +0.000 N 
ATOM     11  H   UNL     1       4.117   1.838  20.644  0.00  0.00    +0.000 HD
BRANCH   8  12
ATOM     12  O   UNL     1       1.674   3.819  20.191  0.00  0.00    +0.000 OA
BRANCH  12  16
ATOM     13  C   UNL     1       1.986   7.444  20.446  0.00  0.00    +0.000 C 
ATOM     14  C   UNL     1       1.824   6.039  19.953  0.00  0.00    +0.000 C 
ATOM     15 CL   UNL     1       2.080   5.802  18.272  0.00  0.00    +0.000 Cl
ATOM     16  N   UNL     1       1.567   5.088  20.796  0.00  0.00    +0.000 NA
ENDBRANCH  12  16
ENDBRANCH   8  12
ENDBRANCH   1  10
BRANCH   4  17
ATOM     17  S   UNL     1       6.389   4.981  15.441  0.00  0.00    +0.000 S 
ATOM     18  O   UNL     1       5.904   6.301  15.100  0.00  0.00    +0.000 OA
ATOM     19  O   UNL     1       7.801   4.691  15.547  0.00  0.00    +0.000 OA
BRANCH  17  20
ATOM     20  N   UNL     1       5.824   3.931  14.260  0.00  0.00    +0.000 NA
ATOM     21  H   UNL     1       4.872   3.645  14.486  0.00  0.00    +0.000 HD
ATOM     22  H   UNL     1       5.910   4.378  13.346  0.00  0.00    +0.000 HD
ENDBRANCH  17  20
ENDBRANCH   4  17
TORSDOF 5
ENDMDL
MODEL 7
REMARK VINA RESULT:      -7.0      2.148      3.106
REMARK  Name = 
REMARK  7 active torsions:
REMARK  status: ('A' for Active; 'I' for Inactive)
REMARK    1  A    between atoms: C_1  and  C_2
REMARK    2  A    between atoms: N_4  and  O_5
REMARK    3  A    between atoms: O_5  and  C_6
REMARK    4  A    between atoms: N_8  and  C_9
REMARK    5  A    between atoms: C_12  and  S_13
REMARK    6  A    between atoms: S_13  and  N_14
REMARK    7  A    between atoms: C_17  and  C_18
REMARK                            x       y       z     vdW  Elec       q    Type
REMARK                         _______ _______ _______ _____ _____    ______ ____
ROOT
ATOM      1  C   UNL     1       5.048   5.894  18.199  0.00  0.00    +0.000 A 
ATOM      2  C   UNL     1       5.389   5.188  19.350  0.00  0.00    +0.000 A 
ATOM      3  C   UNL     1       4.515   4.258  19.903  0.00  0.00    +0.000 A 
ATOM      4  C   UNL     1       3.261   4.034  19.326  0.00  0.00    +0.000 A 
ATOM      5  C   UNL     1       2.855   4.789  18.210  0.00  0.00    +0.000 A 
ATOM      6  C   UNL     1       1.528   4.653  17.517  0.00  0.00    +0.000 C 
ATOM      7  C   UNL     1       3.763   5.731  17.670  0.00  0.00    +0.000 A 
ENDROOT
BRANCH   1  10
ATOM      8  C   UNL     1       7.128   6.520  16.953  0.00  0.00    +0.000 C 
ATOM      9  O   UNL     1       7.913   7.417  16.660  0.00  0.00    +0.000 OA
ATOM     10  N   UNL     1       5.926   6.791  17.570  0.00  0.00    +0.000 N 
ATOM     11  H   UNL     1       5.684   7.772  17.545  0.00  0.00    +0.000 HD
BRANCH   8  12
ATOM     12  O   UNL     1       7.294   5.211  16.570  0.00  0.00    +0.000 OA
BRANCH  12  16
ATOM     13  C   UNL     1       6.407   3.882  13.291  0.00  0.00    +0.000 C 
ATOM     14  C   UNL     1       6.411   4.286  14.733  0.00  0.00    +0.000 C 
ATOM     15 CL   UNL     1       5.248   3.511  15.731  0.00  0.00    +0.000 Cl
ATOM     16  N   UNL     1       7.300   5.127  15.162  0.00  0.00    +0.000 NA
ENDBRANCH  12  16
ENDBRANCH   8  12
ENDBRANCH   1  10
BRANCH   4  17
ATOM     17  S   UNL     1       2.277   2.745  20.050  0.00  0.00    +0.000 S 
ATOM     18  O   UNL     1       1.976   1.754  19.040  0.00  0.00    +0.000 OA
ATOM     19  O   UNL     1       2.829   2.382  21.335  0.00  0.00    +0.000 OA
BRANCH  17  20
ATOM     20  N   UNL     1       0.839   3.531  20.409  0.00  0.00    +0.000 NA
ATOM     21  H   UNL     1       0.925   4.521  20.181  0.00  0.00    +0.000 HD
ATOM     22  H   UNL     1       0.072   3.065  19.922  0.00  0.00    +0.000 HD
ENDBRANCH  17  20
ENDBRANCH   4  17
TORSDOF 5
ENDMDL
MODEL 8
REMARK VINA RESULT:      -7.0      2.249      3.292
REMARK  Name = 
REMARK  7 active torsions:
REMARK  status: ('A' for Active; 'I' for Inactive)
REMARK    1  A    between atoms: C_1  and  C_2
REMARK    2  A    between atoms: N_4  and  O_5
REMARK    3  A    between atoms: O_5  and  C_6
REMARK    4  A    between atoms: N_8  and  C_9
REMARK    5  A    between atoms: C_12  and  S_13
REMARK    6  A    between atoms: S_13  and  N_14
REMARK    7  A    between atoms: C_17  and  C_18
REMARK                            x       y       z     vdW  Elec       q    Type
REMARK                         _______ _______ _______ _____ _____    ______ ____
ROOT
ATOM      1  C   UNL     1       5.095   5.925  18.152  0.00  0.00    +0.000 A 
ATOM      2  C   UNL     1       5.463   5.140  19.241  0.00  0.00    +0.000 A 
ATOM      3  C   UNL     1       4.590   4.192  19.765  0.00  0.00    +0.000 A 
ATOM      4  C   UNL     1       3.312   4.029  19.221  0.00  0.00    +0.000 A 
ATOM      5  C   UNL     1       2.883   4.862  18.171  0.00  0.00    +0.000 A 
ATOM      6  C   UNL     1       1.530   4.796  17.520  0.00  0.00    +0.000 C 
ATOM      7  C   UNL     1       3.790   5.820  17.661  0.00  0.00    +0.000 A 
ENDROOT
BRANCH   1  10
ATOM      8  C   UNL     1       7.186   6.604  16.952  0.00  0.00    +0.000 C 
ATOM      9  O   UNL     1       7.960   7.518  16.685  0.00  0.00    +0.000 OA
ATOM     10  N   UNL     1       5.969   6.846  17.550  0.00  0.00    +0.000 N 
ATOM     11  H   UNL     1       5.710   7.823  17.534  0.00  0.00    +0.000 HD
BRANCH   8  12
ATOM     12  O   UNL     1       7.382   5.303  16.555  0.00  0.00    +0.000 OA
BRANCH  12  16
ATOM     13  C   UNL     1       6.442   3.893  13.325  0.00  0.00    +0.000 C 
ATOM     14  C   UNL     1       6.491   4.294  14.768  0.00  0.00    +0.000 C 
ATOM     15 CL   UNL     1       5.475   3.402  15.827  0.00  0.00    +0.000 Cl
ATOM     16  N   UNL     1       7.313   5.221  15.149  0.00  0.00    +0.000 NA
ENDBRANCH  12  16
ENDBRANCH   8  12
ENDBRANCH   1  10
BRANCH   4  17
ATOM     17  S   UNL     1       2.328   2.713  19.895  0.00  0.00    +0.000 S 
ATOM     18  O   UNL     1       2.996   2.172  21.059  0.00  0.00    +0.000 OA
ATOM     19  O   UNL     1       0.941   3.116  19.930  0.00  0.00    +0.000 OA
BRANCH  17  20
ATOM     20  N   UNL     1       2.403   1.540  18.698  0.00  0.00    +0.000 NA
ATOM     21  H   UNL     1       1.459   1.236  18.459  0.00  0.00    +0.000 HD
ATOM     22  H   UNL     1       2.927   1.906  17.903  0.00  0.00    +0.000 HD
ENDBRANCH  17  20
ENDBRANCH   4  17
TORSDOF 5
ENDMDL
MODEL 9
REMARK VINA RESULT:      -6.9      1.609      1.922
REMARK  Name = 
REMARK  7 active torsions:
REMARK  status: ('A' for Active; 'I' for Inactive)
REMARK    1  A    between atoms: C_1  and  C_2
REMARK    2  A    between atoms: N_4  and  O_5
REMARK    3  A    between atoms: O_5  and  C_6
REMARK    4  A    between atoms: N_8  and  C_9
REMARK    5  A    between atoms: C_12  and  S_13
REMARK    6  A    between atoms: S_13  and  N_14
REMARK    7  A    between atoms: C_17  and  C_18
REMARK                            x       y       z     vdW  Elec       q    Type
REMARK                         _______ _______ _______ _____ _____    ______ ____
ROOT
ATOM      1  C   UNL     1       4.882   3.723  17.212  0.00  0.00    +0.000 A 
ATOM      2  C   UNL     1       5.292   3.788  18.542  0.00  0.00    +0.000 A 
ATOM      3  C   UNL     1       4.369   3.983  19.564  0.00  0.00    +0.000 A 
ATOM      4  C   UNL     1       3.011   4.145  19.271  0.00  0.00    +0.000 A 
ATOM      5  C   UNL     1       2.578   4.165  17.933  0.00  0.00    +0.000 A 
ATOM      6  C   UNL     1       1.152   4.351  17.494  0.00  0.00    +0.000 C 
ATOM      7  C   UNL     1       3.538   3.968  16.913  0.00  0.00    +0.000 A 
ENDROOT
BRANCH   1  10
ATOM      8  C   UNL     1       6.178   4.310  15.151  0.00  0.00    +0.000 C 
ATOM      9  O   UNL     1       6.761   3.890  14.156  0.00  0.00    +0.000 OA
ATOM     10  N   UNL     1       5.770   3.461  16.156  0.00  0.00    +0.000 N 
ATOM     11  H   UNL     1       6.186   2.542  16.087  0.00  0.00    +0.000 HD
BRANCH   8  12
ATOM     12  O   UNL     1       6.014   5.646  15.427  0.00  0.00    +0.000 OA
BRANCH  12  16
ATOM     13  C   UNL     1       7.819   7.713  17.830  0.00  0.00    +0.000 C 
ATOM     14  C   UNL     1       6.777   6.924  17.098  0.00  0.00    +0.000 C 
ATOM     15 CL   UNL     1       5.150   7.223  17.560  0.00  0.00    +0.000 Cl
ATOM     16  N   UNL     1       7.132   6.124  16.141  0.00  0.00    +0.000 NA
ENDBRANCH  12  16
ENDBRANCH   8  12
ENDBRANCH   1  10
BRANCH   4  17
ATOM     17  S   UNL     1       1.914   4.273  20.662  0.00  0.00    +0.000 S 
ATOM     18  O   UNL     1       2.534   3.654  21.813  0.00  0.00    +0.000 OA
ATOM     19  O   UNL     1       1.360   5.607  20.718  0.00  0.00    +0.000 OA
BRANCH  17  20
ATOM     20  N   UNL     1       0.627   3.294  20.213  0.00  0.00    +0.000 NA
ATOM     21  H   UNL     1       0.002   3.167  21.008  0.00  0.00    +0.000 HD
ATOM     22  H   UNL     1       0.169   3.698  19.394  0.00  0.00    +0.000 HD
ENDBRANCH  17  20
ENDBRANCH   4  17
TORSDOF 5
ENDMDL
