MODEL 1
REMARK VINA RESULT:      -8.0      0.000      0.000
REMARK  Name = 
REMARK  4 active torsions:
REMARK  status: ('A' for Active; 'I' for Inactive)
REMARK    1  A    between atoms: C_1  and  C_2
REMARK    2  A    between atoms: C_5  and  C_6
REMARK    3  A    between atoms: C_6  and  O_8
REMARK    4  A    between atoms: O_8  and  N_9
REMARK                            x       y       z     vdW  Elec       q    Type
REMARK                         _______ _______ _______ _____ _____    ______ ____
ROOT
ATOM      1  N   UNL     1       3.281   7.819  17.758  0.00  0.00    +0.000 NA
ATOM      2  C   UNL     1       3.522   6.548  17.851  0.00  0.00    +0.000 C 
ATOM      3  C   UNL     1       2.483   5.466  18.133  0.00  0.00    +0.000 C 
ATOM      4  C   UNL     1       2.970   4.489  19.200  0.00  0.00    +0.000 C 
ATOM      5  S   UNL     1       4.379   3.549  18.625  0.00  0.00    +0.000 S 
ATOM      6  O   UNL     1       5.125   3.063  19.765  0.00  0.00    +0.000 OA
ATOM      7  O   UNL     1       3.969   2.712  17.519  0.00  0.00    +0.000 OA
ATOM      8  C   UNL     1       5.323   4.857  17.909  0.00  0.00    +0.000 A 
ATOM      9  S   UNL     1       6.942   4.558  17.500  0.00  0.00    +0.000 S 
ATOM     10  C   UNL     1       7.145   6.166  16.944  0.00  0.00    +0.000 A 
ATOM     11  C   UNL     1       5.987   6.906  17.067  0.00  0.00    +0.000 A 
ATOM     12  C   UNL     1       4.908   6.139  17.613  0.00  0.00    +0.000 A 
ENDROOT
BRANCH   1  13
ATOM     13  O   UNL     1       1.906   8.111  17.820  0.00  0.00    +0.000 OA
BRANCH  13  14
ATOM     14  C   UNL     1       1.739   9.434  18.115  0.00  0.00    +0.000 C 
ATOM     15  O   UNL     1       2.134  10.375  17.441  0.00  0.00    +0.000 OA
BRANCH  14  20
ATOM     16  C   UNL     1      -0.878  10.144  23.242  0.00  0.00    +0.000 C 
ATOM     17  C   UNL     1      -0.250   9.922  21.898  0.00  0.00    +0.000 A 
ATOM     18  C   UNL     1       0.652   8.873  21.687  0.00  0.00    +0.000 A 
ATOM     19  C   UNL     1       1.264   8.705  20.440  0.00  0.00    +0.000 A 
ATOM     20  C   UNL     1       0.981   9.585  19.388  0.00  0.00    +0.000 A 
ATOM     21  C   UNL     1       0.061  10.624  19.593  0.00  0.00    +0.000 A 
ATOM     22  C   UNL     1      -0.547  10.789  20.840  0.00  0.00    +0.000 A 
ENDBRANCH  14  20
ENDBRANCH  13  14
ENDBRANCH   1  13
TORSDOF 3
ENDMDL
MODEL 2
REMARK VINA RESULT:      -7.8      0.183      1.028
REMARK  Name = 
REMARK  4 active torsions:
REMARK  status: ('A' for Active; 'I' for Inactive)
REMARK    1  A    between atoms: C_1  and  C_2
REMARK    2  A    between atoms: C_5  and  C_6
REMARK    3  A    between atoms: C_6  and  O_8
REMARK    4  A    between atoms: O_8  and  N_9
REMARK                            x       y       z     vdW  Elec       q    Type
REMARK                         _______ _______ _______ _____ _____    ______ ____
ROOT
ATOM      1  N   UNL     1       3.291   7.822  17.835  0.00  0.00    +0.000 NA
ATOM      2  C   UNL     1       3.530   6.551  17.914  0.00  0.00    +0.000 C 
ATOM      3  C   UNL     1       2.491   5.470  18.204  0.00  0.00    +0.000 C 
ATOM      4  C   UNL     1       2.992   4.483  19.255  0.00  0.00    +0.000 C 
ATOM      5  S   UNL     1       4.388   3.542  18.651  0.00  0.00    +0.000 S 
ATOM      6  O   UNL     1       5.149   3.045  19.775  0.00  0.00    +0.000 OA
ATOM      7  O   UNL     1       3.958   2.715  17.545  0.00  0.00    +0.000 OA
ATOM      8  C   UNL     1       5.325   4.852  17.930  0.00  0.00    +0.000 A 
ATOM      9  S   UNL     1       6.936   4.551  17.493  0.00  0.00    +0.000 S 
ATOM     10  C   UNL     1       7.136   6.163  16.947  0.00  0.00    +0.000 A 
ATOM     11  C   UNL     1       5.983   6.906  17.094  0.00  0.00    +0.000 A 
ATOM     12  C   UNL     1       4.910   6.138  17.651  0.00  0.00    +0.000 A 
ENDROOT
BRANCH   1  13
ATOM     13  O   UNL     1       1.919   8.119  17.921  0.00  0.00    +0.000 OA
BRANCH  13  14
ATOM     14  C   UNL     1       1.760   9.453  18.161  0.00  0.00    +0.000 C 
ATOM     15  O   UNL     1       2.052  10.360  17.395  0.00  0.00    +0.000 OA
BRANCH  14  20
ATOM     16  C   UNL     1      -0.954  10.266  23.223  0.00  0.00    +0.000 C 
ATOM     17  C   UNL     1      -0.198  10.079  21.940  0.00  0.00    +0.000 A 
ATOM     18  C   UNL     1      -0.169  11.085  20.967  0.00  0.00    +0.000 A 
ATOM     19  C   UNL     1       0.503  10.880  19.757  0.00  0.00    +0.000 A 
ATOM     20  C   UNL     1       1.154   9.666  19.505  0.00  0.00    +0.000 A 
ATOM     21  C   UNL     1       1.143   8.666  20.488  0.00  0.00    +0.000 A 
ATOM     22  C   UNL     1       0.470   8.875  21.696  0.00  0.00    +0.000 A 
ENDBRANCH  14  20
ENDBRANCH  13  14
ENDBRANCH   1  13
TORSDOF 3
ENDMDL
MODEL 3
REMARK VINA RESULT:      -7.5      3.580      7.925
REMARK  Name = 
REMARK  4 active torsions:
REMARK  status: ('A' for Active; 'I' for Inactive)
REMARK    1  A    between atoms: C_1  and  C_2
REMARK    2  A    between atoms: C_5  and  C_6
REMARK    3  A    between atoms: C_6  and  O_8
REMARK    4  A    between atoms: O_8  and  N_9
REMARK                            x       y       z     vdW  Elec       q    Type
REMARK                         _______ _______ _______ _____ _____    ______ ____
ROOT
ATOM      1  N   UNL     1       1.825   7.980  20.019  0.00  0.00    +0.000 NA
ATOM      2  C   UNL     1       1.221   9.111  19.828  0.00  0.00    +0.000 C 
ATOM      3  C   UNL     1       1.148   9.864  18.501  0.00  0.00    +0.000 C 
ATOM      4  C   UNL     1       1.456  11.347  18.683  0.00  0.00    +0.000 C 
ATOM      5  S   UNL     1       0.201  12.155  19.669  0.00  0.00    +0.000 S 
ATOM      6  O   UNL     1       0.758  13.351  20.262  0.00  0.00    +0.000 OA
ATOM      7  O   UNL     1      -1.055  12.125  18.953  0.00  0.00    +0.000 OA
ATOM      8  C   UNL     1       0.041  10.964  20.961  0.00  0.00    +0.000 A 
ATOM      9  S   UNL     1      -0.802  11.400  22.367  0.00  0.00    +0.000 S 
ATOM     10  C   UNL     1      -0.517   9.863  23.069  0.00  0.00    +0.000 A 
ATOM     11  C   UNL     1       0.204   9.038  22.231  0.00  0.00    +0.000 A 
ATOM     12  C   UNL     1       0.518   9.669  20.985  0.00  0.00    +0.000 A 
ENDROOT
BRANCH   1  13
ATOM     13  O   UNL     1       2.320   7.425  18.826  0.00  0.00    +0.000 OA
BRANCH  13  14
ATOM     14  C   UNL     1       2.942   6.241  19.103  0.00  0.00    +0.000 C 
ATOM     15  O   UNL     1       2.806   5.581  20.123  0.00  0.00    +0.000 OA
BRANCH  14  20
ATOM     16  C   UNL     1       6.019   4.574  14.477  0.00  0.00    +0.000 C 
ATOM     17  C   UNL     1       5.276   5.001  15.710  0.00  0.00    +0.000 A 
ATOM     18  C   UNL     1       4.650   4.062  16.537  0.00  0.00    +0.000 A 
ATOM     19  C   UNL     1       3.924   4.479  17.658  0.00  0.00    +0.000 A 
ATOM     20  C   UNL     1       3.816   5.841  17.966  0.00  0.00    +0.000 A 
ATOM     21  C   UNL     1       4.460   6.780  17.149  0.00  0.00    +0.000 A 
ATOM     22  C   UNL     1       5.183   6.360  16.029  0.00  0.00    +0.000 A 
ENDBRANCH  14  20
ENDBRANCH  13  14
ENDBRANCH   1  13
TORSDOF 3
ENDMDL
MODEL 4
REMARK VINA RESULT:      -7.4      3.576      7.980
REMARK  Name = 
REMARK  4 active torsions:
REMARK  status: ('A' for Active; 'I' for Inactive)
REMARK    1  A    between atoms: C_1  and  C_2
REMARK    2  A    between atoms: C_5  and  C_6
REMARK    3  A    between atoms: C_6  and  O_8
REMARK    4  A    between atoms: O_8  and  N_9
REMARK                            x       y       z     vdW  Elec       q    Type
REMARK                         _______ _______ _______ _____ _____    ______ ____
ROOT
ATOM      1  N   UNL     1       1.891   8.032  19.977  0.00  0.00    +0.000 NA
ATOM      2  C   UNL     1       1.264   9.155  19.817  0.00  0.00    +0.000 C 
ATOM      3  C   UNL     1       1.156   9.931  18.506  0.00  0.00    +0.000 C 
ATOM      4  C   UNL     1       1.439  11.416  18.713  0.00  0.00    +0.000 C 
ATOM      5  S   UNL     1       0.186  12.181  19.733  0.00  0.00    +0.000 S 
ATOM      6  O   UNL     1       0.729  13.376  20.341  0.00  0.00    +0.000 OA
ATOM      7  O   UNL     1      -1.081  12.142  19.036  0.00  0.00    +0.000 OA
ATOM      8  C   UNL     1       0.068  10.962  21.004  0.00  0.00    +0.000 A 
ATOM      9  S   UNL     1      -0.761  11.356  22.431  0.00  0.00    +0.000 S 
ATOM     10  C   UNL     1      -0.437   9.811  23.098  0.00  0.00    +0.000 A 
ATOM     11  C   UNL     1       0.286   9.015  22.233  0.00  0.00    +0.000 A 
ATOM     12  C   UNL     1       0.568   9.677  20.995  0.00  0.00    +0.000 A 
ENDROOT
BRANCH   1  13
ATOM     13  O   UNL     1       2.378   7.509  18.765  0.00  0.00    +0.000 OA
BRANCH  13  14
ATOM     14  C   UNL     1       2.882   6.259  18.984  0.00  0.00    +0.000 C 
ATOM     15  O   UNL     1       2.700   5.576  19.982  0.00  0.00    +0.000 OA
BRANCH  14  20
ATOM     16  C   UNL     1       6.346   4.642  14.621  0.00  0.00    +0.000 C 
ATOM     17  C   UNL     1       5.401   5.063  15.708  0.00  0.00    +0.000 A 
ATOM     18  C   UNL     1       5.215   6.415  16.020  0.00  0.00    +0.000 A 
ATOM     19  C   UNL     1       4.364   6.790  17.065  0.00  0.00    +0.000 A 
ATOM     20  C   UNL     1       3.688   5.817  17.812  0.00  0.00    +0.000 A 
ATOM     21  C   UNL     1       3.857   4.464  17.486  0.00  0.00    +0.000 A 
ATOM     22  C   UNL     1       4.709   4.093  16.442  0.00  0.00    +0.000 A 
ENDBRANCH  14  20
ENDBRANCH  13  14
ENDBRANCH   1  13
TORSDOF 3
ENDMDL
MODEL 5
REMARK VINA RESULT:      -7.4      1.684      2.257
REMARK  Name = 
REMARK  4 active torsions:
REMARK  status: ('A' for Active; 'I' for Inactive)
REMARK    1  A    between atoms: C_1  and  C_2
REMARK    2  A    between atoms: C_5  and  C_6
REMARK    3  A    between atoms: C_6  and  O_8
REMARK    4  A    between atoms: O_8  and  N_9
REMARK                            x       y       z     vdW  Elec       q    Type
REMARK                         _______ _______ _______ _____ _____    ______ ____
ROOT
ATOM      1  N   UNL     1       2.431   7.436  19.597  0.00  0.00    +0.000 NA
ATOM      2  C   UNL     1       2.365   6.144  19.667  0.00  0.00    +0.000 C 
ATOM      3  C   UNL     1       1.483   5.352  20.629  0.00  0.00    +0.000 C 
ATOM      4  C   UNL     1       2.260   4.221  21.296  0.00  0.00    +0.000 C 
ATOM      5  S   UNL     1       2.760   2.984  20.105  0.00  0.00    +0.000 S 
ATOM      6  O   UNL     1       3.896   2.255  20.622  0.00  0.00    +0.000 OA
ATOM      7  O   UNL     1       1.580   2.348  19.560  0.00  0.00    +0.000 OA
ATOM      8  C   UNL     1       3.362   4.043  18.828  0.00  0.00    +0.000 A 
ATOM      9  S   UNL     1       4.276   3.361  17.573  0.00  0.00    +0.000 S 
ATOM     10  C   UNL     1       4.484   4.892  16.832  0.00  0.00    +0.000 A 
ATOM     11  C   UNL     1       3.855   5.898  17.537  0.00  0.00    +0.000 A 
ATOM     12  C   UNL     1       3.178   5.404  18.698  0.00  0.00    +0.000 A 
ENDROOT
BRANCH   1  13
ATOM     13  O   UNL     1       1.493   8.070  20.431  0.00  0.00    +0.000 OA
BRANCH  13  14
ATOM     14  C   UNL     1       1.091   9.239  19.852  0.00  0.00    +0.000 C 
ATOM     15  O   UNL     1       1.436   9.652  18.754  0.00  0.00    +0.000 OA
BRANCH  14  20
ATOM     16  C   UNL     1      -2.293  12.180  23.532  0.00  0.00    +0.000 C 
ATOM     17  C   UNL     1      -1.468  11.382  22.566  0.00  0.00    +0.000 A 
ATOM     18  C   UNL     1      -0.750  10.256  22.987  0.00  0.00    +0.000 A 
ATOM     19  C   UNL     1       0.049   9.548  22.084  0.00  0.00    +0.000 A 
ATOM     20  C   UNL     1       0.142   9.957  20.747  0.00  0.00    +0.000 A 
ATOM     21  C   UNL     1      -0.594  11.071  20.320  0.00  0.00    +0.000 A 
ATOM     22  C   UNL     1      -1.391  11.777  21.226  0.00  0.00    +0.000 A 
ENDBRANCH  14  20
ENDBRANCH  13  14
ENDBRANCH   1  13
TORSDOF 3
ENDMDL
MODEL 6
REMARK VINA RESULT:      -7.4      3.246      7.791
REMARK  Name = 
REMARK  4 active torsions:
REMARK  status: ('A' for Active; 'I' for Inactive)
REMARK    1  A    between atoms: C_1  and  C_2
REMARK    2  A    between atoms: C_5  and  C_6
REMARK    3  A    between atoms: C_6  and  O_8
REMARK    4  A    between atoms: O_8  and  N_9
REMARK                            x       y       z     vdW  Elec       q    Type
REMARK                         _______ _______ _______ _____ _____    ______ ____
ROOT
ATOM      1  N   UNL     1       2.242   7.089  19.635  0.00  0.00    +0.000 NA
ATOM      2  C   UNL     1       1.706   8.241  19.379  0.00  0.00    +0.000 C 
ATOM      3  C   UNL     1       1.605   8.885  17.998  0.00  0.00    +0.000 C 
ATOM      4  C   UNL     1       2.022  10.352  18.034  0.00  0.00    +0.000 C 
ATOM      5  S   UNL     1       0.887  11.328  19.013  0.00  0.00    +0.000 S 
ATOM      6  O   UNL     1       1.558  12.525  19.469  0.00  0.00    +0.000 OA
ATOM      7  O   UNL     1      -0.409  11.330  18.371  0.00  0.00    +0.000 OA
ATOM      8  C   UNL     1       0.725  10.262  20.410  0.00  0.00    +0.000 A 
ATOM      9  S   UNL     1      -0.001  10.873  21.816  0.00  0.00    +0.000 S 
ATOM     10  C   UNL     1       0.221   9.383  22.632  0.00  0.00    +0.000 A 
ATOM     11  C   UNL     1       0.833   8.441  21.831  0.00  0.00    +0.000 A 
ATOM     12  C   UNL     1       1.113   8.943  20.519  0.00  0.00    +0.000 A 
ENDROOT
BRANCH   1  13
ATOM     13  O   UNL     1       2.626   6.403  18.469  0.00  0.00    +0.000 OA
BRANCH  13  14
ATOM     14  C   UNL     1       3.813   5.766  18.690  0.00  0.00    +0.000 C 
ATOM     15  O   UNL     1       4.324   5.559  19.782  0.00  0.00    +0.000 OA
BRANCH  14  20
ATOM     16  C   UNL     1       6.495   4.225  13.783  0.00  0.00    +0.000 C 
ATOM     17  C   UNL     1       5.745   4.619  15.022  0.00  0.00    +0.000 A 
ATOM     18  C   UNL     1       5.477   5.963  15.307  0.00  0.00    +0.000 A 
ATOM     19  C   UNL     1       4.816   6.318  16.487  0.00  0.00    +0.000 A 
ATOM     20  C   UNL     1       4.413   5.333  17.398  0.00  0.00    +0.000 A 
ATOM     21  C   UNL     1       4.662   3.985  17.103  0.00  0.00    +0.000 A 
ATOM     22  C   UNL     1       5.324   3.634  15.923  0.00  0.00    +0.000 A 
ENDBRANCH  14  20
ENDBRANCH  13  14
ENDBRANCH   1  13
TORSDOF 3
ENDMDL
MODEL 7
REMARK VINA RESULT:      -7.3      1.744      2.369
REMARK  Name = 
REMARK  4 active torsions:
REMARK  status: ('A' for Active; 'I' for Inactive)
REMARK    1  A    between atoms: C_1  and  C_2
REMARK    2  A    between atoms: C_5  and  C_6
REMARK    3  A    between atoms: C_6  and  O_8
REMARK    4  A    between atoms: O_8  and  N_9
REMARK                            x       y       z     vdW  Elec       q    Type
REMARK                         _______ _______ _______ _____ _____    ______ ____
ROOT
ATOM      1  N   UNL     1       2.894   8.085  17.939  0.00  0.00    +0.000 NA
ATOM      2  C   UNL     1       3.072   6.815  18.130  0.00  0.00    +0.000 C 
ATOM      3  C   UNL     1       2.263   5.941  19.086  0.00  0.00    +0.000 C 
ATOM      4  C   UNL     1       3.171   5.046  19.926  0.00  0.00    +0.000 C 
ATOM      5  S   UNL     1       4.023   3.846  18.911  0.00  0.00    +0.000 S 
ATOM      6  O   UNL     1       5.218   3.405  19.595  0.00  0.00    +0.000 OA
ATOM      7  O   UNL     1       3.052   2.944  18.331  0.00  0.00    +0.000 OA
ATOM      8  C   UNL     1       4.539   4.901  17.593  0.00  0.00    +0.000 A 
ATOM      9  S   UNL     1       5.695   4.320  16.496  0.00  0.00    +0.000 S 
ATOM     10  C   UNL     1       5.679   5.798  15.628  0.00  0.00    +0.000 A 
ATOM     11  C   UNL     1       4.797   6.708  16.174  0.00  0.00    +0.000 A 
ATOM     12  C   UNL     1       4.109   6.182  17.314  0.00  0.00    +0.000 A 
ENDROOT
BRANCH   1  13
ATOM     13  O   UNL     1       1.768   8.580  18.623  0.00  0.00    +0.000 OA
BRANCH  13  14
ATOM     14  C   UNL     1       1.565   9.884  18.273  0.00  0.00    +0.000 C 
ATOM     15  O   UNL     1       2.431  10.682  17.943  0.00  0.00    +0.000 OA
BRANCH  14  20
ATOM     16  C   UNL     1      -4.001  11.514  18.337  0.00  0.00    +0.000 C 
ATOM     17  C   UNL     1      -2.575  11.048  18.365  0.00  0.00    +0.000 A 
ATOM     18  C   UNL     1      -1.643  11.625  19.235  0.00  0.00    +0.000 A 
ATOM     19  C   UNL     1      -0.308  11.210  19.219  0.00  0.00    +0.000 A 
ATOM     20  C   UNL     1       0.114  10.212  18.331  0.00  0.00    +0.000 A 
ATOM     21  C   UNL     1      -0.823   9.619  17.474  0.00  0.00    +0.000 A 
ATOM     22  C   UNL     1      -2.157  10.037  17.492  0.00  0.00    +0.000 A 
ENDBRANCH  14  20
ENDBRANCH  13  14
ENDBRANCH   1  13
TORSDOF 3
ENDMDL
MODEL 8
REMARK VINA RESULT:      -7.3      3.702      6.400
REMARK  Name = 
REMARK  4 active torsions:
REMARK  status: ('A' for Active; 'I' for Inactive)
REMARK    1  A    between atoms: C_1  and  C_2
REMARK    2  A    between atoms: C_5  and  C_6
REMARK    3  A    between atoms: C_6  and  O_8
REMARK    4  A    between atoms: O_8  and  N_9
REMARK                            x       y       z     vdW  Elec       q    Type
REMARK                         _______ _______ _______ _____ _____    ______ ____
ROOT
ATOM      1  N   UNL     1       4.121   4.307  16.981  0.00  0.00    +0.000 NA
ATOM      2  C   UNL     1       3.667   3.923  18.133  0.00  0.00    +0.000 C 
ATOM      3  C   UNL     1       3.823   2.526  18.727  0.00  0.00    +0.000 C 
ATOM      4  C   UNL     1       2.506   2.013  19.302  0.00  0.00    +0.000 C 
ATOM      5  S   UNL     1       1.987   2.988  20.709  0.00  0.00    +0.000 S 
ATOM      6  O   UNL     1       0.558   2.850  20.883  0.00  0.00    +0.000 OA
ATOM      7  O   UNL     1       2.945   2.821  21.779  0.00  0.00    +0.000 OA
ATOM      8  C   UNL     1       2.275   4.604  20.059  0.00  0.00    +0.000 A 
ATOM      9  S   UNL     1       1.627   5.937  20.884  0.00  0.00    +0.000 S 
ATOM     10  C   UNL     1       2.265   7.022  19.722  0.00  0.00    +0.000 A 
ATOM     11  C   UNL     1       2.965   6.366  18.730  0.00  0.00    +0.000 A 
ATOM     12  C   UNL     1       2.993   4.949  18.933  0.00  0.00    +0.000 A 
ENDROOT
BRANCH   1  13
ATOM     13  O   UNL     1       4.907   3.322  16.357  0.00  0.00    +0.000 OA
BRANCH  13  14
ATOM     14  C   UNL     1       5.954   3.919  15.716  0.00  0.00    +0.000 C 
ATOM     15  O   UNL     1       6.380   3.623  14.608  0.00  0.00    +0.000 OA
BRANCH  14  20
ATOM     16  C   UNL     1       8.491   8.093  18.844  0.00  0.00    +0.000 C 
ATOM     17  C   UNL     1       7.784   7.016  18.074  0.00  0.00    +0.000 A 
ATOM     18  C   UNL     1       7.949   5.666  18.402  0.00  0.00    +0.000 A 
ATOM     19  C   UNL     1       7.318   4.671  17.648  0.00  0.00    +0.000 A 
ATOM     20  C   UNL     1       6.513   5.015  16.555  0.00  0.00    +0.000 A 
ATOM     21  C   UNL     1       6.330   6.368  16.238  0.00  0.00    +0.000 A 
ATOM     22  C   UNL     1       6.963   7.359  16.994  0.00  0.00    +0.000 A 
ENDBRANCH  14  20
ENDBRANCH  13  14
ENDBRANCH   1  13
TORSDOF 3
ENDMDL
MODEL 9
REMARK VINA RESULT:      -7.2      2.088      2.613
REMARK  Name = 
REMARK  4 active torsions:
REMARK  status: ('A' for Active; 'I' for Inactive)
REMARK    1  A    between atoms: C_1  and  C_2
REMARK    2  A    between atoms: C_5  and  C_6
REMARK    3  A    between atoms: C_6  and  O_8
REMARK    4  A    between atoms: O_8  and  N_9
REMARK                            x       y       z     vdW  Elec       q    Type
REMARK                         _______ _______ _______ _____ _____    ______ ____
ROOT
ATOM      1  N   UNL     1       2.763   7.123  18.780  0.00  0.00    +0.000 NA
ATOM      2  C   UNL     1       2.503   5.943  19.249  0.00  0.00    +0.000 C 
ATOM      3  C   UNL     1       1.566   5.639  20.415  0.00  0.00    +0.000 C 
ATOM      4  C   UNL     1       2.197   4.655  21.397  0.00  0.00    +0.000 C 
ATOM      5  S   UNL     1       2.435   3.049  20.646  0.00  0.00    +0.000 S 
ATOM      6  O   UNL     1       3.474   2.339  21.358  0.00  0.00    +0.000 OA
ATOM      7  O   UNL     1       1.143   2.478  20.333  0.00  0.00    +0.000 OA
ATOM      8  C   UNL     1       3.120   3.554  19.100  0.00  0.00    +0.000 A 
ATOM      9  S   UNL     1       3.848   2.381  18.114  0.00  0.00    +0.000 S 
ATOM     10  C   UNL     1       4.245   3.557  16.932  0.00  0.00    +0.000 A 
ATOM     11  C   UNL     1       3.818   4.818  17.293  0.00  0.00    +0.000 A 
ATOM     12  C   UNL     1       3.139   4.821  18.554  0.00  0.00    +0.000 A 
ENDROOT
BRANCH   1  13
ATOM     13  O   UNL     1       1.980   8.126  19.381  0.00  0.00    +0.000 OA
BRANCH  13  14
ATOM     14  C   UNL     1       1.626   9.048  18.439  0.00  0.00    +0.000 C 
ATOM     15  O   UNL     1       2.146   9.188  17.341  0.00  0.00    +0.000 OA
BRANCH  14  20
ATOM     16  C   UNL     1      -2.577  12.569  20.332  0.00  0.00    +0.000 C 
ATOM     17  C   UNL     1      -1.522  11.608  19.865  0.00  0.00    +0.000 A 
ATOM     18  C   UNL     1      -0.442  11.267  20.686  0.00  0.00    +0.000 A 
ATOM     19  C   UNL     1       0.556  10.404  20.221  0.00  0.00    +0.000 A 
ATOM     20  C   UNL     1       0.486   9.871  18.928  0.00  0.00    +0.000 A 
ATOM     21  C   UNL     1      -0.608  10.196  18.113  0.00  0.00    +0.000 A 
ATOM     22  C   UNL     1      -1.602  11.059  18.581  0.00  0.00    +0.000 A 
ENDBRANCH  14  20
ENDBRANCH  13  14
ENDBRANCH   1  13
TORSDOF 3
ENDMDL
