MODEL 1
REMARK VINA RESULT:      -9.5      0.000      0.000
REMARK  Name = 
REMARK  5 active torsions:
REMARK  status: ('A' for Active; 'I' for Inactive)
REMARK    1  A    between atoms: C_1  and  N_2
REMARK    2  A    between atoms: N_2  and  C_3
REMARK    3  A    between atoms: C_4  and  C_6
REMARK    4  A    between atoms: C_9  and  C_10
REMARK    5  A    between atoms: C_14  and  C_15
REMARK                            x       y       z     vdW  Elec       q    Type
REMARK                         _______ _______ _______ _____ _____    ______ ____
ROOT
ATOM      1  C   UNL     1       3.266   5.929  18.712  0.00  0.00    +0.000 A 
ATOM      2  C   UNL     1       2.919   4.954  19.647  0.00  0.00    +0.000 A 
ATOM      3  N   UNL     1       2.158   5.167  20.749  0.00  0.00    +0.000 NA
ATOM      4  C   UNL     1       1.617   6.398  20.889  0.00  0.00    +0.000 A 
ATOM      5  C   UNL     1       1.789   7.435  19.980  0.00  0.00    +0.000 A 
ATOM      6  C   UNL     1       2.717   7.197  18.942  0.00  0.00    +0.000 A 
ENDROOT
BRANCH   5   7
ATOM      7  C   UNL     1       1.104   8.726  20.098  0.00  0.00    +0.000 A 
ATOM      8  C   UNL     1       0.824   9.648  19.089  0.00  0.00    +0.000 A 
ATOM      9  N   UNL     1       0.144  10.856  19.249  0.00  0.00    +0.000 NA
ATOM     10  C   UNL     1      -0.368  11.150  20.477  0.00  0.00    +0.000 A 
ATOM     11  C   UNL     1      -0.114  10.276  21.506  0.00  0.00    +0.000 A 
ATOM     12  C   UNL     1       0.673   9.127  21.334  0.00  0.00    +0.000 A 
ATOM     13  C   UNL     1      -0.573  10.433  22.895  0.00  0.00    +0.000 C 
ATOM     14  C   UNL     1      -1.687  11.387  23.135  0.00  0.00    +0.000 C 
ATOM     15  C   UNL     1      -1.828  12.456  22.075  0.00  0.00    +0.000 C 
ATOM     16  N   UNL     1      -1.128  12.336  20.783  0.00  0.00    +0.000 N 
ATOM     17  C   UNL     1      -1.279  13.469  19.966  0.00  0.00    +0.000 C 
ATOM     18  N   UNL     1      -0.714  13.366  18.730  0.00  0.00    +0.000 N 
ATOM     19  O   UNL     1      -1.873  14.481  20.302  0.00  0.00    +0.000 OA
ATOM     20  H   UNL     1      -1.094  12.572  18.242  0.00  0.00    +0.000 HD
ATOM     21  H   UNL     1       0.239  13.072  18.811  0.00  0.00    +0.000 HD
ENDBRANCH   5   7
BRANCH   1  25
ATOM     22  C   UNL     1       5.856   5.093  15.338  0.00  0.00    +0.000 A 
ATOM     23  C   UNL     1       5.465   4.087  16.234  0.00  0.00    +0.000 A 
ATOM     24  C   UNL     1       4.572   4.340  17.277  0.00  0.00    +0.000 A 
ATOM     25  C   UNL     1       4.117   5.640  17.537  0.00  0.00    +0.000 A 
ATOM     26  C   UNL     1       4.520   6.648  16.639  0.00  0.00    +0.000 A 
ATOM     27  C   UNL     1       5.367   6.379  15.551  0.00  0.00    +0.000 A 
BRANCH  22  31
ATOM     28  C   UNL     1       7.260   3.814  12.030  0.00  0.00    +0.000 C 
ATOM     29  N   UNL     1       6.330   4.019  13.124  0.00  0.00    +0.000 N 
ATOM     30  C   UNL     1       4.955   3.576  12.895  0.00  0.00    +0.000 C 
ATOM     31  C   UNL     1       6.776   4.832  14.182  0.00  0.00    +0.000 C 
ATOM     32  O   UNL     1       7.891   5.340  14.183  0.00  0.00    +0.000 OA
ENDBRANCH  22  31
ENDBRANCH   1  25
TORSDOF 3
ENDMDL
MODEL 2
REMARK VINA RESULT:      -9.3      1.171      2.009
REMARK  Name = 
REMARK  5 active torsions:
REMARK  status: ('A' for Active; 'I' for Inactive)
REMARK    1  A    between atoms: C_1  and  N_2
REMARK    2  A    between atoms: N_2  and  C_3
REMARK    3  A    between atoms: C_4  and  C_6
REMARK    4  A    between atoms: C_9  and  C_10
REMARK    5  A    between atoms: C_14  and  C_15
REMARK                            x       y       z     vdW  Elec       q    Type
REMARK                         _______ _______ _______ _____ _____    ______ ____
ROOT
ATOM      1  C   UNL     1       3.307   5.378  18.710  0.00  0.00    +0.000 A 
ATOM      2  C   UNL     1       2.870   4.294  19.471  0.00  0.00    +0.000 A 
ATOM      3  N   UNL     1       2.105   4.383  20.588  0.00  0.00    +0.000 NA
ATOM      4  C   UNL     1       1.655   5.614  20.923  0.00  0.00    +0.000 A 
ATOM      5  C   UNL     1       1.922   6.767  20.196  0.00  0.00    +0.000 A 
ATOM      6  C   UNL     1       2.849   6.631  19.139  0.00  0.00    +0.000 A 
ENDROOT
BRANCH   5   7
ATOM      7  C   UNL     1       1.333   8.071  20.519  0.00  0.00    +0.000 A 
ATOM      8  C   UNL     1       0.727   8.471  21.710  0.00  0.00    +0.000 A 
ATOM      9  N   UNL     1       0.202   9.737  21.978  0.00  0.00    +0.000 NA
ATOM     10  C   UNL     1       0.349  10.708  21.033  0.00  0.00    +0.000 A 
ATOM     11  C   UNL     1       0.934  10.362  19.839  0.00  0.00    +0.000 A 
ATOM     12  C   UNL     1       1.346   9.049  19.562  0.00  0.00    +0.000 A 
ATOM     13  C   UNL     1       1.163  11.269  18.705  0.00  0.00    +0.000 C 
ATOM     14  C   UNL     1       1.109  12.728  18.983  0.00  0.00    +0.000 C 
ATOM     15  C   UNL     1       0.300  13.097  20.206  0.00  0.00    +0.000 C 
ATOM     16  N   UNL     1      -0.102  12.069  21.184  0.00  0.00    +0.000 N 
ATOM     17  C   UNL     1      -0.943  12.566  22.194  0.00  0.00    +0.000 C 
ATOM     18  N   UNL     1      -1.272  11.667  23.163  0.00  0.00    +0.000 N 
ATOM     19  O   UNL     1      -1.357  13.714  22.236  0.00  0.00    +0.000 OA
ATOM     20  H   UNL     1      -0.438  11.306  23.596  0.00  0.00    +0.000 HD
ATOM     21  H   UNL     1      -1.622  10.826  22.748  0.00  0.00    +0.000 HD
ENDBRANCH   5   7
BRANCH   1  25
ATOM     22  C   UNL     1       5.893   4.918  15.262  0.00  0.00    +0.000 A 
ATOM     23  C   UNL     1       5.530   3.824  16.061  0.00  0.00    +0.000 A 
ATOM     24  C   UNL     1       4.638   3.959  17.128  0.00  0.00    +0.000 A 
ATOM     25  C   UNL     1       4.157   5.219  17.509  0.00  0.00    +0.000 A 
ATOM     26  C   UNL     1       4.532   6.314  16.708  0.00  0.00    +0.000 A 
ATOM     27  C   UNL     1       5.377   6.168  15.596  0.00  0.00    +0.000 A 
BRANCH  22  31
ATOM     28  C   UNL     1       7.324   3.941  11.864  0.00  0.00    +0.000 C 
ATOM     29  N   UNL     1       6.398   4.020  12.977  0.00  0.00    +0.000 N 
ATOM     30  C   UNL     1       5.047   3.515  12.732  0.00  0.00    +0.000 C 
ATOM     31  C   UNL     1       6.812   4.786  14.082  0.00  0.00    +0.000 C 
ATOM     32  O   UNL     1       7.896   5.357  14.107  0.00  0.00    +0.000 OA
ENDBRANCH  22  31
ENDBRANCH   1  25
TORSDOF 3
ENDMDL
MODEL 3
REMARK VINA RESULT:      -9.1      3.377      6.019
REMARK  Name = 
REMARK  5 active torsions:
REMARK  status: ('A' for Active; 'I' for Inactive)
REMARK    1  A    between atoms: C_1  and  N_2
REMARK    2  A    between atoms: N_2  and  C_3
REMARK    3  A    between atoms: C_4  and  C_6
REMARK    4  A    between atoms: C_9  and  C_10
REMARK    5  A    between atoms: C_14  and  C_15
REMARK                            x       y       z     vdW  Elec       q    Type
REMARK                         _______ _______ _______ _____ _____    ______ ____
ROOT
ATOM      1  C   UNL     1       0.709  10.722  19.195  0.00  0.00    +0.000 A 
ATOM      2  C   UNL     1       1.317  11.905  18.776  0.00  0.00    +0.000 A 
ATOM      3  N   UNL     1       0.744  13.134  18.820  0.00  0.00    +0.000 NA
ATOM      4  C   UNL     1      -0.470  13.221  19.410  0.00  0.00    +0.000 A 
ATOM      5  C   UNL     1      -1.146  12.142  19.968  0.00  0.00    +0.000 A 
ATOM      6  C   UNL     1      -0.569  10.872  19.749  0.00  0.00    +0.000 A 
ENDROOT
BRANCH   5   7
ATOM      7  C   UNL     1      -2.411  12.281  20.697  0.00  0.00    +0.000 A 
ATOM      8  C   UNL     1      -2.615  12.263  22.078  0.00  0.00    +0.000 A 
ATOM      9  N   UNL     1      -3.840  12.425  22.726  0.00  0.00    +0.000 NA
ATOM     10  C   UNL     1      -4.939  12.701  21.969  0.00  0.00    +0.000 A 
ATOM     11  C   UNL     1      -4.791  12.722  20.603  0.00  0.00    +0.000 A 
ATOM     12  C   UNL     1      -3.565  12.440  19.980  0.00  0.00    +0.000 A 
ATOM     13  C   UNL     1      -5.862  12.989  19.631  0.00  0.00    +0.000 C 
ATOM     14  C   UNL     1      -7.094  13.641  20.144  0.00  0.00    +0.000 C 
ATOM     15  C   UNL     1      -7.331  13.445  21.624  0.00  0.00    +0.000 C 
ATOM     16  N   UNL     1      -6.259  12.934  22.500  0.00  0.00    +0.000 N 
ATOM     17  C   UNL     1      -6.685  12.705  23.818  0.00  0.00    +0.000 C 
ATOM     18  N   UNL     1      -5.706  12.309  24.679  0.00  0.00    +0.000 N 
ATOM     19  O   UNL     1      -7.835  12.848  24.201  0.00  0.00    +0.000 OA
ATOM     20  H   UNL     1      -4.968  12.994  24.700  0.00  0.00    +0.000 HD
ATOM     21  H   UNL     1      -5.202  11.534  24.295  0.00  0.00    +0.000 HD
ENDBRANCH   5   7
BRANCH   1  25
ATOM     22  C   UNL     1       2.766   6.913  18.985  0.00  0.00    +0.000 A 
ATOM     23  C   UNL     1       2.048   7.300  20.126  0.00  0.00    +0.000 A 
ATOM     24  C   UNL     1       1.325   8.493  20.167  0.00  0.00    +0.000 A 
ATOM     25  C   UNL     1       1.379   9.406  19.105  0.00  0.00    +0.000 A 
ATOM     26  C   UNL     1       2.109   9.015  17.965  0.00  0.00    +0.000 A 
ATOM     27  C   UNL     1       2.784   7.785  17.899  0.00  0.00    +0.000 A 
BRANCH  22  31
ATOM     28  C   UNL     1       3.623   3.251  18.342  0.00  0.00    +0.000 C 
ATOM     29  N   UNL     1       2.847   4.474  18.410  0.00  0.00    +0.000 N 
ATOM     30  C   UNL     1       1.552   4.457  17.729  0.00  0.00    +0.000 C 
ATOM     31  C   UNL     1       3.512   5.612  18.902  0.00  0.00    +0.000 C 
ATOM     32  O   UNL     1       4.684   5.575  19.257  0.00  0.00    +0.000 OA
ENDBRANCH  22  31
ENDBRANCH   1  25
TORSDOF 3
ENDMDL
MODEL 4
REMARK VINA RESULT:      -8.9      3.313     10.622
REMARK  Name = 
REMARK  5 active torsions:
REMARK  status: ('A' for Active; 'I' for Inactive)
REMARK    1  A    between atoms: C_1  and  N_2
REMARK    2  A    between atoms: N_2  and  C_3
REMARK    3  A    between atoms: C_4  and  C_6
REMARK    4  A    between atoms: C_9  and  C_10
REMARK    5  A    between atoms: C_14  and  C_15
REMARK                            x       y       z     vdW  Elec       q    Type
REMARK                         _______ _______ _______ _____ _____    ______ ____
ROOT
ATOM      1  C   UNL     1       0.747  10.367  19.693  0.00  0.00    +0.000 A 
ATOM      2  C   UNL     1       1.233  11.098  18.610  0.00  0.00    +0.000 A 
ATOM      3  N   UNL     1       2.137  10.644  17.705  0.00  0.00    +0.000 NA
ATOM      4  C   UNL     1       2.513   9.350  17.814  0.00  0.00    +0.000 A 
ATOM      5  C   UNL     1       2.028   8.475  18.778  0.00  0.00    +0.000 A 
ATOM      6  C   UNL     1       1.215   9.049  19.780  0.00  0.00    +0.000 A 
ENDROOT
BRANCH   5   7
ATOM      7  C   UNL     1       2.368   7.049  18.808  0.00  0.00    +0.000 A 
ATOM      8  C   UNL     1       3.194   6.341  17.934  0.00  0.00    +0.000 A 
ATOM      9  N   UNL     1       3.507   4.984  18.020  0.00  0.00    +0.000 NA
ATOM     10  C   UNL     1       3.036   4.281  19.089  0.00  0.00    +0.000 A 
ATOM     11  C   UNL     1       2.213   4.931  19.975  0.00  0.00    +0.000 A 
ATOM     12  C   UNL     1       1.825   6.267  19.793  0.00  0.00    +0.000 A 
ATOM     13  C   UNL     1       1.604   4.333  21.173  0.00  0.00    +0.000 C 
ATOM     14  C   UNL     1       2.198   3.067  21.674  0.00  0.00    +0.000 C 
ATOM     15  C   UNL     1       2.947   2.275  20.626  0.00  0.00    +0.000 C 
ATOM     16  N   UNL     1       3.312   2.887  19.334  0.00  0.00    +0.000 N 
ATOM     17  C   UNL     1       3.899   1.978  18.439  0.00  0.00    +0.000 C 
ATOM     18  N   UNL     1       4.324   2.521  17.264  0.00  0.00    +0.000 N 
ATOM     19  O   UNL     1       4.044   0.788  18.668  0.00  0.00    +0.000 OA
ATOM     20  H   UNL     1       4.985   3.259  17.444  0.00  0.00    +0.000 HD
ATOM     21  H   UNL     1       3.588   3.055  16.845  0.00  0.00    +0.000 HD
ENDBRANCH   5   7
BRANCH   1  25
ATOM     22  C   UNL     1      -2.036  12.094  22.532  0.00  0.00    +0.000 A 
ATOM     23  C   UNL     1      -2.081  12.416  21.168  0.00  0.00    +0.000 A 
ATOM     24  C   UNL     1      -1.233  11.805  20.242  0.00  0.00    +0.000 A 
ATOM     25  C   UNL     1      -0.226  10.923  20.658  0.00  0.00    +0.000 A 
ATOM     26  C   UNL     1      -0.181  10.611  22.031  0.00  0.00    +0.000 A 
ATOM     27  C   UNL     1      -1.076  11.176  22.953  0.00  0.00    +0.000 A 
BRANCH  22  31
ATOM     28  C   UNL     1      -3.535  14.435  25.144  0.00  0.00    +0.000 C 
ATOM     29  N   UNL     1      -2.587  13.888  24.194  0.00  0.00    +0.000 N 
ATOM     30  C   UNL     1      -1.460  14.750  23.834  0.00  0.00    +0.000 C 
ATOM     31  C   UNL     1      -2.969  12.704  23.537  0.00  0.00    +0.000 C 
ATOM     32  O   UNL     1      -4.045  12.160  23.755  0.00  0.00    +0.000 OA
ENDBRANCH  22  31
ENDBRANCH   1  25
TORSDOF 3
ENDMDL
MODEL 5
REMARK VINA RESULT:      -8.8      3.515      5.516
REMARK  Name = 
REMARK  5 active torsions:
REMARK  status: ('A' for Active; 'I' for Inactive)
REMARK    1  A    between atoms: C_1  and  N_2
REMARK    2  A    between atoms: N_2  and  C_3
REMARK    3  A    between atoms: C_4  and  C_6
REMARK    4  A    between atoms: C_9  and  C_10
REMARK    5  A    between atoms: C_14  and  C_15
REMARK                            x       y       z     vdW  Elec       q    Type
REMARK                         _______ _______ _______ _____ _____    ______ ____
ROOT
ATOM      1  C   UNL     1       1.010  10.476  18.975  0.00  0.00    +0.000 A 
ATOM      2  C   UNL     1       1.713  11.593  18.526  0.00  0.00    +0.000 A 
ATOM      3  N   UNL     1       1.220  12.855  18.471  0.00  0.00    +0.000 NA
ATOM      4  C   UNL     1      -0.015  13.051  18.987  0.00  0.00    +0.000 A 
ATOM      5  C   UNL     1      -0.787  12.051  19.565  0.00  0.00    +0.000 A 
ATOM      6  C   UNL     1      -0.283  10.737  19.447  0.00  0.00    +0.000 A 
ENDROOT
BRANCH   5   7
ATOM      7  C   UNL     1      -2.076  12.309  20.215  0.00  0.00    +0.000 A 
ATOM      8  C   UNL     1      -3.341  12.367  19.628  0.00  0.00    +0.000 A 
ATOM      9  N   UNL     1      -4.545  12.592  20.296  0.00  0.00    +0.000 NA
ATOM     10  C   UNL     1      -4.518  12.693  21.655  0.00  0.00    +0.000 A 
ATOM     11  C   UNL     1      -3.295  12.650  22.280  0.00  0.00    +0.000 A 
ATOM     12  C   UNL     1      -2.094  12.538  21.564  0.00  0.00    +0.000 A 
ATOM     13  C   UNL     1      -3.072  12.755  23.730  0.00  0.00    +0.000 C 
ATOM     14  C   UNL     1      -4.243  12.520  24.614  0.00  0.00    +0.000 C 
ATOM     15  C   UNL     1      -5.580  12.756  23.949  0.00  0.00    +0.000 C 
ATOM     16  N   UNL     1      -5.683  12.882  22.483  0.00  0.00    +0.000 N 
ATOM     17  C   UNL     1      -6.977  13.213  22.046  0.00  0.00    +0.000 C 
ATOM     18  N   UNL     1      -7.133  13.261  20.694  0.00  0.00    +0.000 N 
ATOM     19  O   UNL     1      -7.916  13.436  22.794  0.00  0.00    +0.000 OA
ATOM     20  H   UNL     1      -6.878  12.376  20.286  0.00  0.00    +0.000 HD
ATOM     21  H   UNL     1      -6.428  13.842  20.286  0.00  0.00    +0.000 HD
ENDBRANCH   5   7
BRANCH   1  25
ATOM     22  C   UNL     1       2.825   6.542  19.082  0.00  0.00    +0.000 A 
ATOM     23  C   UNL     1       2.111   7.053  20.175  0.00  0.00    +0.000 A 
ATOM     24  C   UNL     1       1.464   8.289  20.115  0.00  0.00    +0.000 A 
ATOM     25  C   UNL     1       1.597   9.118  18.993  0.00  0.00    +0.000 A 
ATOM     26  C   UNL     1       2.322   8.602  17.901  0.00  0.00    +0.000 A 
ATOM     27  C   UNL     1       2.918   7.331  17.938  0.00  0.00    +0.000 A 
BRANCH  22  31
ATOM     28  C   UNL     1       3.457   2.796  18.727  0.00  0.00    +0.000 C 
ATOM     29  N   UNL     1       2.759   4.066  18.690  0.00  0.00    +0.000 N 
ATOM     30  C   UNL     1       1.474   4.079  17.991  0.00  0.00    +0.000 C 
ATOM     31  C   UNL     1       3.488   5.195  19.109  0.00  0.00    +0.000 C 
ATOM     32  O   UNL     1       4.651   5.112  19.486  0.00  0.00    +0.000 OA
ENDBRANCH  22  31
ENDBRANCH   1  25
TORSDOF 3
ENDMDL
MODEL 6
REMARK VINA RESULT:      -8.6      3.476      6.067
REMARK  Name = 
REMARK  5 active torsions:
REMARK  status: ('A' for Active; 'I' for Inactive)
REMARK    1  A    between atoms: C_1  and  N_2
REMARK    2  A    between atoms: N_2  and  C_3
REMARK    3  A    between atoms: C_4  and  C_6
REMARK    4  A    between atoms: C_9  and  C_10
REMARK    5  A    between atoms: C_14  and  C_15
REMARK                            x       y       z     vdW  Elec       q    Type
REMARK                         _______ _______ _______ _____ _____    ______ ____
ROOT
ATOM      1  C   UNL     1       0.707  10.870  19.222  0.00  0.00    +0.000 A 
ATOM      2  C   UNL     1       1.337  12.067  18.882  0.00  0.00    +0.000 A 
ATOM      3  N   UNL     1       0.778  13.299  18.986  0.00  0.00    +0.000 NA
ATOM      4  C   UNL     1      -0.446  13.368  19.557  0.00  0.00    +0.000 A 
ATOM      5  C   UNL     1      -1.145  12.269  20.040  0.00  0.00    +0.000 A 
ATOM      6  C   UNL     1      -0.580  11.005  19.759  0.00  0.00    +0.000 A 
ENDROOT
BRANCH   5   7
ATOM      7  C   UNL     1      -2.422  12.382  20.753  0.00  0.00    +0.000 A 
ATOM      8  C   UNL     1      -2.649  12.315  22.128  0.00  0.00    +0.000 A 
ATOM      9  N   UNL     1      -3.885  12.456  22.762  0.00  0.00    +0.000 NA
ATOM     10  C   UNL     1      -4.971  12.759  21.996  0.00  0.00    +0.000 A 
ATOM     11  C   UNL     1      -4.800  12.829  20.635  0.00  0.00    +0.000 A 
ATOM     12  C   UNL     1      -3.565  12.569  20.023  0.00  0.00    +0.000 A 
ATOM     13  C   UNL     1      -5.855  13.132  19.656  0.00  0.00    +0.000 C 
ATOM     14  C   UNL     1      -7.095  13.767  20.171  0.00  0.00    +0.000 C 
ATOM     15  C   UNL     1      -7.357  13.517  21.639  0.00  0.00    +0.000 C 
ATOM     16  N   UNL     1      -6.299  12.975  22.513  0.00  0.00    +0.000 N 
ATOM     17  C   UNL     1      -6.747  12.699  23.816  0.00  0.00    +0.000 C 
ATOM     18  N   UNL     1      -5.783  12.272  24.678  0.00  0.00    +0.000 N 
ATOM     19  O   UNL     1      -7.904  12.830  24.184  0.00  0.00    +0.000 OA
ATOM     20  H   UNL     1      -5.045  12.955  24.736  0.00  0.00    +0.000 HD
ATOM     21  H   UNL     1      -5.273  11.510  24.275  0.00  0.00    +0.000 HD
ENDBRANCH   5   7
BRANCH   1  25
ATOM     22  C   UNL     1       2.524   6.965  18.736  0.00  0.00    +0.000 A 
ATOM     23  C   UNL     1       2.400   7.859  17.661  0.00  0.00    +0.000 A 
ATOM     24  C   UNL     1       1.882   9.144  17.833  0.00  0.00    +0.000 A 
ATOM     25  C   UNL     1       1.363   9.553  19.069  0.00  0.00    +0.000 A 
ATOM     26  C   UNL     1       1.482   8.648  20.142  0.00  0.00    +0.000 A 
ATOM     27  C   UNL     1       2.063   7.379  19.983  0.00  0.00    +0.000 A 
BRANCH  22  31
ATOM     28  C   UNL     1       4.888   4.116  17.817  0.00  0.00    +0.000 C 
ATOM     29  N   UNL     1       4.357   5.461  17.922  0.00  0.00    +0.000 N 
ATOM     30  C   UNL     1       5.268   6.547  17.562  0.00  0.00    +0.000 C 
ATOM     31  C   UNL     1       3.122   5.597  18.583  0.00  0.00    +0.000 C 
ATOM     32  O   UNL     1       2.524   4.632  19.045  0.00  0.00    +0.000 OA
ENDBRANCH  22  31
ENDBRANCH   1  25
TORSDOF 3
ENDMDL
MODEL 7
REMARK VINA RESULT:      -8.5      3.658     10.648
REMARK  Name = 
REMARK  5 active torsions:
REMARK  status: ('A' for Active; 'I' for Inactive)
REMARK    1  A    between atoms: C_1  and  N_2
REMARK    2  A    between atoms: N_2  and  C_3
REMARK    3  A    between atoms: C_4  and  C_6
REMARK    4  A    between atoms: C_9  and  C_10
REMARK    5  A    between atoms: C_14  and  C_15
REMARK                            x       y       z     vdW  Elec       q    Type
REMARK                         _______ _______ _______ _____ _____    ______ ____
ROOT
ATOM      1  C   UNL     1       0.535  10.363  19.750  0.00  0.00    +0.000 A 
ATOM      2  C   UNL     1       0.778  10.908  18.489  0.00  0.00    +0.000 A 
ATOM      3  N   UNL     1       1.599  10.369  17.552  0.00  0.00    +0.000 NA
ATOM      4  C   UNL     1       2.137   9.161  17.835  0.00  0.00    +0.000 A 
ATOM      5  C   UNL     1       1.896   8.453  19.005  0.00  0.00    +0.000 A 
ATOM      6  C   UNL     1       1.164   9.137  20.001  0.00  0.00    +0.000 A 
ENDROOT
BRANCH   5   7
ATOM      7  C   UNL     1       2.405   7.098  19.241  0.00  0.00    +0.000 A 
ATOM      8  C   UNL     1       3.691   6.608  19.009  0.00  0.00    +0.000 A 
ATOM      9  N   UNL     1       4.135   5.312  19.275  0.00  0.00    +0.000 NA
ATOM     10  C   UNL     1       3.274   4.449  19.884  0.00  0.00    +0.000 A 
ATOM     11  C   UNL     1       1.993   4.881  20.127  0.00  0.00    +0.000 A 
ATOM     12  C   UNL     1       1.549   6.155  19.741  0.00  0.00    +0.000 A 
ATOM     13  C   UNL     1       0.929   4.089  20.762  0.00  0.00    +0.000 C 
ATOM     14  C   UNL     1       1.346   2.886  21.527  0.00  0.00    +0.000 C 
ATOM     15  C   UNL     1       2.684   2.318  21.110  0.00  0.00    +0.000 C 
ATOM     16  N   UNL     1       3.603   3.096  20.258  0.00  0.00    +0.000 N 
ATOM     17  C   UNL     1       4.745   2.374  19.874  0.00  0.00    +0.000 C 
ATOM     18  N   UNL     1       5.658   3.082  19.152  0.00  0.00    +0.000 N 
ATOM     19  O   UNL     1       4.942   1.203  20.157  0.00  0.00    +0.000 OA
ATOM     20  H   UNL     1       5.955   3.892  19.673  0.00  0.00    +0.000 HD
ATOM     21  H   UNL     1       5.210   3.536  18.381  0.00  0.00    +0.000 HD
ENDBRANCH   5   7
BRANCH   1  25
ATOM     22  C   UNL     1      -2.154  12.161  22.635  0.00  0.00    +0.000 A 
ATOM     23  C   UNL     1      -1.200  11.205  23.013  0.00  0.00    +0.000 A 
ATOM     24  C   UNL     1      -0.285  10.680  22.098  0.00  0.00    +0.000 A 
ATOM     25  C   UNL     1      -0.358  11.008  20.738  0.00  0.00    +0.000 A 
ATOM     26  C   UNL     1      -1.323  11.963  20.363  0.00  0.00    +0.000 A 
ATOM     27  C   UNL     1      -2.200  12.539  21.296  0.00  0.00    +0.000 A 
BRANCH  22  31
ATOM     28  C   UNL     1      -3.724  14.505  25.203  0.00  0.00    +0.000 C 
ATOM     29  N   UNL     1      -2.748  13.956  24.281  0.00  0.00    +0.000 N 
ATOM     30  C   UNL     1      -1.609  14.814  23.957  0.00  0.00    +0.000 C 
ATOM     31  C   UNL     1      -3.115  12.773  23.612  0.00  0.00    +0.000 C 
ATOM     32  O   UNL     1      -4.199  12.233  23.797  0.00  0.00    +0.000 OA
ENDBRANCH  22  31
ENDBRANCH   1  25
TORSDOF 3
ENDMDL
MODEL 8
REMARK VINA RESULT:      -8.5      3.601      5.585
REMARK  Name = 
REMARK  5 active torsions:
REMARK  status: ('A' for Active; 'I' for Inactive)
REMARK    1  A    between atoms: C_1  and  N_2
REMARK    2  A    between atoms: N_2  and  C_3
REMARK    3  A    between atoms: C_4  and  C_6
REMARK    4  A    between atoms: C_9  and  C_10
REMARK    5  A    between atoms: C_14  and  C_15
REMARK                            x       y       z     vdW  Elec       q    Type
REMARK                         _______ _______ _______ _____ _____    ______ ____
ROOT
ATOM      1  C   UNL     1       1.007  10.206  19.116  0.00  0.00    +0.000 A 
ATOM      2  C   UNL     1       1.769  11.271  18.637  0.00  0.00    +0.000 A 
ATOM      3  N   UNL     1       1.336  12.552  18.524  0.00  0.00    +0.000 NA
ATOM      4  C   UNL     1       0.103  12.824  19.008  0.00  0.00    +0.000 A 
ATOM      5  C   UNL     1      -0.725  11.884  19.609  0.00  0.00    +0.000 A 
ATOM      6  C   UNL     1      -0.280  10.544  19.553  0.00  0.00    +0.000 A 
ENDROOT
BRANCH   5   7
ATOM      7  C   UNL     1      -2.012  12.227  20.223  0.00  0.00    +0.000 A 
ATOM      8  C   UNL     1      -3.244  12.412  19.595  0.00  0.00    +0.000 A 
ATOM      9  N   UNL     1      -4.450  12.713  20.230  0.00  0.00    +0.000 NA
ATOM     10  C   UNL     1      -4.466  12.763  21.592  0.00  0.00    +0.000 A 
ATOM     11  C   UNL     1      -3.276  12.593  22.256  0.00  0.00    +0.000 A 
ATOM     12  C   UNL     1      -2.062  12.407  21.579  0.00  0.00    +0.000 A 
ATOM     13  C   UNL     1      -3.101  12.626  23.716  0.00  0.00    +0.000 C 
ATOM     14  C   UNL     1      -4.320  12.459  24.549  0.00  0.00    +0.000 C 
ATOM     15  C   UNL     1      -5.607  12.831  23.847  0.00  0.00    +0.000 C 
ATOM     16  N   UNL     1      -5.643  13.019  22.385  0.00  0.00    +0.000 N 
ATOM     17  C   UNL     1      -6.887  13.474  21.917  0.00  0.00    +0.000 C 
ATOM     18  N   UNL     1      -6.987  13.584  20.563  0.00  0.00    +0.000 N 
ATOM     19  O   UNL     1      -7.832  13.748  22.640  0.00  0.00    +0.000 OA
ATOM     20  H   UNL     1      -6.791  12.696  20.129  0.00  0.00    +0.000 HD
ATOM     21  H   UNL     1      -6.221  14.118  20.203  0.00  0.00    +0.000 HD
ENDBRANCH   5   7
BRANCH   1  25
ATOM     22  C   UNL     1       2.434   6.119  19.323  0.00  0.00    +0.000 A 
ATOM     23  C   UNL     1       2.442   6.842  18.121  0.00  0.00    +0.000 A 
ATOM     24  C   UNL     1       2.052   8.182  18.068  0.00  0.00    +0.000 A 
ATOM     25  C   UNL     1       1.530   8.825  19.199  0.00  0.00    +0.000 A 
ATOM     26  C   UNL     1       1.516   8.091  20.401  0.00  0.00    +0.000 A 
ATOM     27  C   UNL     1       1.970   6.763  20.467  0.00  0.00    +0.000 A 
BRANCH  22  31
ATOM     28  C   UNL     1       4.646   3.012  19.357  0.00  0.00    +0.000 C 
ATOM     29  N   UNL     1       4.262   4.405  19.249  0.00  0.00    +0.000 N 
ATOM     30  C   UNL     1       5.354   5.379  19.239  0.00  0.00    +0.000 C 
ATOM     31  C   UNL     1       2.894   4.693  19.410  0.00  0.00    +0.000 C 
ATOM     32  O   UNL     1       2.068   3.814  19.630  0.00  0.00    +0.000 OA
ENDBRANCH  22  31
ENDBRANCH   1  25
TORSDOF 3
ENDMDL
MODEL 9
REMARK VINA RESULT:      -8.4      3.478      5.618
REMARK  Name = 
REMARK  5 active torsions:
REMARK  status: ('A' for Active; 'I' for Inactive)
REMARK    1  A    between atoms: C_1  and  N_2
REMARK    2  A    between atoms: N_2  and  C_3
REMARK    3  A    between atoms: C_4  and  C_6
REMARK    4  A    between atoms: C_9  and  C_10
REMARK    5  A    between atoms: C_14  and  C_15
REMARK                            x       y       z     vdW  Elec       q    Type
REMARK                         _______ _______ _______ _____ _____    ______ ____
ROOT
ATOM      1  C   UNL     1       1.448   9.986  18.634  0.00  0.00    +0.000 A 
ATOM      2  C   UNL     1       2.200  11.122  18.337  0.00  0.00    +0.000 A 
ATOM      3  N   UNL     1       1.697  12.375  18.200  0.00  0.00    +0.000 NA
ATOM      4  C   UNL     1       0.383  12.540  18.474  0.00  0.00    +0.000 A 
ATOM      5  C   UNL     1      -0.462  11.517  18.885  0.00  0.00    +0.000 A 
ATOM      6  C   UNL     1       0.083  10.215  18.855  0.00  0.00    +0.000 A 
ENDROOT
BRANCH   5   7
ATOM      7  C   UNL     1      -1.857  11.741  19.280  0.00  0.00    +0.000 A 
ATOM      8  C   UNL     1      -2.343  12.171  20.516  0.00  0.00    +0.000 A 
ATOM      9  N   UNL     1      -3.684  12.394  20.836  0.00  0.00    +0.000 NA
ATOM     10  C   UNL     1      -4.613  12.260  19.848  0.00  0.00    +0.000 A 
ATOM     11  C   UNL     1      -4.184  11.832  18.615  0.00  0.00    +0.000 A 
ATOM     12  C   UNL     1      -2.843  11.505  18.362  0.00  0.00    +0.000 A 
ATOM     13  C   UNL     1      -5.041  11.619  17.438  0.00  0.00    +0.000 C 
ATOM     14  C   UNL     1      -6.385  12.253  17.456  0.00  0.00    +0.000 C 
ATOM     15  C   UNL     1      -6.915  12.545  18.842  0.00  0.00    +0.000 C 
ATOM     16  N   UNL     1      -6.024  12.498  20.017  0.00  0.00    +0.000 N 
ATOM     17  C   UNL     1      -6.704  12.682  21.232  0.00  0.00    +0.000 C 
ATOM     18  N   UNL     1      -5.907  12.725  22.337  0.00  0.00    +0.000 N 
ATOM     19  O   UNL     1      -7.915  12.807  21.328  0.00  0.00    +0.000 OA
ATOM     20  H   UNL     1      -5.225  13.461  22.241  0.00  0.00    +0.000 HD
ATOM     21  H   UNL     1      -5.296  11.933  22.352  0.00  0.00    +0.000 HD
ENDBRANCH   5   7
BRANCH   1  25
ATOM     22  C   UNL     1       3.122   5.998  18.919  0.00  0.00    +0.000 A 
ATOM     23  C   UNL     1       3.337   6.808  17.794  0.00  0.00    +0.000 A 
ATOM     24  C   UNL     1       2.860   8.119  17.733  0.00  0.00    +0.000 A 
ATOM     25  C   UNL     1       2.051   8.640  18.752  0.00  0.00    +0.000 A 
ATOM     26  C   UNL     1       1.831   7.818  19.875  0.00  0.00    +0.000 A 
ATOM     27  C   UNL     1       2.366   6.522  19.964  0.00  0.00    +0.000 A 
BRANCH  22  31
ATOM     28  C   UNL     1       3.394   2.193  18.885  0.00  0.00    +0.000 C 
ATOM     29  N   UNL     1       2.808   3.515  18.780  0.00  0.00    +0.000 N 
ATOM     30  C   UNL     1       1.471   3.585  18.189  0.00  0.00    +0.000 C 
ATOM     31  C   UNL     1       3.666   4.603  19.024  0.00  0.00    +0.000 C 
ATOM     32  O   UNL     1       4.847   4.446  19.312  0.00  0.00    +0.000 OA
ENDBRANCH  22  31
ENDBRANCH   1  25
TORSDOF 3
ENDMDL
