MODEL 1
REMARK VINA RESULT:      -8.6      0.000      0.000
REMARK  Name = 
REMARK  8 active torsions:
REMARK  status: ('A' for Active; 'I' for Inactive)
REMARK    1  A    between atoms: C_1  and  C_2
REMARK    2  A    between atoms: C_4  and  C_5
REMARK    3  A    between atoms: C_12  and  C_13
REMARK    4  A    between atoms: C_16  and  S_17
REMARK    5  A    between atoms: S_17  and  C_18
REMARK    6  A    between atoms: C_18  and  C_19
REMARK    7  A    between atoms: N_21  and  C_22
REMARK    8  A    between atoms: C_26  and  C_27
REMARK                            x       y       z     vdW  Elec       q    Type
REMARK                         _______ _______ _______ _____ _____    ______ ____
ROOT
ATOM      1  C   UNL     1       2.036   6.400  20.070  0.00  0.00    +0.000 A 
ATOM      2  C   UNL     1       1.256   5.320  20.460  0.00  0.00    +0.000 A 
ATOM      3  C   UNL     1       1.839   4.056  20.529  0.00  0.00    +0.000 A 
ATOM      4  C   UNL     1       3.175   3.921  20.202  0.00  0.00    +0.000 A 
ATOM      5  N   UNL     1       3.900   4.983  19.789  0.00  0.00    +0.000 NA
ATOM      6  N   UNL     1       3.335   6.229  19.736  0.00  0.00    +0.000 NA
ENDROOT
BRANCH   1  12
ATOM      7  C   UNL     1       2.225   8.573  17.665  0.00  0.00    +0.000 C 
ATOM      8  C   UNL     1       1.653   8.740  19.030  0.00  0.00    +0.000 A 
ATOM      9  N   UNL     1       1.142   9.985  19.366  0.00  0.00    +0.000 NA
ATOM     10  C   UNL     1       0.710  10.004  20.612  0.00  0.00    +0.000 A 
ATOM     11  S   UNL     1       0.829   8.488  21.412  0.00  0.00    +0.000 S 
ATOM     12  C   UNL     1       1.568   7.783  20.032  0.00  0.00    +0.000 A 
BRANCH  10  13
ATOM     13  C   UNL     1       0.188  11.207  21.291  0.00  0.00    +0.000 A 
ATOM     14  C   UNL     1       0.672  12.470  20.904  0.00  0.00    +0.000 A 
ATOM     15  C   UNL     1       0.253  13.637  21.551  0.00  0.00    +0.000 A 
ATOM     16  C   UNL     1      -0.664  13.563  22.595  0.00  0.00    +0.000 A 
ATOM     17  C   UNL     1      -1.168  12.327  22.987  0.00  0.00    +0.000 A 
ATOM     18  C   UNL     1      -0.747  11.160  22.340  0.00  0.00    +0.000 A 
ENDBRANCH  10  13
ENDBRANCH   1  12
BRANCH   4  19
ATOM     19  S   UNL     1       3.991   2.354  20.359  0.00  0.00    +0.000 S 
BRANCH  19  20
ATOM     20  C   UNL     1       3.393   1.526  18.847  0.00  0.00    +0.000 C 
BRANCH  20  21
ATOM     21  C   UNL     1       3.456   2.463  17.650  0.00  0.00    +0.000 C 
ATOM     22  O   UNL     1       2.440   2.705  17.000  0.00  0.00    +0.000 OA
ATOM     23  N   UNL     1       4.727   2.956  17.379  0.00  0.00    +0.000 N 
ATOM     24  H   UNL     1       5.505   2.495  17.852  0.00  0.00    +0.000 HD
BRANCH  23  25
ATOM     25  C   UNL     1       5.068   3.864  16.353  0.00  0.00    +0.000 A 
ATOM     26  C   UNL     1       5.084   5.246  16.540  0.00  0.00    +0.000 A 
ATOM     27  C   UNL     1       5.410   6.105  15.490  0.00  0.00    +0.000 A 
ATOM     28  C   UNL     1       5.717   5.589  14.234  0.00  0.00    +0.000 A 
ATOM     29  C   UNL     1       5.719   4.204  14.020  0.00  0.00    +0.000 A 
ATOM     30  C   UNL     1       5.408   3.345  15.095  0.00  0.00    +0.000 A 
BRANCH  29  31
ATOM     31  C   UNL     1       6.026   3.640  12.656  0.00  0.00    +0.000 C 
ATOM     32  F   UNL     1       4.981   3.723  11.784  0.00  0.00    +0.000 F 
ATOM     33  F   UNL     1       7.068   4.271  12.049  0.00  0.00    +0.000 F 
ATOM     34  F   UNL     1       6.361   2.319  12.704  0.00  0.00    +0.000 F 
ENDBRANCH  29  31
ENDBRANCH  23  25
ENDBRANCH  20  21
ENDBRANCH  19  20
ENDBRANCH   4  19
TORSDOF 7
ENDMDL
MODEL 2
REMARK VINA RESULT:      -8.4      0.652      1.061
REMARK  Name = 
REMARK  8 active torsions:
REMARK  status: ('A' for Active; 'I' for Inactive)
REMARK    1  A    between atoms: C_1  and  C_2
REMARK    2  A    between atoms: C_4  and  C_5
REMARK    3  A    between atoms: C_12  and  C_13
REMARK    4  A    between atoms: C_16  and  S_17
REMARK    5  A    between atoms: S_17  and  C_18
REMARK    6  A    between atoms: C_18  and  C_19
REMARK    7  A    between atoms: N_21  and  C_22
REMARK    8  A    between atoms: C_26  and  C_27
REMARK                            x       y       z     vdW  Elec       q    Type
REMARK                         _______ _______ _______ _____ _____    ______ ____
ROOT
ATOM      1  C   UNL     1       1.881   6.883  20.170  0.00  0.00    +0.000 A 
ATOM      2  C   UNL     1       1.233   5.877  20.874  0.00  0.00    +0.000 A 
ATOM      3  C   UNL     1       1.781   4.595  20.880  0.00  0.00    +0.000 A 
ATOM      4  C   UNL     1       2.950   4.369  20.178  0.00  0.00    +0.000 A 
ATOM      5  N   UNL     1       3.538   5.358  19.470  0.00  0.00    +0.000 NA
ATOM      6  N   UNL     1       3.011   6.621  19.475  0.00  0.00    +0.000 NA
ENDROOT
BRANCH   1  12
ATOM      7  C   UNL     1       2.013   9.039  17.747  0.00  0.00    +0.000 C 
ATOM      8  C   UNL     1       1.517   9.229  19.138  0.00  0.00    +0.000 A 
ATOM      9  N   UNL     1       1.062  10.491  19.493  0.00  0.00    +0.000 NA
ATOM     10  C   UNL     1       0.695  10.527  20.759  0.00  0.00    +0.000 A 
ATOM     11  S   UNL     1       0.808   9.012  21.560  0.00  0.00    +0.000 S 
ATOM     12  C   UNL     1       1.453   8.279  20.148  0.00  0.00    +0.000 A 
BRANCH  10  13
ATOM     13  C   UNL     1       0.246  11.749  21.458  0.00  0.00    +0.000 A 
ATOM     14  C   UNL     1      -0.763  11.643  22.433  0.00  0.00    +0.000 A 
ATOM     15  C   UNL     1      -1.262  12.774  23.086  0.00  0.00    +0.000 A 
ATOM     16  C   UNL     1      -0.758  14.034  22.779  0.00  0.00    +0.000 A 
ATOM     17  C   UNL     1       0.250  14.163  21.829  0.00  0.00    +0.000 A 
ATOM     18  C   UNL     1       0.749  13.031  21.176  0.00  0.00    +0.000 A 
ENDBRANCH  10  13
ENDBRANCH   1  12
BRANCH   4  19
ATOM     19  S   UNL     1       3.741   2.782  20.224  0.00  0.00    +0.000 S 
BRANCH  19  20
ATOM     20  C   UNL     1       3.058   2.038  18.704  0.00  0.00    +0.000 C 
BRANCH  20  21
ATOM     21  C   UNL     1       3.494   2.817  17.471  0.00  0.00    +0.000 C 
ATOM     22  O   UNL     1       2.658   3.195  16.652  0.00  0.00    +0.000 OA
ATOM     23  N   UNL     1       4.866   3.009  17.376  0.00  0.00    +0.000 N 
ATOM     24  H   UNL     1       5.450   2.449  17.998  0.00  0.00    +0.000 HD
BRANCH  23  25
ATOM     25  C   UNL     1       5.539   3.720  16.358  0.00  0.00    +0.000 A 
ATOM     26  C   UNL     1       6.333   4.838  16.614  0.00  0.00    +0.000 A 
ATOM     27  C   UNL     1       6.964   5.520  15.572  0.00  0.00    +0.000 A 
ATOM     28  C   UNL     1       6.801   5.092  14.258  0.00  0.00    +0.000 A 
ATOM     29  C   UNL     1       6.018   3.966  13.972  0.00  0.00    +0.000 A 
ATOM     30  C   UNL     1       5.403   3.273  15.036  0.00  0.00    +0.000 A 
BRANCH  29  31
ATOM     31  C   UNL     1       5.818   3.513  12.548  0.00  0.00    +0.000 C 
ATOM     32  F   UNL     1       4.567   3.764  12.067  0.00  0.00    +0.000 F 
ATOM     33  F   UNL     1       6.676   4.114  11.680  0.00  0.00    +0.000 F 
ATOM     34  F   UNL     1       6.007   2.172  12.398  0.00  0.00    +0.000 F 
ENDBRANCH  29  31
ENDBRANCH  23  25
ENDBRANCH  20  21
ENDBRANCH  19  20
ENDBRANCH   4  19
TORSDOF 7
ENDMDL
MODEL 3
REMARK VINA RESULT:      -8.2      2.261      2.854
REMARK  Name = 
REMARK  8 active torsions:
REMARK  status: ('A' for Active; 'I' for Inactive)
REMARK    1  A    between atoms: C_1  and  C_2
REMARK    2  A    between atoms: C_4  and  C_5
REMARK    3  A    between atoms: C_12  and  C_13
REMARK    4  A    between atoms: C_16  and  S_17
REMARK    5  A    between atoms: S_17  and  C_18
REMARK    6  A    between atoms: C_18  and  C_19
REMARK    7  A    between atoms: N_21  and  C_22
REMARK    8  A    between atoms: C_26  and  C_27
REMARK                            x       y       z     vdW  Elec       q    Type
REMARK                         _______ _______ _______ _____ _____    ______ ____
ROOT
ATOM      1  C   UNL     1       1.706   6.686  20.195  0.00  0.00    +0.000 A 
ATOM      2  C   UNL     1       0.842   5.667  20.573  0.00  0.00    +0.000 A 
ATOM      3  C   UNL     1       1.327   4.363  20.648  0.00  0.00    +0.000 A 
ATOM      4  C   UNL     1       2.653   4.128  20.337  0.00  0.00    +0.000 A 
ATOM      5  N   UNL     1       3.461   5.133  19.934  0.00  0.00    +0.000 NA
ATOM      6  N   UNL     1       2.992   6.418  19.876  0.00  0.00    +0.000 NA
ENDROOT
BRANCH   1  12
ATOM      7  C   UNL     1       2.037   8.827  17.777  0.00  0.00    +0.000 C 
ATOM      8  C   UNL     1       1.491   9.043  19.146  0.00  0.00    +0.000 A 
ATOM      9  N   UNL     1       1.079  10.325  19.479  0.00  0.00    +0.000 NA
ATOM     10  C   UNL     1       0.660  10.382  20.728  0.00  0.00    +0.000 A 
ATOM     11  S   UNL     1       0.671   8.866  21.536  0.00  0.00    +0.000 S 
ATOM     12  C   UNL     1       1.343   8.100  20.153  0.00  0.00    +0.000 A 
BRANCH  10  13
ATOM     13  C   UNL     1       0.237  11.625  21.406  0.00  0.00    +0.000 A 
ATOM     14  C   UNL     1      -0.762  11.555  22.393  0.00  0.00    +0.000 A 
ATOM     15  C   UNL     1      -1.238  12.707  23.027  0.00  0.00    +0.000 A 
ATOM     16  C   UNL     1      -0.717  13.952  22.688  0.00  0.00    +0.000 A 
ATOM     17  C   UNL     1       0.282  14.046  21.725  0.00  0.00    +0.000 A 
ATOM     18  C   UNL     1       0.757  12.893  21.092  0.00  0.00    +0.000 A 
ENDBRANCH  10  13
ENDBRANCH   1  12
BRANCH   4  19
ATOM     19  S   UNL     1       3.348   2.505  20.501  0.00  0.00    +0.000 S 
BRANCH  19  20
ATOM     20  C   UNL     1       3.061   1.859  18.818  0.00  0.00    +0.000 C 
BRANCH  20  21
ATOM     21  C   UNL     1       3.575   2.831  17.765  0.00  0.00    +0.000 C 
ATOM     22  O   UNL     1       2.815   3.262  16.899  0.00  0.00    +0.000 OA
ATOM     23  N   UNL     1       4.928   3.127  17.877  0.00  0.00    +0.000 N 
ATOM     24  H   UNL     1       5.477   2.525  18.492  0.00  0.00    +0.000 HD
BRANCH  23  25
ATOM     25  C   UNL     1       5.656   4.017  17.058  0.00  0.00    +0.000 A 
ATOM     26  C   UNL     1       5.883   3.784  15.702  0.00  0.00    +0.000 A 
ATOM     27  C   UNL     1       6.625   4.684  14.936  0.00  0.00    +0.000 A 
ATOM     28  C   UNL     1       7.157   5.828  15.524  0.00  0.00    +0.000 A 
ATOM     29  C   UNL     1       6.936   6.094  16.882  0.00  0.00    +0.000 A 
ATOM     30  C   UNL     1       6.166   5.187  17.640  0.00  0.00    +0.000 A 
BRANCH  29  31
ATOM     31  C   UNL     1       7.530   7.319  17.530  0.00  0.00    +0.000 C 
ATOM     32  F   UNL     1       6.599   8.246  17.898  0.00  0.00    +0.000 F 
ATOM     33  F   UNL     1       8.231   7.029  18.659  0.00  0.00    +0.000 F 
ATOM     34  F   UNL     1       8.394   7.974  16.705  0.00  0.00    +0.000 F 
ENDBRANCH  29  31
ENDBRANCH  23  25
ENDBRANCH  20  21
ENDBRANCH  19  20
ENDBRANCH   4  19
TORSDOF 7
ENDMDL
MODEL 4
REMARK VINA RESULT:      -8.0      5.457     10.339
REMARK  Name = 
REMARK  8 active torsions:
REMARK  status: ('A' for Active; 'I' for Inactive)
REMARK    1  A    between atoms: C_1  and  C_2
REMARK    2  A    between atoms: C_4  and  C_5
REMARK    3  A    between atoms: C_12  and  C_13
REMARK    4  A    between atoms: C_16  and  S_17
REMARK    5  A    between atoms: S_17  and  C_18
REMARK    6  A    between atoms: C_18  and  C_19
REMARK    7  A    between atoms: N_21  and  C_22
REMARK    8  A    between atoms: C_26  and  C_27
REMARK                            x       y       z     vdW  Elec       q    Type
REMARK                         _______ _______ _______ _____ _____    ______ ____
ROOT
ATOM      1  C   UNL     1       0.162  10.798  21.598  0.00  0.00    +0.000 A 
ATOM      2  C   UNL     1      -0.925  10.583  22.434  0.00  0.00    +0.000 A 
ATOM      3  C   UNL     1      -1.524  11.675  23.058  0.00  0.00    +0.000 A 
ATOM      4  C   UNL     1      -1.010  12.937  22.828  0.00  0.00    +0.000 A 
ATOM      5  N   UNL     1       0.073  13.113  22.040  0.00  0.00    +0.000 NA
ATOM      6  N   UNL     1       0.653  12.043  21.412  0.00  0.00    +0.000 NA
ENDROOT
BRANCH   1  12
ATOM      7  C   UNL     1       0.936  10.740  18.446  0.00  0.00    +0.000 C 
ATOM      8  C   UNL     1       1.151   9.689  19.478  0.00  0.00    +0.000 A 
ATOM      9  N   UNL     1       1.739   8.499  19.072  0.00  0.00    +0.000 NA
ATOM     10  C   UNL     1       1.829   7.646  20.074  0.00  0.00    +0.000 A 
ATOM     11  S   UNL     1       1.279   8.274  21.575  0.00  0.00    +0.000 S 
ATOM     12  C   UNL     1       0.827   9.751  20.826  0.00  0.00    +0.000 A 
BRANCH  10  13
ATOM     13  C   UNL     1       2.331   6.262  19.942  0.00  0.00    +0.000 A 
ATOM     14  C   UNL     1       1.711   5.241  20.684  0.00  0.00    +0.000 A 
ATOM     15  C   UNL     1       2.180   3.924  20.638  0.00  0.00    +0.000 A 
ATOM     16  C   UNL     1       3.276   3.603  19.844  0.00  0.00    +0.000 A 
ATOM     17  C   UNL     1       3.898   4.594  19.090  0.00  0.00    +0.000 A 
ATOM     18  C   UNL     1       3.429   5.911  19.137  0.00  0.00    +0.000 A 
ENDBRANCH  10  13
ENDBRANCH   1  12
BRANCH   4  19
ATOM     19  S   UNL     1      -1.786  14.371  23.523  0.00  0.00    +0.000 S 
BRANCH  19  20
ATOM     20  C   UNL     1      -3.531  14.025  23.115  0.00  0.00    +0.000 C 
BRANCH  20  21
ATOM     21  C   UNL     1      -3.748  14.021  21.608  0.00  0.00    +0.000 C 
ATOM     22  O   UNL     1      -3.353  14.964  20.925  0.00  0.00    +0.000 OA
ATOM     23  N   UNL     1      -4.433  12.908  21.135  0.00  0.00    +0.000 N 
ATOM     24  H   UNL     1      -4.898  12.328  21.834  0.00  0.00    +0.000 HD
BRANCH  23  25
ATOM     25  C   UNL     1      -4.743  12.632  19.786  0.00  0.00    +0.000 A 
ATOM     26  C   UNL     1      -5.913  13.078  19.172  0.00  0.00    +0.000 A 
ATOM     27  C   UNL     1      -6.185  12.764  17.839  0.00  0.00    +0.000 A 
ATOM     28  C   UNL     1      -5.289  11.992  17.107  0.00  0.00    +0.000 A 
ATOM     29  C   UNL     1      -4.100  11.540  17.695  0.00  0.00    +0.000 A 
ATOM     30  C   UNL     1      -3.827  11.882  19.035  0.00  0.00    +0.000 A 
BRANCH  29  31
ATOM     31  C   UNL     1      -3.136  10.683  16.913  0.00  0.00    +0.000 C 
ATOM     32  F   UNL     1      -3.464  10.559  15.595  0.00  0.00    +0.000 F 
ATOM     33  F   UNL     1      -1.865  11.166  16.936  0.00  0.00    +0.000 F 
ATOM     34  F   UNL     1      -3.066   9.410  17.395  0.00  0.00    +0.000 F 
ENDBRANCH  29  31
ENDBRANCH  23  25
ENDBRANCH  20  21
ENDBRANCH  19  20
ENDBRANCH   4  19
TORSDOF 7
ENDMDL
MODEL 5
REMARK VINA RESULT:      -8.0      5.062      9.872
REMARK  Name = 
REMARK  8 active torsions:
REMARK  status: ('A' for Active; 'I' for Inactive)
REMARK    1  A    between atoms: C_1  and  C_2
REMARK    2  A    between atoms: C_4  and  C_5
REMARK    3  A    between atoms: C_12  and  C_13
REMARK    4  A    between atoms: C_16  and  S_17
REMARK    5  A    between atoms: S_17  and  C_18
REMARK    6  A    between atoms: C_18  and  C_19
REMARK    7  A    between atoms: N_21  and  C_22
REMARK    8  A    between atoms: C_26  and  C_27
REMARK                            x       y       z     vdW  Elec       q    Type
REMARK                         _______ _______ _______ _____ _____    ______ ____
ROOT
ATOM      1  C   UNL     1       0.625   9.728  21.092  0.00  0.00    +0.000 A 
ATOM      2  C   UNL     1      -0.260   9.311  22.076  0.00  0.00    +0.000 A 
ATOM      3  C   UNL     1      -0.935  10.270  22.828  0.00  0.00    +0.000 A 
ATOM      4  C   UNL     1      -0.694  11.606  22.572  0.00  0.00    +0.000 A 
ATOM      5  N   UNL     1       0.203  11.983  21.634  0.00  0.00    +0.000 NA
ATOM      6  N   UNL     1       0.854  11.043  20.882  0.00  0.00    +0.000 NA
ENDROOT
BRANCH   1  12
ATOM      7  C   UNL     1       1.618  10.236  18.043  0.00  0.00    +0.000 C 
ATOM      8  C   UNL     1       1.750   9.007  18.874  0.00  0.00    +0.000 A 
ATOM      9  N   UNL     1       2.354   7.900  18.295  0.00  0.00    +0.000 NA
ATOM     10  C   UNL     1       2.365   6.875  19.124  0.00  0.00    +0.000 A 
ATOM     11  S   UNL     1       1.717   7.227  20.675  0.00  0.00    +0.000 S 
ATOM     12  C   UNL     1       1.333   8.827  20.186  0.00  0.00    +0.000 A 
BRANCH  10  13
ATOM     13  C   UNL     1       2.862   5.528  18.772  0.00  0.00    +0.000 A 
ATOM     14  C   UNL     1       2.037   4.676  18.017  0.00  0.00    +0.000 A 
ATOM     15  C   UNL     1       2.435   3.373  17.702  0.00  0.00    +0.000 A 
ATOM     16  C   UNL     1       3.671   2.900  18.133  0.00  0.00    +0.000 A 
ATOM     17  C   UNL     1       4.510   3.729  18.870  0.00  0.00    +0.000 A 
ATOM     18  C   UNL     1       4.111   5.032  19.184  0.00  0.00    +0.000 A 
ENDBRANCH  10  13
ENDBRANCH   1  12
BRANCH   4  19
ATOM     19  S   UNL     1      -1.590  12.870  23.436  0.00  0.00    +0.000 S 
BRANCH  19  20
ATOM     20  C   UNL     1      -1.455  14.239  22.236  0.00  0.00    +0.000 C 
BRANCH  20  21
ATOM     21  C   UNL     1      -2.428  14.049  21.080  0.00  0.00    +0.000 C 
ATOM     22  O   UNL     1      -3.061  15.009  20.642  0.00  0.00    +0.000 OA
ATOM     23  N   UNL     1      -2.530  12.738  20.632  0.00  0.00    +0.000 N 
ATOM     24  H   UNL     1      -2.127  12.018  21.232  0.00  0.00    +0.000 HD
BRANCH  23  25
ATOM     25  C   UNL     1      -3.329  12.284  19.560  0.00  0.00    +0.000 A 
ATOM     26  C   UNL     1      -4.712  12.460  19.520  0.00  0.00    +0.000 A 
ATOM     27  C   UNL     1      -5.463  11.977  18.447  0.00  0.00    +0.000 A 
ATOM     28  C   UNL     1      -4.836  11.305  17.402  0.00  0.00    +0.000 A 
ATOM     29  C   UNL     1      -3.446  11.124  17.411  0.00  0.00    +0.000 A 
ATOM     30  C   UNL     1      -2.697  11.635  18.490  0.00  0.00    +0.000 A 
BRANCH  29  31
ATOM     31  C   UNL     1      -2.764  10.375  16.293  0.00  0.00    +0.000 C 
ATOM     32  F   UNL     1      -3.480   9.307  15.837  0.00  0.00    +0.000 F 
ATOM     33  F   UNL     1      -2.528  11.156  15.205  0.00  0.00    +0.000 F 
ATOM     34  F   UNL     1      -1.554   9.873  16.668  0.00  0.00    +0.000 F 
ENDBRANCH  29  31
ENDBRANCH  23  25
ENDBRANCH  20  21
ENDBRANCH  19  20
ENDBRANCH   4  19
TORSDOF 7
ENDMDL
MODEL 6
REMARK VINA RESULT:      -8.0      0.952      1.061
REMARK  Name = 
REMARK  8 active torsions:
REMARK  status: ('A' for Active; 'I' for Inactive)
REMARK    1  A    between atoms: C_1  and  C_2
REMARK    2  A    between atoms: C_4  and  C_5
REMARK    3  A    between atoms: C_12  and  C_13
REMARK    4  A    between atoms: C_16  and  S_17
REMARK    5  A    between atoms: S_17  and  C_18
REMARK    6  A    between atoms: C_18  and  C_19
REMARK    7  A    between atoms: N_21  and  C_22
REMARK    8  A    between atoms: C_26  and  C_27
REMARK                            x       y       z     vdW  Elec       q    Type
REMARK                         _______ _______ _______ _____ _____    ______ ____
ROOT
ATOM      1  C   UNL     1       2.004   6.871  20.217  0.00  0.00    +0.000 A 
ATOM      2  C   UNL     1       3.282   6.547  19.782  0.00  0.00    +0.000 A 
ATOM      3  C   UNL     1       3.673   5.209  19.770  0.00  0.00    +0.000 A 
ATOM      4  C   UNL     1       2.775   4.251  20.199  0.00  0.00    +0.000 A 
ATOM      5  N   UNL     1       1.551   4.598  20.654  0.00  0.00    +0.000 NA
ATOM      6  N   UNL     1       1.158   5.909  20.651  0.00  0.00    +0.000 NA
ENDROOT
BRANCH   1  12
ATOM      7  C   UNL     1       1.872   9.021  17.788  0.00  0.00    +0.000 C 
ATOM      8  C   UNL     1       1.396   9.169  19.191  0.00  0.00    +0.000 A 
ATOM      9  N   UNL     1       0.834  10.384  19.556  0.00  0.00    +0.000 NA
ATOM     10  C   UNL     1       0.498  10.391  20.831  0.00  0.00    +0.000 A 
ATOM     11  S   UNL     1       0.773   8.896  21.631  0.00  0.00    +0.000 S 
ATOM     12  C   UNL     1       1.448   8.221  20.204  0.00  0.00    +0.000 A 
BRANCH  10  13
ATOM     13  C   UNL     1      -0.045  11.568  21.539  0.00  0.00    +0.000 A 
ATOM     14  C   UNL     1       0.460  12.843  21.226  0.00  0.00    +0.000 A 
ATOM     15  C   UNL     1       0.020  13.984  21.904  0.00  0.00    +0.000 A 
ATOM     16  C   UNL     1      -0.940  13.872  22.905  0.00  0.00    +0.000 A 
ATOM     17  C   UNL     1      -1.465  12.624  23.224  0.00  0.00    +0.000 A 
ATOM     18  C   UNL     1      -1.024  11.483  22.545  0.00  0.00    +0.000 A 
ENDBRANCH  10  13
ENDBRANCH   1  12
BRANCH   4  19
ATOM     19  S   UNL     1       3.185   2.527  20.122  0.00  0.00    +0.000 S 
BRANCH  19  20
ATOM     20  C   UNL     1       2.594   2.129  18.441  0.00  0.00    +0.000 C 
BRANCH  20  21
ATOM     21  C   UNL     1       3.176   3.093  17.416  0.00  0.00    +0.000 C 
ATOM     22  O   UNL     1       2.465   3.962  16.912  0.00  0.00    +0.000 OA
ATOM     23  N   UNL     1       4.512   2.864  17.115  0.00  0.00    +0.000 N 
ATOM     24  H   UNL     1       4.906   1.977  17.430  0.00  0.00    +0.000 HD
BRANCH  23  25
ATOM     25  C   UNL     1       5.308   3.621  16.227  0.00  0.00    +0.000 A 
ATOM     26  C   UNL     1       6.054   4.727  16.634  0.00  0.00    +0.000 A 
ATOM     27  C   UNL     1       6.811   5.456  15.716  0.00  0.00    +0.000 A 
ATOM     28  C   UNL     1       6.825   5.088  14.374  0.00  0.00    +0.000 A 
ATOM     29  C   UNL     1       6.093   3.975  13.938  0.00  0.00    +0.000 A 
ATOM     30  C   UNL     1       5.349   3.235  14.879  0.00  0.00    +0.000 A 
BRANCH  29  31
ATOM     31  C   UNL     1       6.084   3.588  12.481  0.00  0.00    +0.000 C 
ATOM     32  F   UNL     1       4.858   3.703  11.894  0.00  0.00    +0.000 F 
ATOM     33  F   UNL     1       6.928   4.346  11.730  0.00  0.00    +0.000 F 
ATOM     34  F   UNL     1       6.464   2.294  12.286  0.00  0.00    +0.000 F 
ENDBRANCH  29  31
ENDBRANCH  23  25
ENDBRANCH  20  21
ENDBRANCH  19  20
ENDBRANCH   4  19
TORSDOF 7
ENDMDL
MODEL 7
REMARK VINA RESULT:      -7.8      5.082      9.870
REMARK  Name = 
REMARK  8 active torsions:
REMARK  status: ('A' for Active; 'I' for Inactive)
REMARK    1  A    between atoms: C_1  and  C_2
REMARK    2  A    between atoms: C_4  and  C_5
REMARK    3  A    between atoms: C_12  and  C_13
REMARK    4  A    between atoms: C_16  and  S_17
REMARK    5  A    between atoms: S_17  and  C_18
REMARK    6  A    between atoms: C_18  and  C_19
REMARK    7  A    between atoms: N_21  and  C_22
REMARK    8  A    between atoms: C_26  and  C_27
REMARK                            x       y       z     vdW  Elec       q    Type
REMARK                         _______ _______ _______ _____ _____    ______ ____
ROOT
ATOM      1  C   UNL     1       0.454  10.387  21.199  0.00  0.00    +0.000 A 
ATOM      2  C   UNL     1      -0.577  10.058  22.067  0.00  0.00    +0.000 A 
ATOM      3  C   UNL     1      -1.175  11.066  22.821  0.00  0.00    +0.000 A 
ATOM      4  C   UNL     1      -0.715  12.361  22.681  0.00  0.00    +0.000 A 
ATOM      5  N   UNL     1       0.317  12.648  21.857  0.00  0.00    +0.000 NA
ATOM      6  N   UNL     1       0.895  11.662  21.104  0.00  0.00    +0.000 NA
ENDROOT
BRANCH   1  12
ATOM      7  C   UNL     1       1.223  10.718  18.063  0.00  0.00    +0.000 C 
ATOM      8  C   UNL     1       1.430   9.544  18.954  0.00  0.00    +0.000 A 
ATOM      9  N   UNL     1       2.006   8.409  18.401  0.00  0.00    +0.000 NA
ATOM     10  C   UNL     1       2.091   7.437  19.288  0.00  0.00    +0.000 A 
ATOM     11  S   UNL     1       1.548   7.876  20.857  0.00  0.00    +0.000 S 
ATOM     12  C   UNL     1       1.109   9.440  20.301  0.00  0.00    +0.000 A 
BRANCH  10  13
ATOM     13  C   UNL     1       2.579   6.076  18.982  0.00  0.00    +0.000 A 
ATOM     14  C   UNL     1       3.803   5.655  19.532  0.00  0.00    +0.000 A 
ATOM     15  C   UNL     1       4.338   4.398  19.232  0.00  0.00    +0.000 A 
ATOM     16  C   UNL     1       3.655   3.536  18.380  0.00  0.00    +0.000 A 
ATOM     17  C   UNL     1       2.436   3.925  17.835  0.00  0.00    +0.000 A 
ATOM     18  C   UNL     1       1.902   5.182  18.135  0.00  0.00    +0.000 A 
ENDBRANCH  10  13
ENDBRANCH   1  12
BRANCH   4  19
ATOM     19  S   UNL     1      -1.497  13.698  23.545  0.00  0.00    +0.000 S 
BRANCH  19  20
ATOM     20  C   UNL     1      -2.174  14.641  22.137  0.00  0.00    +0.000 C 
BRANCH  20  21
ATOM     21  C   UNL     1      -3.215  13.825  21.384  0.00  0.00    +0.000 C 
ATOM     22  O   UNL     1      -4.369  13.755  21.805  0.00  0.00    +0.000 OA
ATOM     23  N   UNL     1      -2.726  13.185  20.252  0.00  0.00    +0.000 N 
ATOM     24  H   UNL     1      -1.711  13.144  20.155  0.00  0.00    +0.000 HD
BRANCH  23  25
ATOM     25  C   UNL     1      -3.474  12.392  19.355  0.00  0.00    +0.000 A 
ATOM     26  C   UNL     1      -4.858  12.251  19.442  0.00  0.00    +0.000 A 
ATOM     27  C   UNL     1      -5.552  11.440  18.543  0.00  0.00    +0.000 A 
ATOM     28  C   UNL     1      -4.865  10.755  17.546  0.00  0.00    +0.000 A 
ATOM     29  C   UNL     1      -3.475  10.887  17.427  0.00  0.00    +0.000 A 
ATOM     30  C   UNL     1      -2.787  11.725  18.329  0.00  0.00    +0.000 A 
BRANCH  29  31
ATOM     31  C   UNL     1      -2.721  10.127  16.364  0.00  0.00    +0.000 C 
ATOM     32  F   UNL     1      -3.451   9.130  15.787  0.00  0.00    +0.000 F 
ATOM     33  F   UNL     1      -2.308  10.924  15.342  0.00  0.00    +0.000 F 
ATOM     34  F   UNL     1      -1.599   9.526  16.853  0.00  0.00    +0.000 F 
ENDBRANCH  29  31
ENDBRANCH  23  25
ENDBRANCH  20  21
ENDBRANCH  19  20
ENDBRANCH   4  19
TORSDOF 7
ENDMDL
MODEL 8
REMARK VINA RESULT:      -7.8      2.282      2.754
REMARK  Name = 
REMARK  8 active torsions:
REMARK  status: ('A' for Active; 'I' for Inactive)
REMARK    1  A    between atoms: C_1  and  C_2
REMARK    2  A    between atoms: C_4  and  C_5
REMARK    3  A    between atoms: C_12  and  C_13
REMARK    4  A    between atoms: C_16  and  S_17
REMARK    5  A    between atoms: S_17  and  C_18
REMARK    6  A    between atoms: C_18  and  C_19
REMARK    7  A    between atoms: N_21  and  C_22
REMARK    8  A    between atoms: C_26  and  C_27
REMARK                            x       y       z     vdW  Elec       q    Type
REMARK                         _______ _______ _______ _____ _____    ______ ____
ROOT
ATOM      1  C   UNL     1       1.838   6.753  20.224  0.00  0.00    +0.000 A 
ATOM      2  C   UNL     1       3.143   6.391  19.917  0.00  0.00    +0.000 A 
ATOM      3  C   UNL     1       3.502   5.046  19.970  0.00  0.00    +0.000 A 
ATOM      4  C   UNL     1       2.545   4.117  20.333  0.00  0.00    +0.000 A 
ATOM      5  N   UNL     1       1.293   4.501  20.665  0.00  0.00    +0.000 NA
ATOM      6  N   UNL     1       0.933   5.820  20.597  0.00  0.00    +0.000 NA
ENDROOT
BRANCH   1  12
ATOM      7  C   UNL     1       2.183   8.932  17.843  0.00  0.00    +0.000 C 
ATOM      8  C   UNL     1       1.465   9.074  19.140  0.00  0.00    +0.000 A 
ATOM      9  N   UNL     1       0.869  10.296  19.415  0.00  0.00    +0.000 NA
ATOM     10  C   UNL     1       0.309  10.295  20.609  0.00  0.00    +0.000 A 
ATOM     11  S   UNL     1       0.408   8.786  21.424  0.00  0.00    +0.000 S 
ATOM     12  C   UNL     1       1.317   8.114  20.132  0.00  0.00    +0.000 A 
BRANCH  10  13
ATOM     13  C   UNL     1      -0.332  11.475  21.226  0.00  0.00    +0.000 A 
ATOM     14  C   UNL     1      -0.504  12.637  20.452  0.00  0.00    +0.000 A 
ATOM     15  C   UNL     1      -1.055  13.799  21.001  0.00  0.00    +0.000 A 
ATOM     16  C   UNL     1      -1.451  13.819  22.335  0.00  0.00    +0.000 A 
ATOM     17  C   UNL     1      -1.304  12.678  23.117  0.00  0.00    +0.000 A 
ATOM     18  C   UNL     1      -0.752  11.516  22.567  0.00  0.00    +0.000 A 
ENDBRANCH  10  13
ENDBRANCH   1  12
BRANCH   4  19
ATOM     19  S   UNL     1       2.921   2.384  20.330  0.00  0.00    +0.000 S 
BRANCH  19  20
ATOM     20  C   UNL     1       2.457   1.956  18.617  0.00  0.00    +0.000 C 
BRANCH  20  21
ATOM     21  C   UNL     1       3.086   2.924  17.624  0.00  0.00    +0.000 C 
ATOM     22  O   UNL     1       2.373   3.588  16.874  0.00  0.00    +0.000 OA
ATOM     23  N   UNL     1       4.475   2.939  17.646  0.00  0.00    +0.000 N 
ATOM     24  H   UNL     1       4.931   2.177  18.149  0.00  0.00    +0.000 HD
BRANCH  23  25
ATOM     25  C   UNL     1       5.312   3.759  16.858  0.00  0.00    +0.000 A 
ATOM     26  C   UNL     1       5.632   3.462  15.533  0.00  0.00    +0.000 A 
ATOM     27  C   UNL     1       6.479   4.294  14.799  0.00  0.00    +0.000 A 
ATOM     28  C   UNL     1       7.022   5.432  15.388  0.00  0.00    +0.000 A 
ATOM     29  C   UNL     1       6.709   5.760  16.714  0.00  0.00    +0.000 A 
ATOM     30  C   UNL     1       5.835   4.923  17.438  0.00  0.00    +0.000 A 
BRANCH  29  31
ATOM     31  C   UNL     1       7.314   6.979  17.364  0.00  0.00    +0.000 C 
ATOM     32  F   UNL     1       8.223   7.622  16.577  0.00  0.00    +0.000 F 
ATOM     33  F   UNL     1       6.383   7.914  17.696  0.00  0.00    +0.000 F 
ATOM     34  F   UNL     1       7.974   6.678  18.518  0.00  0.00    +0.000 F 
ENDBRANCH  29  31
ENDBRANCH  23  25
ENDBRANCH  20  21
ENDBRANCH  19  20
ENDBRANCH   4  19
TORSDOF 7
ENDMDL
MODEL 9
REMARK VINA RESULT:      -7.8      2.357      2.917
REMARK  Name = 
REMARK  8 active torsions:
REMARK  status: ('A' for Active; 'I' for Inactive)
REMARK    1  A    between atoms: C_1  and  C_2
REMARK    2  A    between atoms: C_4  and  C_5
REMARK    3  A    between atoms: C_12  and  C_13
REMARK    4  A    between atoms: C_16  and  S_17
REMARK    5  A    between atoms: S_17  and  C_18
REMARK    6  A    between atoms: C_18  and  C_19
REMARK    7  A    between atoms: N_21  and  C_22
REMARK    8  A    between atoms: C_26  and  C_27
REMARK                            x       y       z     vdW  Elec       q    Type
REMARK                         _______ _______ _______ _____ _____    ______ ____
ROOT
ATOM      1  C   UNL     1       1.777   6.785  20.221  0.00  0.00    +0.000 A 
ATOM      2  C   UNL     1       3.077   6.465  19.854  0.00  0.00    +0.000 A 
ATOM      3  C   UNL     1       3.493   5.137  19.927  0.00  0.00    +0.000 A 
ATOM      4  C   UNL     1       2.596   4.183  20.368  0.00  0.00    +0.000 A 
ATOM      5  N   UNL     1       1.349   4.528  20.756  0.00  0.00    +0.000 NA
ATOM      6  N   UNL     1       0.932   5.829  20.669  0.00  0.00    +0.000 NA
ENDROOT
BRANCH   1  12
ATOM      7  C   UNL     1       2.146   9.014  17.890  0.00  0.00    +0.000 C 
ATOM      8  C   UNL     1       1.353   9.102  19.147  0.00  0.00    +0.000 A 
ATOM      9  N   UNL     1       0.684  10.290  19.404  0.00  0.00    +0.000 NA
ATOM     10  C   UNL     1       0.060  10.244  20.566  0.00  0.00    +0.000 A 
ATOM     11  S   UNL     1       0.188   8.730  21.365  0.00  0.00    +0.000 S 
ATOM     12  C   UNL     1       1.197   8.121  20.117  0.00  0.00    +0.000 A 
BRANCH  10  13
ATOM     13  C   UNL     1      -0.669  11.383  21.160  0.00  0.00    +0.000 A 
ATOM     14  C   UNL     1      -0.738  11.490  22.561  0.00  0.00    +0.000 A 
ATOM     15  C   UNL     1      -1.460  12.517  23.176  0.00  0.00    +0.000 A 
ATOM     16  C   UNL     1      -2.124  13.461  22.400  0.00  0.00    +0.000 A 
ATOM     17  C   UNL     1      -2.060  13.385  21.012  0.00  0.00    +0.000 A 
ATOM     18  C   UNL     1      -1.338  12.357  20.398  0.00  0.00    +0.000 A 
ENDBRANCH  10  13
ENDBRANCH   1  12
BRANCH   4  19
ATOM     19  S   UNL     1       3.041   2.466  20.396  0.00  0.00    +0.000 S 
BRANCH  19  20
ATOM     20  C   UNL     1       2.567   1.983  18.701  0.00  0.00    +0.000 C 
BRANCH  20  21
ATOM     21  C   UNL     1       3.180   2.923  17.673  0.00  0.00    +0.000 C 
ATOM     22  O   UNL     1       2.463   3.499  16.857  0.00  0.00    +0.000 OA
ATOM     23  N   UNL     1       4.564   3.020  17.746  0.00  0.00    +0.000 N 
ATOM     24  H   UNL     1       5.041   2.318  18.312  0.00  0.00    +0.000 HD
BRANCH  23  25
ATOM     25  C   UNL     1       5.386   3.837  16.939  0.00  0.00    +0.000 A 
ATOM     26  C   UNL     1       5.688   3.533  15.612  0.00  0.00    +0.000 A 
ATOM     27  C   UNL     1       6.520   4.362  14.860  0.00  0.00    +0.000 A 
ATOM     28  C   UNL     1       7.067   5.507  15.432  0.00  0.00    +0.000 A 
ATOM     29  C   UNL     1       6.773   5.843  16.760  0.00  0.00    +0.000 A 
ATOM     30  C   UNL     1       5.914   5.008  17.503  0.00  0.00    +0.000 A 
BRANCH  29  31
ATOM     31  C   UNL     1       7.383   7.069  17.392  0.00  0.00    +0.000 C 
ATOM     32  F   UNL     1       8.032   6.812  18.564  0.00  0.00    +0.000 F 
ATOM     33  F   UNL     1       8.296   7.677  16.587  0.00  0.00    +0.000 F 
ATOM     34  F   UNL     1       6.451   8.018  17.690  0.00  0.00    +0.000 F 
ENDBRANCH  29  31
ENDBRANCH  23  25
ENDBRANCH  20  21
ENDBRANCH  19  20
ENDBRANCH   4  19
TORSDOF 7
ENDMDL
