MODEL 1
REMARK VINA RESULT:      -9.1      0.000      0.000
REMARK  Name = 
REMARK  8 active torsions:
REMARK  status: ('A' for Active; 'I' for Inactive)
REMARK    1  A    between atoms: C_1  and  C_2
REMARK    2  A    between atoms: C_2  and  S_3
REMARK    3  A    between atoms: S_3  and  N_6
REMARK    4  A    between atoms: C_15  and  C_16
REMARK    5  A    between atoms: C_22  and  S_23
REMARK    6  A    between atoms: S_23  and  C_24
REMARK    7  A    between atoms: C_24  and  C_25
REMARK    8  A    between atoms: C_28  and  C_29
REMARK                            x       y       z     vdW  Elec       q    Type
REMARK                         _______ _______ _______ _____ _____    ______ ____
ROOT
ATOM      1  C   UNL     1       2.904   6.611  18.326  0.00  0.00    +0.000 C 
ATOM      2  O   UNL     1       3.166   7.586  17.620  0.00  0.00    +0.000 OA
ATOM      3  N   UNL     1       2.257   6.701  19.543  0.00  0.00    +0.000 N 
ATOM      4  C   UNL     1       1.810   7.903  20.081  0.00  0.00    +0.000 A 
ATOM      5  N   UNL     1       1.541   8.095  21.355  0.00  0.00    +0.000 NA
ATOM      6  N   UNL     1       1.132   9.406  21.625  0.00  0.00    +0.000 NA
ATOM      7  C   UNL     1       1.040  10.130  20.530  0.00  0.00    +0.000 A 
ATOM      8  S   UNL     1       1.445   9.268  19.104  0.00  0.00    +0.000 S 
ATOM      9  H   UNL     1       2.357   5.931  20.192  0.00  0.00    +0.000 HD
ENDROOT
BRANCH   1  19
ATOM     10  N   UNL     1       3.514   4.142  18.850  0.00  0.00    +0.000 NA
ATOM     11  C   UNL     1       4.993   3.921  19.091  0.00  0.00    +0.000 C 
ATOM     12  C   UNL     1       5.893   5.054  18.680  0.00  0.00    +0.000 A 
ATOM     13  C   UNL     1       7.026   5.409  19.416  0.00  0.00    +0.000 A 
ATOM     14  C   UNL     1       7.865   6.426  18.957  0.00  0.00    +0.000 A 
ATOM     15  C   UNL     1       7.592   7.067  17.748  0.00  0.00    +0.000 A 
ATOM     16  C   UNL     1       6.477   6.699  16.995  0.00  0.00    +0.000 A 
ATOM     17  C   UNL     1       5.623   5.700  17.464  0.00  0.00    +0.000 A 
ATOM     18  C   UNL     1       4.353   5.309  16.750  0.00  0.00    +0.000 C 
ATOM     19  C   UNL     1       3.215   5.199  17.798  0.00  0.00    +0.000 C 
BRANCH  10  20
ATOM     20  S   UNL     1       2.762   2.617  18.539  0.00  0.00    +0.000 S 
ATOM     21  O   UNL     1       3.812   1.620  18.499  0.00  0.00    +0.000 OA
ATOM     22  O   UNL     1       1.849   2.791  17.431  0.00  0.00    +0.000 OA
BRANCH  20  24
ATOM     23  C   UNL     1       1.071   3.577  20.429  0.00  0.00    +0.000 C 
ATOM     24  C   UNL     1       1.820   2.312  20.033  0.00  0.00    +0.000 C 
ENDBRANCH  20  24
ENDBRANCH  10  20
ENDBRANCH   1  19
BRANCH   7  25
ATOM     25  S   UNL     1       0.463  11.790  20.481  0.00  0.00    +0.000 S 
BRANCH  25  26
ATOM     26  C   UNL     1      -1.342  11.608  20.373  0.00  0.00    +0.000 C 
BRANCH  26  27
ATOM     27  C   UNL     1      -1.792  11.257  18.959  0.00  0.00    +0.000 A 
ATOM     28  C   UNL     1      -2.355  10.002  18.673  0.00  0.00    +0.000 A 
ATOM     29  C   UNL     1      -2.751   9.666  17.371  0.00  0.00    +0.000 A 
ATOM     30  C   UNL     1      -2.592  10.583  16.325  0.00  0.00    +0.000 A 
ATOM     31  C   UNL     1      -2.044  11.838  16.600  0.00  0.00    +0.000 A 
ATOM     32  C   UNL     1      -1.641  12.170  17.902  0.00  0.00    +0.000 A 
BRANCH  30  33
ATOM     33  C   UNL     1      -2.977  10.232  14.981  0.00  0.00    +0.000 C 
ATOM     34  N   UNL     1      -3.287   9.950  13.903  0.00  0.00    +0.000 NA
ENDBRANCH  30  33
ENDBRANCH  26  27
ENDBRANCH  25  26
ENDBRANCH   7  25
TORSDOF 7
ENDMDL
MODEL 2
REMARK VINA RESULT:      -9.1      1.439      1.645
REMARK  Name = 
REMARK  8 active torsions:
REMARK  status: ('A' for Active; 'I' for Inactive)
REMARK    1  A    between atoms: C_1  and  C_2
REMARK    2  A    between atoms: C_2  and  S_3
REMARK    3  A    between atoms: S_3  and  N_6
REMARK    4  A    between atoms: C_15  and  C_16
REMARK    5  A    between atoms: C_22  and  S_23
REMARK    6  A    between atoms: S_23  and  C_24
REMARK    7  A    between atoms: C_24  and  C_25
REMARK    8  A    between atoms: C_28  and  C_29
REMARK                            x       y       z     vdW  Elec       q    Type
REMARK                         _______ _______ _______ _____ _____    ______ ____
ROOT
ATOM      1  C   UNL     1       2.983   6.659  18.308  0.00  0.00    +0.000 C 
ATOM      2  O   UNL     1       3.247   7.641  17.611  0.00  0.00    +0.000 OA
ATOM      3  N   UNL     1       2.312   6.738  19.513  0.00  0.00    +0.000 N 
ATOM      4  C   UNL     1       1.842   7.932  20.047  0.00  0.00    +0.000 A 
ATOM      5  N   UNL     1       1.548   8.117  21.318  0.00  0.00    +0.000 NA
ATOM      6  N   UNL     1       1.120   9.422  21.585  0.00  0.00    +0.000 NA
ATOM      7  C   UNL     1       1.040  10.149  20.491  0.00  0.00    +0.000 A 
ATOM      8  S   UNL     1       1.480   9.297  19.069  0.00  0.00    +0.000 S 
ATOM      9  H   UNL     1       2.409   5.966  20.161  0.00  0.00    +0.000 HD
ENDROOT
BRANCH   1  19
ATOM     10  N   UNL     1       3.633   4.201  18.833  0.00  0.00    +0.000 NA
ATOM     11  C   UNL     1       5.115   4.005  19.078  0.00  0.00    +0.000 C 
ATOM     12  C   UNL     1       5.997   5.153  18.670  0.00  0.00    +0.000 A 
ATOM     13  C   UNL     1       7.122   5.527  19.409  0.00  0.00    +0.000 A 
ATOM     14  C   UNL     1       7.944   6.558  18.953  0.00  0.00    +0.000 A 
ATOM     15  C   UNL     1       7.664   7.195  17.744  0.00  0.00    +0.000 A 
ATOM     16  C   UNL     1       6.558   6.809  16.987  0.00  0.00    +0.000 A 
ATOM     17  C   UNL     1       5.719   5.795  17.454  0.00  0.00    +0.000 A 
ATOM     18  C   UNL     1       4.458   5.383  16.736  0.00  0.00    +0.000 C 
ATOM     19  C   UNL     1       3.319   5.253  17.781  0.00  0.00    +0.000 C 
BRANCH  10  20
ATOM     20  S   UNL     1       2.908   2.663  18.519  0.00  0.00    +0.000 S 
ATOM     21  O   UNL     1       3.969   1.678  18.531  0.00  0.00    +0.000 OA
ATOM     22  O   UNL     1       2.032   2.812  17.379  0.00  0.00    +0.000 OA
BRANCH  20  24
ATOM     23  C   UNL     1       0.916   3.504  20.156  0.00  0.00    +0.000 C 
ATOM     24  C   UNL     1       1.918   2.371  19.985  0.00  0.00    +0.000 C 
ENDBRANCH  20  24
ENDBRANCH  10  20
ENDBRANCH   1  19
BRANCH   7  25
ATOM     25  S   UNL     1       0.446  11.803  20.438  0.00  0.00    +0.000 S 
BRANCH  25  26
ATOM     26  C   UNL     1      -0.069  12.012  18.707  0.00  0.00    +0.000 C 
BRANCH  26  27
ATOM     27  C   UNL     1      -1.582  11.914  18.551  0.00  0.00    +0.000 A 
ATOM     28  C   UNL     1      -2.441  12.313  19.589  0.00  0.00    +0.000 A 
ATOM     29  C   UNL     1      -3.833  12.206  19.458  0.00  0.00    +0.000 A 
ATOM     30  C   UNL     1      -4.396  11.695  18.283  0.00  0.00    +0.000 A 
ATOM     31  C   UNL     1      -3.551  11.306  17.240  0.00  0.00    +0.000 A 
ATOM     32  C   UNL     1      -2.160  11.407  17.374  0.00  0.00    +0.000 A 
BRANCH  30  33
ATOM     33  C   UNL     1      -5.825  11.562  18.156  0.00  0.00    +0.000 C 
ATOM     34  N   UNL     1      -6.973  11.454  18.053  0.00  0.00    +0.000 NA
ENDBRANCH  30  33
ENDBRANCH  26  27
ENDBRANCH  25  26
ENDBRANCH   7  25
TORSDOF 7
ENDMDL
MODEL 3
REMARK VINA RESULT:      -9.0      1.757      2.014
REMARK  Name = 
REMARK  8 active torsions:
REMARK  status: ('A' for Active; 'I' for Inactive)
REMARK    1  A    between atoms: C_1  and  C_2
REMARK    2  A    between atoms: C_2  and  S_3
REMARK    3  A    between atoms: S_3  and  N_6
REMARK    4  A    between atoms: C_15  and  C_16
REMARK    5  A    between atoms: C_22  and  S_23
REMARK    6  A    between atoms: S_23  and  C_24
REMARK    7  A    between atoms: C_24  and  C_25
REMARK    8  A    between atoms: C_28  and  C_29
REMARK                            x       y       z     vdW  Elec       q    Type
REMARK                         _______ _______ _______ _____ _____    ______ ____
ROOT
ATOM      1  C   UNL     1       2.497   6.667  19.203  0.00  0.00    +0.000 C 
ATOM      2  O   UNL     1       2.709   7.481  18.302  0.00  0.00    +0.000 OA
ATOM      3  N   UNL     1       1.971   7.011  20.433  0.00  0.00    +0.000 N 
ATOM      4  C   UNL     1       1.600   8.309  20.767  0.00  0.00    +0.000 A 
ATOM      5  N   UNL     1       1.458   8.750  21.999  0.00  0.00    +0.000 NA
ATOM      6  N   UNL     1       1.101  10.103  22.047  0.00  0.00    +0.000 NA
ATOM      7  C   UNL     1       0.918  10.607  20.845  0.00  0.00    +0.000 A 
ATOM      8  S   UNL     1       1.168   9.476  19.582  0.00  0.00    +0.000 S 
ATOM      9  H   UNL     1       2.119   6.376  21.207  0.00  0.00    +0.000 HD
ENDROOT
BRANCH   1  19
ATOM     10  N   UNL     1       3.433   4.392  20.033  0.00  0.00    +0.000 NA
ATOM     11  C   UNL     1       4.923   4.233  19.814  0.00  0.00    +0.000 C 
ATOM     12  C   UNL     1       5.553   5.236  18.887  0.00  0.00    +0.000 A 
ATOM     13  C   UNL     1       6.831   5.754  19.107  0.00  0.00    +0.000 A 
ATOM     14  C   UNL     1       7.396   6.633  18.182  0.00  0.00    +0.000 A 
ATOM     15  C   UNL     1       6.700   6.969  17.021  0.00  0.00    +0.000 A 
ATOM     16  C   UNL     1       5.435   6.435  16.781  0.00  0.00    +0.000 A 
ATOM     17  C   UNL     1       4.857   5.576  17.717  0.00  0.00    +0.000 A 
ATOM     18  C   UNL     1       3.459   5.028  17.569  0.00  0.00    +0.000 C 
ATOM     19  C   UNL     1       2.731   5.170  18.932  0.00  0.00    +0.000 C 
BRANCH  10  20
ATOM     20  S   UNL     1       2.741   2.837  20.338  0.00  0.00    +0.000 S 
ATOM     21  O   UNL     1       2.851   2.589  21.760  0.00  0.00    +0.000 OA
ATOM     22  O   UNL     1       3.286   1.913  19.369  0.00  0.00    +0.000 OA
BRANCH  20  24
ATOM     23  C   UNL     1       0.598   2.268  18.776  0.00  0.00    +0.000 C 
ATOM     24  C   UNL     1       1.000   3.089  19.993  0.00  0.00    +0.000 C 
ENDBRANCH  20  24
ENDBRANCH  10  20
ENDBRANCH   1  19
BRANCH   7  25
ATOM     25  S   UNL     1       0.370  12.248  20.529  0.00  0.00    +0.000 S 
BRANCH  25  26
ATOM     26  C   UNL     1      -0.135  12.196  18.784  0.00  0.00    +0.000 C 
BRANCH  26  27
ATOM     27  C   UNL     1      -1.641  12.006  18.636  0.00  0.00    +0.000 A 
ATOM     28  C   UNL     1      -2.185  11.448  17.467  0.00  0.00    +0.000 A 
ATOM     29  C   UNL     1      -3.569  11.290  17.317  0.00  0.00    +0.000 A 
ATOM     30  C   UNL     1      -4.441  11.688  18.337  0.00  0.00    +0.000 A 
ATOM     31  C   UNL     1      -3.910  12.235  19.509  0.00  0.00    +0.000 A 
ATOM     32  C   UNL     1      -2.526  12.399  19.654  0.00  0.00    +0.000 A 
BRANCH  30  33
ATOM     33  C   UNL     1      -5.867  11.549  18.175  0.00  0.00    +0.000 C 
ATOM     34  N   UNL     1      -7.011  11.438  18.045  0.00  0.00    +0.000 NA
ENDBRANCH  30  33
ENDBRANCH  26  27
ENDBRANCH  25  26
ENDBRANCH   7  25
TORSDOF 7
ENDMDL
MODEL 4
REMARK VINA RESULT:      -8.7      2.547      3.255
REMARK  Name = 
REMARK  8 active torsions:
REMARK  status: ('A' for Active; 'I' for Inactive)
REMARK    1  A    between atoms: C_1  and  C_2
REMARK    2  A    between atoms: C_2  and  S_3
REMARK    3  A    between atoms: S_3  and  N_6
REMARK    4  A    between atoms: C_15  and  C_16
REMARK    5  A    between atoms: C_22  and  S_23
REMARK    6  A    between atoms: S_23  and  C_24
REMARK    7  A    between atoms: C_24  and  C_25
REMARK    8  A    between atoms: C_28  and  C_29
REMARK                            x       y       z     vdW  Elec       q    Type
REMARK                         _______ _______ _______ _____ _____    ______ ____
ROOT
ATOM      1  C   UNL     1       2.933   6.583  18.170  0.00  0.00    +0.000 C 
ATOM      2  O   UNL     1       3.226   7.505  17.406  0.00  0.00    +0.000 OA
ATOM      3  N   UNL     1       2.237   6.760  19.349  0.00  0.00    +0.000 N 
ATOM      4  C   UNL     1       1.770   7.998  19.780  0.00  0.00    +0.000 A 
ATOM      5  N   UNL     1       1.450   8.282  21.025  0.00  0.00    +0.000 NA
ATOM      6  N   UNL     1       1.032   9.608  21.181  0.00  0.00    +0.000 NA
ATOM      7  C   UNL     1       0.986  10.250  20.034  0.00  0.00    +0.000 A 
ATOM      8  S   UNL     1       1.447   9.287  18.692  0.00  0.00    +0.000 S 
ATOM      9  H   UNL     1       2.310   6.039  20.057  0.00  0.00    +0.000 HD
ENDROOT
BRANCH   1  19
ATOM     10  N   UNL     1       3.554   4.168  18.895  0.00  0.00    +0.000 NA
ATOM     11  C   UNL     1       5.030   3.979  19.176  0.00  0.00    +0.000 C 
ATOM     12  C   UNL     1       5.928   5.085  18.692  0.00  0.00    +0.000 A 
ATOM     13  C   UNL     1       7.046   5.507  19.416  0.00  0.00    +0.000 A 
ATOM     14  C   UNL     1       7.885   6.492  18.892  0.00  0.00    +0.000 A 
ATOM     15  C   UNL     1       7.627   7.034  17.633  0.00  0.00    +0.000 A 
ATOM     16  C   UNL     1       6.528   6.599  16.893  0.00  0.00    +0.000 A 
ATOM     17  C   UNL     1       5.673   5.632  17.426  0.00  0.00    +0.000 A 
ATOM     18  C   UNL     1       4.419   5.174  16.724  0.00  0.00    +0.000 C 
ATOM     19  C   UNL     1       3.264   5.137  17.760  0.00  0.00    +0.000 C 
BRANCH  10  20
ATOM     20  S   UNL     1       2.819   2.616  18.693  0.00  0.00    +0.000 S 
ATOM     21  O   UNL     1       3.815   1.622  19.032  0.00  0.00    +0.000 OA
ATOM     22  O   UNL     1       2.152   2.607  17.410  0.00  0.00    +0.000 OA
BRANCH  20  24
ATOM     23  C   UNL     1       1.977   3.550  21.096  0.00  0.00    +0.000 C 
ATOM     24  C   UNL     1       1.586   2.575  19.994  0.00  0.00    +0.000 C 
ENDBRANCH  20  24
ENDBRANCH  10  20
ENDBRANCH   1  19
BRANCH   7  25
ATOM     25  S   UNL     1       0.414  11.901  19.841  0.00  0.00    +0.000 S 
BRANCH  25  26
ATOM     26  C   UNL     1       0.083  12.436  21.546  0.00  0.00    +0.000 C 
BRANCH  26  27
ATOM     27  C   UNL     1      -1.412  12.547  21.825  0.00  0.00    +0.000 A 
ATOM     28  C   UNL     1      -2.302  12.975  20.825  0.00  0.00    +0.000 A 
ATOM     29  C   UNL     1      -3.674  13.098  21.082  0.00  0.00    +0.000 A 
ATOM     30  C   UNL     1      -4.186  12.795  22.349  0.00  0.00    +0.000 A 
ATOM     31  C   UNL     1      -3.312  12.358  23.348  0.00  0.00    +0.000 A 
ATOM     32  C   UNL     1      -1.939  12.242  23.092  0.00  0.00    +0.000 A 
BRANCH  30  33
ATOM     33  C   UNL     1      -5.593  12.944  22.622  0.00  0.00    +0.000 C 
ATOM     34  N   UNL     1      -6.723  13.062  22.843  0.00  0.00    +0.000 NA
ENDBRANCH  30  33
ENDBRANCH  26  27
ENDBRANCH  25  26
ENDBRANCH   7  25
TORSDOF 7
ENDMDL
MODEL 5
REMARK VINA RESULT:      -8.6      3.130      4.158
REMARK  Name = 
REMARK  8 active torsions:
REMARK  status: ('A' for Active; 'I' for Inactive)
REMARK    1  A    between atoms: C_1  and  C_2
REMARK    2  A    between atoms: C_2  and  S_3
REMARK    3  A    between atoms: S_3  and  N_6
REMARK    4  A    between atoms: C_15  and  C_16
REMARK    5  A    between atoms: C_22  and  S_23
REMARK    6  A    between atoms: S_23  and  C_24
REMARK    7  A    between atoms: C_24  and  C_25
REMARK    8  A    between atoms: C_28  and  C_29
REMARK                            x       y       z     vdW  Elec       q    Type
REMARK                         _______ _______ _______ _____ _____    ______ ____
ROOT
ATOM      1  C   UNL     1       2.880   6.629  18.366  0.00  0.00    +0.000 C 
ATOM      2  O   UNL     1       3.121   7.603  17.650  0.00  0.00    +0.000 OA
ATOM      3  N   UNL     1       2.249   6.721  19.591  0.00  0.00    +0.000 N 
ATOM      4  C   UNL     1       1.796   7.921  20.127  0.00  0.00    +0.000 A 
ATOM      5  N   UNL     1       1.543   8.119  21.404  0.00  0.00    +0.000 NA
ATOM      6  N   UNL     1       1.123   9.427  21.671  0.00  0.00    +0.000 NA
ATOM      7  C   UNL     1       1.007  10.142  20.572  0.00  0.00    +0.000 A 
ATOM      8  S   UNL     1       1.401   9.275  19.146  0.00  0.00    +0.000 S 
ATOM      9  H   UNL     1       2.367   5.956  20.244  0.00  0.00    +0.000 HD
ENDROOT
BRANCH   1  19
ATOM     10  N   UNL     1       3.534   4.173  18.897  0.00  0.00    +0.000 NA
ATOM     11  C   UNL     1       5.020   3.974  19.110  0.00  0.00    +0.000 C 
ATOM     12  C   UNL     1       5.896   5.116  18.672  0.00  0.00    +0.000 A 
ATOM     13  C   UNL     1       7.039   5.492  19.383  0.00  0.00    +0.000 A 
ATOM     14  C   UNL     1       7.854   6.516  18.899  0.00  0.00    +0.000 A 
ATOM     15  C   UNL     1       7.549   7.143  17.691  0.00  0.00    +0.000 A 
ATOM     16  C   UNL     1       6.425   6.755  16.963  0.00  0.00    +0.000 A 
ATOM     17  C   UNL     1       5.593   5.748  17.457  0.00  0.00    +0.000 A 
ATOM     18  C   UNL     1       4.316   5.334  16.771  0.00  0.00    +0.000 C 
ATOM     19  C   UNL     1       3.200   5.217  17.843  0.00  0.00    +0.000 C 
BRANCH  10  20
ATOM     20  S   UNL     1       2.797   2.635  18.612  0.00  0.00    +0.000 S 
ATOM     21  O   UNL     1       3.769   1.621  18.964  0.00  0.00    +0.000 OA
ATOM     22  O   UNL     1       2.188   2.672  17.301  0.00  0.00    +0.000 OA
BRANCH  20  24
ATOM     23  C   UNL     1       1.986   3.255  21.125  0.00  0.00    +0.000 C 
ATOM     24  C   UNL     1       1.507   2.564  19.856  0.00  0.00    +0.000 C 
ENDBRANCH  20  24
ENDBRANCH  10  20
ENDBRANCH   1  19
BRANCH   7  25
ATOM     25  S   UNL     1       0.411  11.795  20.520  0.00  0.00    +0.000 S 
BRANCH  25  26
ATOM     26  C   UNL     1       0.935  12.383  18.882  0.00  0.00    +0.000 C 
BRANCH  26  27
ATOM     27  C   UNL     1       1.949  13.517  18.985  0.00  0.00    +0.000 A 
ATOM     28  C   UNL     1       1.822  14.509  19.972  0.00  0.00    +0.000 A 
ATOM     29  C   UNL     1       2.739  15.565  20.058  0.00  0.00    +0.000 A 
ATOM     30  C   UNL     1       3.806  15.651  19.156  0.00  0.00    +0.000 A 
ATOM     31  C   UNL     1       3.949  14.663  18.178  0.00  0.00    +0.000 A 
ATOM     32  C   UNL     1       3.026  13.611  18.088  0.00  0.00    +0.000 A 
BRANCH  30  33
ATOM     33  C   UNL     1       4.737  16.749  19.228  0.00  0.00    +0.000 C 
ATOM     34  N   UNL     1       5.484  17.631  19.287  0.00  0.00    +0.000 NA
ENDBRANCH  30  33
ENDBRANCH  26  27
ENDBRANCH  25  26
ENDBRANCH   7  25
TORSDOF 7
ENDMDL
MODEL 6
REMARK VINA RESULT:      -8.6      1.303      1.573
REMARK  Name = 
REMARK  8 active torsions:
REMARK  status: ('A' for Active; 'I' for Inactive)
REMARK    1  A    between atoms: C_1  and  C_2
REMARK    2  A    between atoms: C_2  and  S_3
REMARK    3  A    between atoms: S_3  and  N_6
REMARK    4  A    between atoms: C_15  and  C_16
REMARK    5  A    between atoms: C_22  and  S_23
REMARK    6  A    between atoms: S_23  and  C_24
REMARK    7  A    between atoms: C_24  and  C_25
REMARK    8  A    between atoms: C_28  and  C_29
REMARK                            x       y       z     vdW  Elec       q    Type
REMARK                         _______ _______ _______ _____ _____    ______ ____
ROOT
ATOM      1  C   UNL     1       2.462   6.620  19.163  0.00  0.00    +0.000 C 
ATOM      2  O   UNL     1       2.599   7.410  18.227  0.00  0.00    +0.000 OA
ATOM      3  N   UNL     1       1.983   6.984  20.405  0.00  0.00    +0.000 N 
ATOM      4  C   UNL     1       1.578   8.278  20.717  0.00  0.00    +0.000 A 
ATOM      5  N   UNL     1       1.479   8.753  21.941  0.00  0.00    +0.000 NA
ATOM      6  N   UNL     1       1.072  10.092  21.963  0.00  0.00    +0.000 NA
ATOM      7  C   UNL     1       0.812  10.550  20.757  0.00  0.00    +0.000 A 
ATOM      8  S   UNL     1       1.046   9.388  19.519  0.00  0.00    +0.000 S 
ATOM      9  H   UNL     1       2.192   6.380  21.190  0.00  0.00    +0.000 HD
ENDROOT
BRANCH   1  19
ATOM     10  N   UNL     1       3.477   4.397  20.040  0.00  0.00    +0.000 NA
ATOM     11  C   UNL     1       4.970   4.278  19.809  0.00  0.00    +0.000 C 
ATOM     12  C   UNL     1       5.558   5.277  18.850  0.00  0.00    +0.000 A 
ATOM     13  C   UNL     1       6.822   5.840  19.045  0.00  0.00    +0.000 A 
ATOM     14  C   UNL     1       7.350   6.712  18.091  0.00  0.00    +0.000 A 
ATOM     15  C   UNL     1       6.632   6.997  16.929  0.00  0.00    +0.000 A 
ATOM     16  C   UNL     1       5.382   6.418  16.716  0.00  0.00    +0.000 A 
ATOM     17  C   UNL     1       4.841   5.565  17.680  0.00  0.00    +0.000 A 
ATOM     18  C   UNL     1       3.460   4.970  17.561  0.00  0.00    +0.000 C 
ATOM     19  C   UNL     1       2.740   5.124  18.927  0.00  0.00    +0.000 C 
BRANCH  10  20
ATOM     20  S   UNL     1       2.838   2.829  20.391  0.00  0.00    +0.000 S 
ATOM     21  O   UNL     1       1.569   2.719  19.700  0.00  0.00    +0.000 OA
ATOM     22  O   UNL     1       2.938   2.620  21.818  0.00  0.00    +0.000 OA
BRANCH  20  24
ATOM     23  C   UNL     1       3.464   1.436  18.150  0.00  0.00    +0.000 C 
ATOM     24  C   UNL     1       3.976   1.726  19.554  0.00  0.00    +0.000 C 
ENDBRANCH  20  24
ENDBRANCH  10  20
ENDBRANCH   1  19
BRANCH   7  25
ATOM     25  S   UNL     1       0.187  12.158  20.418  0.00  0.00    +0.000 S 
BRANCH  25  26
ATOM     26  C   UNL     1      -1.615  11.922  20.433  0.00  0.00    +0.000 C 
BRANCH  26  27
ATOM     27  C   UNL     1      -2.142  11.497  19.067  0.00  0.00    +0.000 A 
ATOM     28  C   UNL     1      -1.328  10.781  18.172  0.00  0.00    +0.000 A 
ATOM     29  C   UNL     1      -1.800  10.405  16.907  0.00  0.00    +0.000 A 
ATOM     30  C   UNL     1      -3.100  10.739  16.509  0.00  0.00    +0.000 A 
ATOM     31  C   UNL     1      -3.922  11.441  17.395  0.00  0.00    +0.000 A 
ATOM     32  C   UNL     1      -3.447  11.822  18.657  0.00  0.00    +0.000 A 
BRANCH  30  33
ATOM     33  C   UNL     1      -3.580  10.374  15.200  0.00  0.00    +0.000 C 
ATOM     34  N   UNL     1      -3.965  10.080  14.149  0.00  0.00    +0.000 NA
ENDBRANCH  30  33
ENDBRANCH  26  27
ENDBRANCH  25  26
ENDBRANCH   7  25
TORSDOF 7
ENDMDL
MODEL 7
REMARK VINA RESULT:      -8.4      2.118      3.785
REMARK  Name = 
REMARK  8 active torsions:
REMARK  status: ('A' for Active; 'I' for Inactive)
REMARK    1  A    between atoms: C_1  and  C_2
REMARK    2  A    between atoms: C_2  and  S_3
REMARK    3  A    between atoms: S_3  and  N_6
REMARK    4  A    between atoms: C_15  and  C_16
REMARK    5  A    between atoms: C_22  and  S_23
REMARK    6  A    between atoms: S_23  and  C_24
REMARK    7  A    between atoms: C_24  and  C_25
REMARK    8  A    between atoms: C_28  and  C_29
REMARK                            x       y       z     vdW  Elec       q    Type
REMARK                         _______ _______ _______ _____ _____    ______ ____
ROOT
ATOM      1  C   UNL     1       3.004   6.571  17.974  0.00  0.00    +0.000 C 
ATOM      2  O   UNL     1       3.330   7.443  17.167  0.00  0.00    +0.000 OA
ATOM      3  N   UNL     1       2.278   6.825  19.120  0.00  0.00    +0.000 N 
ATOM      4  C   UNL     1       1.815   8.090  19.464  0.00  0.00    +0.000 A 
ATOM      5  N   UNL     1       1.463   8.450  20.681  0.00  0.00    +0.000 NA
ATOM      6  N   UNL     1       1.059   9.788  20.748  0.00  0.00    +0.000 NA
ATOM      7  C   UNL     1       1.053  10.362  19.564  0.00  0.00    +0.000 A 
ATOM      8  S   UNL     1       1.539   9.317  18.295  0.00  0.00    +0.000 S 
ATOM      9  H   UNL     1       2.321   6.145  19.870  0.00  0.00    +0.000 HD
ENDROOT
BRANCH   1  19
ATOM     10  N   UNL     1       3.540   4.188  18.856  0.00  0.00    +0.000 NA
ATOM     11  C   UNL     1       4.995   3.990  19.224  0.00  0.00    +0.000 C 
ATOM     12  C   UNL     1       5.938   5.053  18.731  0.00  0.00    +0.000 A 
ATOM     13  C   UNL     1       7.025   5.494  19.491  0.00  0.00    +0.000 A 
ATOM     14  C   UNL     1       7.909   6.436  18.961  0.00  0.00    +0.000 A 
ATOM     15  C   UNL     1       7.727   6.914  17.663  0.00  0.00    +0.000 A 
ATOM     16  C   UNL     1       6.660   6.459  16.890  0.00  0.00    +0.000 A 
ATOM     17  C   UNL     1       5.760   5.536  17.426  0.00  0.00    +0.000 A 
ATOM     18  C   UNL     1       4.536   5.062  16.684  0.00  0.00    +0.000 C 
ATOM     19  C   UNL     1       3.328   5.099  17.658  0.00  0.00    +0.000 C 
BRANCH  10  20
ATOM     20  S   UNL     1       2.786   2.640  18.697  0.00  0.00    +0.000 S 
ATOM     21  O   UNL     1       3.844   1.655  18.606  0.00  0.00    +0.000 OA
ATOM     22  O   UNL     1       1.768   2.747  17.675  0.00  0.00    +0.000 OA
BRANCH  20  24
ATOM     23  C   UNL     1       1.075   3.580  20.580  0.00  0.00    +0.000 C 
ATOM     24  C   UNL     1       1.997   2.403  20.289  0.00  0.00    +0.000 C 
ENDBRANCH  20  24
ENDBRANCH  10  20
ENDBRANCH   1  19
BRANCH   7  25
ATOM     25  S   UNL     1       0.508  12.005  19.259  0.00  0.00    +0.000 S 
BRANCH  25  26
ATOM     26  C   UNL     1      -1.282  11.921  19.565  0.00  0.00    +0.000 C 
BRANCH  26  27
ATOM     27  C   UNL     1      -1.667  12.612  20.868  0.00  0.00    +0.000 A 
ATOM     28  C   UNL     1      -2.309  13.862  20.859  0.00  0.00    +0.000 A 
ATOM     29  C   UNL     1      -2.646  14.511  22.055  0.00  0.00    +0.000 A 
ATOM     30  C   UNL     1      -2.348  13.920  23.289  0.00  0.00    +0.000 A 
ATOM     31  C   UNL     1      -1.720  12.672  23.310  0.00  0.00    +0.000 A 
ATOM     32  C   UNL     1      -1.376  12.027  22.113  0.00  0.00    +0.000 A 
BRANCH  30  33
ATOM     33  C   UNL     1      -2.672  14.596  24.519  0.00  0.00    +0.000 C 
ATOM     34  N   UNL     1      -2.934  15.140  25.507  0.00  0.00    +0.000 NA
ENDBRANCH  30  33
ENDBRANCH  26  27
ENDBRANCH  25  26
ENDBRANCH   7  25
TORSDOF 7
ENDMDL
MODEL 8
REMARK VINA RESULT:      -8.4      2.625      3.215
REMARK  Name = 
REMARK  8 active torsions:
REMARK  status: ('A' for Active; 'I' for Inactive)
REMARK    1  A    between atoms: C_1  and  C_2
REMARK    2  A    between atoms: C_2  and  S_3
REMARK    3  A    between atoms: S_3  and  N_6
REMARK    4  A    between atoms: C_15  and  C_16
REMARK    5  A    between atoms: C_22  and  S_23
REMARK    6  A    between atoms: S_23  and  C_24
REMARK    7  A    between atoms: C_24  and  C_25
REMARK    8  A    between atoms: C_28  and  C_29
REMARK                            x       y       z     vdW  Elec       q    Type
REMARK                         _______ _______ _______ _____ _____    ______ ____
ROOT
ATOM      1  C   UNL     1       2.838   6.595  18.780  0.00  0.00    +0.000 C 
ATOM      2  O   UNL     1       3.059   7.490  17.963  0.00  0.00    +0.000 OA
ATOM      3  N   UNL     1       2.224   6.809  19.998  0.00  0.00    +0.000 N 
ATOM      4  C   UNL     1       1.765   8.055  20.413  0.00  0.00    +0.000 A 
ATOM      5  N   UNL     1       1.528   8.383  21.666  0.00  0.00    +0.000 NA
ATOM      6  N   UNL     1       1.098   9.708  21.800  0.00  0.00    +0.000 NA
ATOM      7  C   UNL     1       0.959  10.303  20.635  0.00  0.00    +0.000 A 
ATOM      8  S   UNL     1       1.343   9.295  19.302  0.00  0.00    +0.000 S 
ATOM      9  H   UNL     1       2.359   6.118  20.726  0.00  0.00    +0.000 HD
ENDROOT
BRANCH   1  19
ATOM     10  N   UNL     1       3.720   4.268  19.519  0.00  0.00    +0.000 NA
ATOM     11  C   UNL     1       5.231   4.164  19.520  0.00  0.00    +0.000 C 
ATOM     12  C   UNL     1       5.957   5.270  18.805  0.00  0.00    +0.000 A 
ATOM     13  C   UNL     1       7.167   5.791  19.272  0.00  0.00    +0.000 A 
ATOM     14  C   UNL     1       7.833   6.771  18.536  0.00  0.00    +0.000 A 
ATOM     15  C   UNL     1       7.311   7.210  17.319  0.00  0.00    +0.000 A 
ATOM     16  C   UNL     1       6.118   6.676  16.834  0.00  0.00    +0.000 A 
ATOM     17  C   UNL     1       5.436   5.713  17.580  0.00  0.00    +0.000 A 
ATOM     18  C   UNL     1       4.099   5.153  17.164  0.00  0.00    +0.000 C 
ATOM     19  C   UNL     1       3.165   5.139  18.403  0.00  0.00    +0.000 C 
BRANCH  10  20
ATOM     20  S   UNL     1       3.048   2.675  19.559  0.00  0.00    +0.000 S 
ATOM     21  O   UNL     1       2.330   2.543  20.809  0.00  0.00    +0.000 OA
ATOM     22  O   UNL     1       4.092   1.745  19.189  0.00  0.00    +0.000 OA
BRANCH  20  24
ATOM     23  C   UNL     1       0.429   2.541  18.866  0.00  0.00    +0.000 C 
ATOM     24  C   UNL     1       1.814   2.719  18.259  0.00  0.00    +0.000 C 
ENDBRANCH  20  24
ENDBRANCH  10  20
ENDBRANCH   1  19
BRANCH   7  25
ATOM     25  S   UNL     1       0.345  11.935  20.419  0.00  0.00    +0.000 S 
BRANCH  25  26
ATOM     26  C   UNL     1      -0.380  12.332  22.039  0.00  0.00    +0.000 C 
BRANCH  26  27
ATOM     27  C   UNL     1      -1.895  12.484  21.959  0.00  0.00    +0.000 A 
ATOM     28  C   UNL     1      -2.541  12.624  20.719  0.00  0.00    +0.000 A 
ATOM     29  C   UNL     1      -3.931  12.785  20.641  0.00  0.00    +0.000 A 
ATOM     30  C   UNL     1      -4.707  12.809  21.806  0.00  0.00    +0.000 A 
ATOM     31  C   UNL     1      -4.077  12.658  23.044  0.00  0.00    +0.000 A 
ATOM     32  C   UNL     1      -2.685  12.505  23.121  0.00  0.00    +0.000 A 
BRANCH  30  33
ATOM     33  C   UNL     1      -6.134  12.997  21.729  0.00  0.00    +0.000 C 
ATOM     34  N   UNL     1      -7.279  13.148  21.669  0.00  0.00    +0.000 NA
ENDBRANCH  30  33
ENDBRANCH  26  27
ENDBRANCH  25  26
ENDBRANCH   7  25
TORSDOF 7
ENDMDL
MODEL 9
REMARK VINA RESULT:      -8.4      3.225      4.355
REMARK  Name = 
REMARK  8 active torsions:
REMARK  status: ('A' for Active; 'I' for Inactive)
REMARK    1  A    between atoms: C_1  and  C_2
REMARK    2  A    between atoms: C_2  and  S_3
REMARK    3  A    between atoms: S_3  and  N_6
REMARK    4  A    between atoms: C_15  and  C_16
REMARK    5  A    between atoms: C_22  and  S_23
REMARK    6  A    between atoms: S_23  and  C_24
REMARK    7  A    between atoms: C_24  and  C_25
REMARK    8  A    between atoms: C_28  and  C_29
REMARK                            x       y       z     vdW  Elec       q    Type
REMARK                         _______ _______ _______ _____ _____    ______ ____
ROOT
ATOM      1  C   UNL     1       2.959   6.573  18.092  0.00  0.00    +0.000 C 
ATOM      2  O   UNL     1       3.257   7.470  17.302  0.00  0.00    +0.000 OA
ATOM      3  N   UNL     1       2.252   6.787  19.259  0.00  0.00    +0.000 N 
ATOM      4  C   UNL     1       1.780   8.036  19.645  0.00  0.00    +0.000 A 
ATOM      5  N   UNL     1       1.448   8.359  20.878  0.00  0.00    +0.000 NA
ATOM      6  N   UNL     1       1.028   9.690  20.989  0.00  0.00    +0.000 NA
ATOM      7  C   UNL     1       0.991  10.295  19.821  0.00  0.00    +0.000 A 
ATOM      8  S   UNL     1       1.466   9.291  18.515  0.00  0.00    +0.000 S 
ATOM      9  H   UNL     1       2.319   6.089  19.989  0.00  0.00    +0.000 HD
ENDROOT
BRANCH   1  19
ATOM     10  N   UNL     1       3.570   4.182  18.900  0.00  0.00    +0.000 NA
ATOM     11  C   UNL     1       5.043   4.002  19.204  0.00  0.00    +0.000 C 
ATOM     12  C   UNL     1       5.947   5.093  18.698  0.00  0.00    +0.000 A 
ATOM     13  C   UNL     1       7.056   5.537  19.422  0.00  0.00    +0.000 A 
ATOM     14  C   UNL     1       7.901   6.506  18.878  0.00  0.00    +0.000 A 
ATOM     15  C   UNL     1       7.658   7.008  17.599  0.00  0.00    +0.000 A 
ATOM     16  C   UNL     1       6.569   6.550  16.860  0.00  0.00    +0.000 A 
ATOM     17  C   UNL     1       5.708   5.600  17.412  0.00  0.00    +0.000 A 
ATOM     18  C   UNL     1       4.462   5.120  16.709  0.00  0.00    +0.000 C 
ATOM     19  C   UNL     1       3.294   5.114  17.731  0.00  0.00    +0.000 C 
BRANCH  10  20
ATOM     20  S   UNL     1       2.838   2.624  18.736  0.00  0.00    +0.000 S 
ATOM     21  O   UNL     1       3.842   1.639  19.080  0.00  0.00    +0.000 OA
ATOM     22  O   UNL     1       2.153   2.589  17.463  0.00  0.00    +0.000 OA
BRANCH  20  24
ATOM     23  C   UNL     1       2.326   2.776  21.395  0.00  0.00    +0.000 C 
ATOM     24  C   UNL     1       1.624   2.603  20.055  0.00  0.00    +0.000 C 
ENDBRANCH  20  24
ENDBRANCH  10  20
ENDBRANCH   1  19
BRANCH   7  25
ATOM     25  S   UNL     1       0.419  11.938  19.570  0.00  0.00    +0.000 S 
BRANCH  25  26
ATOM     26  C   UNL     1       1.139  12.854  20.966  0.00  0.00    +0.000 C 
BRANCH  26  27
ATOM     27  C   UNL     1       2.157  13.889  20.499  0.00  0.00    +0.000 A 
ATOM     28  C   UNL     1       2.735  13.806  19.220  0.00  0.00    +0.000 A 
ATOM     29  C   UNL     1       3.686  14.742  18.794  0.00  0.00    +0.000 A 
ATOM     30  C   UNL     1       4.081  15.785  19.640  0.00  0.00    +0.000 A 
ATOM     31  C   UNL     1       3.505  15.884  20.910  0.00  0.00    +0.000 A 
ATOM     32  C   UNL     1       2.559  14.942  21.338  0.00  0.00    +0.000 A 
BRANCH  30  33
ATOM     33  C   UNL     1       5.077  16.735  19.213  0.00  0.00    +0.000 C 
ATOM     34  N   UNL     1       5.875  17.499  18.870  0.00  0.00    +0.000 NA
ENDBRANCH  30  33
ENDBRANCH  26  27
ENDBRANCH  25  26
ENDBRANCH   7  25
TORSDOF 7
ENDMDL
