MODEL 1
REMARK VINA RESULT:      -6.0      0.000      0.000
REMARK  Name = 
REMARK  5 active torsions:
REMARK  status: ('A' for Active; 'I' for Inactive)
REMARK    1  A    between atoms: C_1  and  C_2
REMARK    2  A    between atoms: C_4  and  N_5
REMARK    3  A    between atoms: N_5  and  S_6
REMARK    4  A    between atoms: S_6  and  C_7
REMARK    5  A    between atoms: C_12  and  N_13
REMARK                            x       y       z     vdW  Elec       q    Type
REMARK                         _______ _______ _______ _____ _____    ______ ____
ROOT
ATOM      1  C   UNL     1       1.331   3.767  18.521  0.00  0.00    +0.000 C 
ATOM      2  C   UNL     1       2.772   4.190  18.441  0.00  0.00    +0.000 A 
ATOM      3  C   UNL     1       3.554   3.772  17.345  0.00  0.00    +0.000 A 
ATOM      4  C   UNL     1       4.904   4.111  17.271  0.00  0.00    +0.000 A 
ATOM      5  C   UNL     1       5.495   4.846  18.292  0.00  0.00    +0.000 A 
ATOM      6  C   UNL     1       4.726   5.264  19.379  0.00  0.00    +0.000 A 
ATOM      7  C   UNL     1       3.355   4.984  19.447  0.00  0.00    +0.000 A 
ENDROOT
BRANCH   7   8
ATOM      8  N   UNL     1       2.668   5.299  20.628  0.00  0.00    +0.000 N 
ATOM      9  H   UNL     1       2.030   6.083  20.540  0.00  0.00    +0.000 HD
ATOM     10  H   UNL     1       2.239   4.506  21.091  0.00  0.00    +0.000 HD
ENDBRANCH   7   8
BRANCH   4  11
ATOM     11  N   UNL     1       5.721   3.625  16.207  0.00  0.00    +0.000 N 
ATOM     12  H   UNL     1       6.472   2.993  16.486  0.00  0.00    +0.000 HD
BRANCH  11  13
ATOM     13  S   UNL     1       6.339   4.772  15.125  0.00  0.00    +0.000 S 
ATOM     14  C   UNL     1       6.231   3.904  13.574  0.00  0.00    +0.000 C 
ATOM     15  O   UNL     1       5.484   5.936  15.081  0.00  0.00    +0.000 OA
ATOM     16  O   UNL     1       7.746   4.891  15.458  0.00  0.00    +0.000 OA
ENDBRANCH  11  13
ENDBRANCH   4  11
TORSDOF 3
ENDMDL
MODEL 2
REMARK VINA RESULT:      -5.8      2.163      2.706
REMARK  Name = 
REMARK  5 active torsions:
REMARK  status: ('A' for Active; 'I' for Inactive)
REMARK    1  A    between atoms: C_1  and  C_2
REMARK    2  A    between atoms: C_4  and  N_5
REMARK    3  A    between atoms: N_5  and  S_6
REMARK    4  A    between atoms: S_6  and  C_7
REMARK    5  A    between atoms: C_12  and  N_13
REMARK                            x       y       z     vdW  Elec       q    Type
REMARK                         _______ _______ _______ _____ _____    ______ ____
ROOT
ATOM      1  C   UNL     1       2.790   2.565  21.530  0.00  0.00    +0.000 C 
ATOM      2  C   UNL     1       2.732   2.874  20.059  0.00  0.00    +0.000 A 
ATOM      3  C   UNL     1       3.926   2.886  19.310  0.00  0.00    +0.000 A 
ATOM      4  C   UNL     1       3.906   3.217  17.956  0.00  0.00    +0.000 A 
ATOM      5  C   UNL     1       2.708   3.558  17.340  0.00  0.00    +0.000 A 
ATOM      6  C   UNL     1       1.522   3.546  18.076  0.00  0.00    +0.000 A 
ATOM      7  C   UNL     1       1.510   3.163  19.423  0.00  0.00    +0.000 A 
ENDROOT
BRANCH   7   8
ATOM      8  N   UNL     1       0.318   3.312  20.148  0.00  0.00    +0.000 N 
ATOM      9  H   UNL     1      -0.346   3.952  19.727  0.00  0.00    +0.000 HD
ATOM     10  H   UNL     1      -0.115   2.440  20.431  0.00  0.00    +0.000 HD
ENDBRANCH   7   8
BRANCH   4  11
ATOM     11  N   UNL     1       5.118   3.309  17.210  0.00  0.00    +0.000 N 
ATOM     12  H   UNL     1       5.727   2.491  17.263  0.00  0.00    +0.000 HD
BRANCH  11  13
ATOM     13  S   UNL     1       6.051   4.706  17.425  0.00  0.00    +0.000 S 
ATOM     14  C   UNL     1       6.962   4.773  15.896  0.00  0.00    +0.000 C 
ATOM     15  O   UNL     1       5.201   5.869  17.526  0.00  0.00    +0.000 OA
ATOM     16  O   UNL     1       6.994   4.376  18.477  0.00  0.00    +0.000 OA
ENDBRANCH  11  13
ENDBRANCH   4  11
TORSDOF 3
ENDMDL
MODEL 3
REMARK VINA RESULT:      -5.8      3.337      5.213
REMARK  Name = 
REMARK  5 active torsions:
REMARK  status: ('A' for Active; 'I' for Inactive)
REMARK    1  A    between atoms: C_1  and  C_2
REMARK    2  A    between atoms: C_4  and  N_5
REMARK    3  A    between atoms: N_5  and  S_6
REMARK    4  A    between atoms: S_6  and  C_7
REMARK    5  A    between atoms: C_12  and  N_13
REMARK                            x       y       z     vdW  Elec       q    Type
REMARK                         _______ _______ _______ _____ _____    ______ ____
ROOT
ATOM      1  C   UNL     1       7.540   6.782  17.920  0.00  0.00    +0.000 C 
ATOM      2  C   UNL     1       6.445   5.842  17.496  0.00  0.00    +0.000 A 
ATOM      3  C   UNL     1       5.428   5.511  18.413  0.00  0.00    +0.000 A 
ATOM      4  C   UNL     1       4.428   4.604  18.062  0.00  0.00    +0.000 A 
ATOM      5  C   UNL     1       4.443   4.003  16.810  0.00  0.00    +0.000 A 
ATOM      6  C   UNL     1       5.447   4.328  15.896  0.00  0.00    +0.000 A 
ATOM      7  C   UNL     1       6.428   5.277  16.206  0.00  0.00    +0.000 A 
ENDROOT
BRANCH   7   8
ATOM      8  N   UNL     1       7.493   5.453  15.311  0.00  0.00    +0.000 N 
ATOM      9  H   UNL     1       7.858   4.588  14.926  0.00  0.00    +0.000 HD
ATOM     10  H   UNL     1       7.332   6.153  14.596  0.00  0.00    +0.000 HD
ENDBRANCH   7   8
BRANCH   4  11
ATOM     11  N   UNL     1       3.441   4.204  19.011  0.00  0.00    +0.000 N 
ATOM     12  H   UNL     1       3.276   4.862  19.774  0.00  0.00    +0.000 HD
BRANCH  11  13
ATOM     13  S   UNL     1       3.574   2.641  19.650  0.00  0.00    +0.000 S 
ATOM     14  C   UNL     1       2.645   2.786  21.162  0.00  0.00    +0.000 C 
ATOM     15  O   UNL     1       2.927   1.685  18.781  0.00  0.00    +0.000 OA
ATOM     16  O   UNL     1       4.971   2.495  20.012  0.00  0.00    +0.000 OA
ENDBRANCH  11  13
ENDBRANCH   4  11
TORSDOF 3
ENDMDL
MODEL 4
REMARK VINA RESULT:      -5.7      3.344      4.977
REMARK  Name = 
REMARK  5 active torsions:
REMARK  status: ('A' for Active; 'I' for Inactive)
REMARK    1  A    between atoms: C_1  and  C_2
REMARK    2  A    between atoms: C_4  and  N_5
REMARK    3  A    between atoms: N_5  and  S_6
REMARK    4  A    between atoms: S_6  and  C_7
REMARK    5  A    between atoms: C_12  and  N_13
REMARK                            x       y       z     vdW  Elec       q    Type
REMARK                         _______ _______ _______ _____ _____    ______ ____
ROOT
ATOM      1  C   UNL     1       5.700   4.049  14.727  0.00  0.00    +0.000 C 
ATOM      2  C   UNL     1       5.688   4.522  16.155  0.00  0.00    +0.000 A 
ATOM      3  C   UNL     1       4.670   4.073  17.020  0.00  0.00    +0.000 A 
ATOM      4  C   UNL     1       4.608   4.533  18.335  0.00  0.00    +0.000 A 
ATOM      5  C   UNL     1       5.539   5.457  18.794  0.00  0.00    +0.000 A 
ATOM      6  C   UNL     1       6.550   5.903  17.943  0.00  0.00    +0.000 A 
ATOM      7  C   UNL     1       6.666   5.413  16.636  0.00  0.00    +0.000 A 
ENDROOT
BRANCH   7   8
ATOM      8  N   UNL     1       7.607   6.006  15.782  0.00  0.00    +0.000 N 
ATOM      9  H   UNL     1       7.206   6.421  14.948  0.00  0.00    +0.000 HD
ATOM     10  H   UNL     1       8.263   6.626  16.242  0.00  0.00    +0.000 HD
ENDBRANCH   7   8
BRANCH   4  11
ATOM     11  N   UNL     1       3.536   4.146  19.194  0.00  0.00    +0.000 N 
ATOM     12  H   UNL     1       3.352   4.777  19.975  0.00  0.00    +0.000 HD
BRANCH  11  13
ATOM     13  S   UNL     1       3.542   2.551  19.763  0.00  0.00    +0.000 S 
ATOM     14  C   UNL     1       2.603   2.699  21.269  0.00  0.00    +0.000 C 
ATOM     15  O   UNL     1       2.839   1.686  18.845  0.00  0.00    +0.000 OA
ATOM     16  O   UNL     1       4.918   2.284  20.135  0.00  0.00    +0.000 OA
ENDBRANCH  11  13
ENDBRANCH   4  11
TORSDOF 3
ENDMDL
MODEL 5
REMARK VINA RESULT:      -5.7      3.617      5.429
REMARK  Name = 
REMARK  5 active torsions:
REMARK  status: ('A' for Active; 'I' for Inactive)
REMARK    1  A    between atoms: C_1  and  C_2
REMARK    2  A    between atoms: C_4  and  N_5
REMARK    3  A    between atoms: N_5  and  S_6
REMARK    4  A    between atoms: S_6  and  C_7
REMARK    5  A    between atoms: C_12  and  N_13
REMARK                            x       y       z     vdW  Elec       q    Type
REMARK                         _______ _______ _______ _____ _____    ______ ____
ROOT
ATOM      1  C   UNL     1       7.793   5.825  19.220  0.00  0.00    +0.000 C 
ATOM      2  C   UNL     1       6.553   5.255  18.588  0.00  0.00    +0.000 A 
ATOM      3  C   UNL     1       5.343   5.266  19.311  0.00  0.00    +0.000 A 
ATOM      4  C   UNL     1       4.190   4.701  18.767  0.00  0.00    +0.000 A 
ATOM      5  C   UNL     1       4.234   4.101  17.515  0.00  0.00    +0.000 A 
ATOM      6  C   UNL     1       5.428   4.088  16.793  0.00  0.00    +0.000 A 
ATOM      7  C   UNL     1       6.584   4.699  17.295  0.00  0.00    +0.000 A 
ENDROOT
BRANCH   7   8
ATOM      8  N   UNL     1       7.787   4.526  16.596  0.00  0.00    +0.000 N 
ATOM      9  H   UNL     1       7.796   4.951  15.675  0.00  0.00    +0.000 HD
ATOM     10  H   UNL     1       8.620   4.748  17.129  0.00  0.00    +0.000 HD
ENDBRANCH   7   8
BRANCH   4  11
ATOM     11  N   UNL     1       2.982   4.637  19.524  0.00  0.00    +0.000 N 
ATOM     12  H   UNL     1       2.782   5.458  20.097  0.00  0.00    +0.000 HD
BRANCH  11  13
ATOM     13  S   UNL     1       2.724   3.242  20.449  0.00  0.00    +0.000 S 
ATOM     14  C   UNL     1       1.427   2.435  19.535  0.00  0.00    +0.000 C 
ATOM     15  O   UNL     1       3.903   2.409  20.443  0.00  0.00    +0.000 OA
ATOM     16  O   UNL     1       2.149   3.713  21.695  0.00  0.00    +0.000 OA
ENDBRANCH  11  13
ENDBRANCH   4  11
TORSDOF 3
ENDMDL
MODEL 6
REMARK VINA RESULT:      -5.6      2.509      3.198
REMARK  Name = 
REMARK  5 active torsions:
REMARK  status: ('A' for Active; 'I' for Inactive)
REMARK    1  A    between atoms: C_1  and  C_2
REMARK    2  A    between atoms: C_4  and  N_5
REMARK    3  A    between atoms: N_5  and  S_6
REMARK    4  A    between atoms: S_6  and  C_7
REMARK    5  A    between atoms: C_12  and  N_13
REMARK                            x       y       z     vdW  Elec       q    Type
REMARK                         _______ _______ _______ _____ _____    ______ ____
ROOT
ATOM      1  C   UNL     1       1.163   4.103  20.430  0.00  0.00    +0.000 C 
ATOM      2  C   UNL     1       2.219   3.865  19.385  0.00  0.00    +0.000 A 
ATOM      3  C   UNL     1       3.208   4.844  19.169  0.00  0.00    +0.000 A 
ATOM      4  C   UNL     1       4.169   4.670  18.173  0.00  0.00    +0.000 A 
ATOM      5  C   UNL     1       4.142   3.535  17.372  0.00  0.00    +0.000 A 
ATOM      6  C   UNL     1       3.166   2.560  17.582  0.00  0.00    +0.000 A 
ATOM      7  C   UNL     1       2.226   2.688  18.612  0.00  0.00    +0.000 A 
ENDROOT
BRANCH   7   8
ATOM      8  N   UNL     1       1.182   1.754  18.681  0.00  0.00    +0.000 N 
ATOM      9  H   UNL     1       1.487   0.804  18.862  0.00  0.00    +0.000 HD
ATOM     10  H   UNL     1       0.409   2.028  19.277  0.00  0.00    +0.000 HD
ENDBRANCH   7   8
BRANCH   4  11
ATOM     11  N   UNL     1       5.125   5.692  17.895  0.00  0.00    +0.000 N 
ATOM     12  H   UNL     1       5.137   6.028  16.931  0.00  0.00    +0.000 HD
BRANCH  11  13
ATOM     13  S   UNL     1       6.717   5.417  18.403  0.00  0.00    +0.000 S 
ATOM     14  C   UNL     1       7.509   6.950  17.963  0.00  0.00    +0.000 C 
ATOM     15  O   UNL     1       6.766   5.248  19.837  0.00  0.00    +0.000 OA
ATOM     16  O   UNL     1       7.230   4.393  17.512  0.00  0.00    +0.000 OA
ENDBRANCH  11  13
ENDBRANCH   4  11
TORSDOF 3
ENDMDL
MODEL 7
REMARK VINA RESULT:      -5.6      3.406      5.156
REMARK  Name = 
REMARK  5 active torsions:
REMARK  status: ('A' for Active; 'I' for Inactive)
REMARK    1  A    between atoms: C_1  and  C_2
REMARK    2  A    between atoms: C_4  and  N_5
REMARK    3  A    between atoms: N_5  and  S_6
REMARK    4  A    between atoms: S_6  and  C_7
REMARK    5  A    between atoms: C_12  and  N_13
REMARK                            x       y       z     vdW  Elec       q    Type
REMARK                         _______ _______ _______ _____ _____    ______ ____
ROOT
ATOM      1  C   UNL     1       7.488   7.038  17.609  0.00  0.00    +0.000 C 
ATOM      2  C   UNL     1       6.439   6.040  17.199  0.00  0.00    +0.000 A 
ATOM      3  C   UNL     1       5.371   5.763  18.075  0.00  0.00    +0.000 A 
ATOM      4  C   UNL     1       4.412   4.807  17.739  0.00  0.00    +0.000 A 
ATOM      5  C   UNL     1       4.518   4.104  16.546  0.00  0.00    +0.000 A 
ATOM      6  C   UNL     1       5.573   4.375  15.673  0.00  0.00    +0.000 A 
ATOM      7  C   UNL     1       6.516   5.369  15.963  0.00  0.00    +0.000 A 
ENDROOT
BRANCH   7   8
ATOM      8  N   UNL     1       7.633   5.495  15.124  0.00  0.00    +0.000 N 
ATOM      9  H   UNL     1       7.832   4.667  14.573  0.00  0.00    +0.000 HD
ATOM     10  H   UNL     1       7.648   6.340  14.565  0.00  0.00    +0.000 HD
ENDBRANCH   7   8
BRANCH   4  11
ATOM     11  N   UNL     1       3.373   4.465  18.654  0.00  0.00    +0.000 N 
ATOM     12  H   UNL     1       3.017   5.237  19.221  0.00  0.00    +0.000 HD
BRANCH  11  13
ATOM     13  S   UNL     1       3.636   3.123  19.654  0.00  0.00    +0.000 S 
ATOM     14  C   UNL     1       2.883   1.814  18.711  0.00  0.00    +0.000 C 
ATOM     15  O   UNL     1       5.051   2.864  19.786  0.00  0.00    +0.000 OA
ATOM     16  O   UNL     1       2.806   3.349  20.821  0.00  0.00    +0.000 OA
ENDBRANCH  11  13
ENDBRANCH   4  11
TORSDOF 3
ENDMDL
MODEL 8
REMARK VINA RESULT:      -5.6      3.504      5.062
REMARK  Name = 
REMARK  5 active torsions:
REMARK  status: ('A' for Active; 'I' for Inactive)
REMARK    1  A    between atoms: C_1  and  C_2
REMARK    2  A    between atoms: C_4  and  N_5
REMARK    3  A    between atoms: N_5  and  S_6
REMARK    4  A    between atoms: S_6  and  C_7
REMARK    5  A    between atoms: C_12  and  N_13
REMARK                            x       y       z     vdW  Elec       q    Type
REMARK                         _______ _______ _______ _____ _____    ______ ____
ROOT
ATOM      1  C   UNL     1       5.683   4.198  15.056  0.00  0.00    +0.000 C 
ATOM      2  C   UNL     1       5.280   4.270  16.503  0.00  0.00    +0.000 A 
ATOM      3  C   UNL     1       3.927   4.086  16.852  0.00  0.00    +0.000 A 
ATOM      4  C   UNL     1       3.520   4.195  18.181  0.00  0.00    +0.000 A 
ATOM      5  C   UNL     1       4.444   4.509  19.169  0.00  0.00    +0.000 A 
ATOM      6  C   UNL     1       5.786   4.691  18.831  0.00  0.00    +0.000 A 
ATOM      7  C   UNL     1       6.228   4.531  17.512  0.00  0.00    +0.000 A 
ENDROOT
BRANCH   7   8
ATOM      8  N   UNL     1       7.554   4.870  17.206  0.00  0.00    +0.000 N 
ATOM      9  H   UNL     1       8.236   4.181  17.502  0.00  0.00    +0.000 HD
ATOM     10  H   UNL     1       7.703   5.172  16.250  0.00  0.00    +0.000 HD
ENDBRANCH   7   8
BRANCH   4  11
ATOM     11  N   UNL     1       2.141   4.089  18.532  0.00  0.00    +0.000 N 
ATOM     12  H   UNL     1       1.797   4.806  19.172  0.00  0.00    +0.000 HD
BRANCH  11  13
ATOM     13  S   UNL     1       1.593   2.574  19.055  0.00  0.00    +0.000 S 
ATOM     14  C   UNL     1       1.401   2.841  20.805  0.00  0.00    +0.000 C 
ATOM     15  O   UNL     1       0.305   2.277  18.472  0.00  0.00    +0.000 OA
ATOM     16  O   UNL     1       2.719   1.678  18.873  0.00  0.00    +0.000 OA
ENDBRANCH  11  13
ENDBRANCH   4  11
TORSDOF 3
ENDMDL
MODEL 9
REMARK VINA RESULT:      -5.6      3.208      5.183
REMARK  Name = 
REMARK  5 active torsions:
REMARK  status: ('A' for Active; 'I' for Inactive)
REMARK    1  A    between atoms: C_1  and  C_2
REMARK    2  A    between atoms: C_4  and  N_5
REMARK    3  A    between atoms: N_5  and  S_6
REMARK    4  A    between atoms: S_6  and  C_7
REMARK    5  A    between atoms: C_12  and  N_13
REMARK                            x       y       z     vdW  Elec       q    Type
REMARK                         _______ _______ _______ _____ _____    ______ ____
ROOT
ATOM      1  C   UNL     1       7.661   5.990  18.600  0.00  0.00    +0.000 C 
ATOM      2  C   UNL     1       6.503   5.289  17.942  0.00  0.00    +0.000 A 
ATOM      3  C   UNL     1       5.444   4.812  18.739  0.00  0.00    +0.000 A 
ATOM      4  C   UNL     1       4.382   4.117  18.161  0.00  0.00    +0.000 A 
ATOM      5  C   UNL     1       4.375   3.870  16.793  0.00  0.00    +0.000 A 
ATOM      6  C   UNL     1       5.421   4.341  15.998  0.00  0.00    +0.000 A 
ATOM      7  C   UNL     1       6.469   5.090  16.549  0.00  0.00    +0.000 A 
ENDROOT
BRANCH   7   8
ATOM      8  N   UNL     1       7.563   5.407  15.731  0.00  0.00    +0.000 N 
ATOM      9  H   UNL     1       8.124   4.607  15.460  0.00  0.00    +0.000 HD
ATOM     10  H   UNL     1       7.341   6.005  14.943  0.00  0.00    +0.000 HD
ENDBRANCH   7   8
BRANCH   4  11
ATOM     11  N   UNL     1       3.346   3.563  18.970  0.00  0.00    +0.000 N 
ATOM     12  H   UNL     1       3.298   2.543  18.980  0.00  0.00    +0.000 HD
BRANCH  11  13
ATOM     13  S   UNL     1       1.785   4.185  18.757  0.00  0.00    +0.000 S 
ATOM     14  C   UNL     1       1.151   4.155  20.420  0.00  0.00    +0.000 C 
ATOM     15  O   UNL     1       1.847   5.552  18.294  0.00  0.00    +0.000 OA
ATOM     16  O   UNL     1       1.071   3.173  18.002  0.00  0.00    +0.000 OA
ENDBRANCH  11  13
ENDBRANCH   4  11
TORSDOF 3
ENDMDL
