MODEL 1
REMARK VINA RESULT:      -6.0      0.000      0.000
REMARK  Name = 
REMARK  15 active torsions:
REMARK  status: ('A' for Active; 'I' for Inactive)
REMARK    1  A    between atoms: C_1  and  C_2
REMARK    2  A    between atoms: C_2  and  C_3
REMARK    3  A    between atoms: C_3  and  C_4
REMARK    4  A    between atoms: C_4  and  C_5
REMARK    5  A    between atoms: C_5  and  C_6
REMARK    6  A    between atoms: C_6  and  C_7
REMARK    7  A    between atoms: C_7  and  C_8
REMARK    8  A    between atoms: C_8  and  C_9
REMARK    9  A    between atoms: C_9  and  C_10
REMARK   10  A    between atoms: C_10  and  C_11
REMARK   11  A    between atoms: C_11  and  C_12
REMARK   12  A    between atoms: C_12  and  C_13
REMARK   13  A    between atoms: C_13  and  C_14
REMARK   14  A    between atoms: C_14  and  C_16
REMARK   15  A    between atoms: C_17  and  O_18
REMARK                            x       y       z     vdW  Elec       q    Type
REMARK                         _______ _______ _______ _____ _____    ______ ____
ROOT
ATOM      1  C   UNL     1       4.725   7.275  16.373  0.00  0.00    +0.000 C 
ENDROOT
BRANCH   1   2
ATOM      2  C   UNL     1       3.504   7.038  17.249  0.00  0.00    +0.000 C 
BRANCH   2   3
ATOM      3  C   UNL     1       3.581   5.661  17.890  0.00  0.00    +0.000 C 
BRANCH   3   4
ATOM      4  C   UNL     1       3.618   5.784  19.404  0.00  0.00    +0.000 C 
BRANCH   4   5
ATOM      5  C   UNL     1       2.241   6.141  19.936  0.00  0.00    +0.000 C 
BRANCH   5   6
ATOM      6  C   UNL     1       1.885   5.247  21.110  0.00  0.00    +0.000 C 
BRANCH   6   7
ATOM      7  C   UNL     1       2.041   3.787  20.722  0.00  0.00    +0.000 C 
BRANCH   7   8
ATOM      8  C   UNL     1       0.693   3.198  20.346  0.00  0.00    +0.000 C 
BRANCH   8   9
ATOM      9  C   UNL     1       0.827   2.321  19.110  0.00  0.00    +0.000 C 
BRANCH   9  10
ATOM     10  C   UNL     1       1.635   3.039  18.040  0.00  0.00    +0.000 C 
BRANCH  10  12
ATOM     11  C   UNL     1       3.585   1.544  18.498  0.00  0.00    +0.000 C 
ATOM     12  C   UNL     1       2.670   2.104  17.427  0.00  0.00    +0.000 C 
ENDBRANCH  10  12
ENDBRANCH   9  10
ENDBRANCH   8   9
ENDBRANCH   7   8
ENDBRANCH   6   7
ENDBRANCH   5   6
ENDBRANCH   4   5
ENDBRANCH   3   4
ENDBRANCH   2   3
ENDBRANCH   1   2
BRANCH   1  13
ATOM     13  C   UNL     1       5.163   5.991  15.691  0.00  0.00    +0.000 C 
BRANCH  13  14
ATOM     14  C   UNL     1       6.645   5.725  15.904  0.00  0.00    +0.000 C 
ATOM     15  O   UNL     1       7.399   5.360  14.997  0.00  0.00    +0.000 OA
BRANCH  14  16
ATOM     16  C   UNL     1       7.192   5.932  17.257  0.00  0.00    +0.000 C 
ATOM     17  C   UNL     1       7.200   5.108  18.310  0.00  0.00    +0.000 C 
ATOM     18  C   UNL     1       7.864   5.728  19.473  0.00  0.00    +0.000 C 
ATOM     19  O   UNL     1       8.251   7.017  19.003  0.00  0.00    +0.000 OA
ATOM     20  C   UNL     1       7.863   7.149  17.711  0.00  0.00    +0.000 C 
ATOM     21  O   UNL     1       8.053   8.156  17.036  0.00  0.00    +0.000 OA
BRANCH  17  22
ATOM     22  O   UNL     1       6.729   3.828  18.430  0.00  0.00    +0.000 OA
ATOM     23  H   UNL     1       5.981   3.802  19.055  0.00  0.00    +0.000 HD
ENDBRANCH  17  22
ENDBRANCH  14  16
ENDBRANCH  13  14
ENDBRANCH   1  13
TORSDOF 14
ENDMDL
MODEL 2
REMARK VINA RESULT:      -5.9      3.028      6.318
REMARK  Name = 
REMARK  15 active torsions:
REMARK  status: ('A' for Active; 'I' for Inactive)
REMARK    1  A    between atoms: C_1  and  C_2
REMARK    2  A    between atoms: C_2  and  C_3
REMARK    3  A    between atoms: C_3  and  C_4
REMARK    4  A    between atoms: C_4  and  C_5
REMARK    5  A    between atoms: C_5  and  C_6
REMARK    6  A    between atoms: C_6  and  C_7
REMARK    7  A    between atoms: C_7  and  C_8
REMARK    8  A    between atoms: C_8  and  C_9
REMARK    9  A    between atoms: C_9  and  C_10
REMARK   10  A    between atoms: C_10  and  C_11
REMARK   11  A    between atoms: C_11  and  C_12
REMARK   12  A    between atoms: C_12  and  C_13
REMARK   13  A    between atoms: C_13  and  C_14
REMARK   14  A    between atoms: C_14  and  C_16
REMARK   15  A    between atoms: C_17  and  O_18
REMARK                            x       y       z     vdW  Elec       q    Type
REMARK                         _______ _______ _______ _____ _____    ______ ____
ROOT
ATOM      1  C   UNL     1       2.827   5.762  19.424  0.00  0.00    +0.000 C 
ENDROOT
BRANCH   1   2
ATOM      2  C   UNL     1       2.256   7.073  18.906  0.00  0.00    +0.000 C 
BRANCH   2   3
ATOM      3  C   UNL     1       3.157   7.642  17.821  0.00  0.00    +0.000 C 
BRANCH   3   4
ATOM      4  C   UNL     1       4.456   6.857  17.747  0.00  0.00    +0.000 C 
BRANCH   4   5
ATOM      5  C   UNL     1       4.799   6.547  16.299  0.00  0.00    +0.000 C 
BRANCH   5   6
ATOM      6  C   UNL     1       6.131   5.820  16.221  0.00  0.00    +0.000 C 
BRANCH   6   7
ATOM      7  C   UNL     1       5.915   4.380  15.790  0.00  0.00    +0.000 C 
BRANCH   7   8
ATOM      8  C   UNL     1       6.653   4.107  14.490  0.00  0.00    +0.000 C 
BRANCH   8   9
ATOM      9  C   UNL     1       5.664   3.945  13.347  0.00  0.00    +0.000 C 
BRANCH   9  10
ATOM     10  C   UNL     1       6.310   3.194  12.193  0.00  0.00    +0.000 C 
BRANCH  10  12
ATOM     11  C   UNL     1       3.989   3.253  11.268  0.00  0.00    +0.000 C 
ATOM     12  C   UNL     1       5.261   2.438  11.387  0.00  0.00    +0.000 C 
ENDBRANCH  10  12
ENDBRANCH   9  10
ENDBRANCH   8   9
ENDBRANCH   7   8
ENDBRANCH   6   7
ENDBRANCH   5   6
ENDBRANCH   4   5
ENDBRANCH   3   4
ENDBRANCH   2   3
ENDBRANCH   1   2
BRANCH   1  13
ATOM     13  C   UNL     1       2.125   5.328  20.699  0.00  0.00    +0.000 C 
BRANCH  13  14
ATOM     14  C   UNL     1       2.288   3.837  20.945  0.00  0.00    +0.000 C 
ATOM     15  O   UNL     1       2.125   3.317  22.053  0.00  0.00    +0.000 OA
BRANCH  14  16
ATOM     16  C   UNL     1       2.643   2.986  19.795  0.00  0.00    +0.000 C 
ATOM     17  C   UNL     1       1.927   2.674  18.711  0.00  0.00    +0.000 C 
ATOM     18  C   UNL     1       2.683   1.788  17.803  0.00  0.00    +0.000 C 
ATOM     19  O   UNL     1       3.931   1.601  18.465  0.00  0.00    +0.000 OA
ATOM     20  C   UNL     1       3.921   2.294  19.630  0.00  0.00    +0.000 C 
ATOM     21  O   UNL     1       4.857   2.321  20.422  0.00  0.00    +0.000 OA
BRANCH  17  22
ATOM     22  O   UNL     1       0.670   3.072  18.340  0.00  0.00    +0.000 OA
ATOM     23  H   UNL     1       0.135   3.273  19.129  0.00  0.00    +0.000 HD
ENDBRANCH  17  22
ENDBRANCH  14  16
ENDBRANCH  13  14
ENDBRANCH   1  13
TORSDOF 14
ENDMDL
MODEL 3
REMARK VINA RESULT:      -5.9      2.716      6.874
REMARK  Name = 
REMARK  15 active torsions:
REMARK  status: ('A' for Active; 'I' for Inactive)
REMARK    1  A    between atoms: C_1  and  C_2
REMARK    2  A    between atoms: C_2  and  C_3
REMARK    3  A    between atoms: C_3  and  C_4
REMARK    4  A    between atoms: C_4  and  C_5
REMARK    5  A    between atoms: C_5  and  C_6
REMARK    6  A    between atoms: C_6  and  C_7
REMARK    7  A    between atoms: C_7  and  C_8
REMARK    8  A    between atoms: C_8  and  C_9
REMARK    9  A    between atoms: C_9  and  C_10
REMARK   10  A    between atoms: C_10  and  C_11
REMARK   11  A    between atoms: C_11  and  C_12
REMARK   12  A    between atoms: C_12  and  C_13
REMARK   13  A    between atoms: C_13  and  C_14
REMARK   14  A    between atoms: C_14  and  C_16
REMARK   15  A    between atoms: C_17  and  O_18
REMARK                            x       y       z     vdW  Elec       q    Type
REMARK                         _______ _______ _______ _____ _____    ______ ____
ROOT
ATOM      1  C   UNL     1       2.909   5.943  19.856  0.00  0.00    +0.000 C 
ENDROOT
BRANCH   1   2
ATOM      2  C   UNL     1       2.643   6.075  18.364  0.00  0.00    +0.000 C 
BRANCH   2   3
ATOM      3  C   UNL     1       3.522   7.167  17.772  0.00  0.00    +0.000 C 
BRANCH   3   4
ATOM      4  C   UNL     1       4.555   6.564  16.835  0.00  0.00    +0.000 C 
BRANCH   4   5
ATOM      5  C   UNL     1       4.674   5.069  17.079  0.00  0.00    +0.000 C 
BRANCH   5   6
ATOM      6  C   UNL     1       6.004   4.751  17.741  0.00  0.00    +0.000 C 
BRANCH   6   7
ATOM      7  C   UNL     1       7.103   5.616  17.148  0.00  0.00    +0.000 C 
BRANCH   7   8
ATOM      8  C   UNL     1       7.441   6.756  18.094  0.00  0.00    +0.000 C 
BRANCH   8   9
ATOM      9  C   UNL     1       8.086   7.900  17.329  0.00  0.00    +0.000 C 
BRANCH   9  10
ATOM     10  C   UNL     1       7.802   9.224  18.022  0.00  0.00    +0.000 C 
BRANCH  10  12
ATOM     11  C   UNL     1       9.475  11.065  18.262  0.00  0.00    +0.000 C 
ATOM     12  C   UNL     1       9.030   9.711  18.779  0.00  0.00    +0.000 C 
ENDBRANCH  10  12
ENDBRANCH   9  10
ENDBRANCH   8   9
ENDBRANCH   7   8
ENDBRANCH   6   7
ENDBRANCH   5   6
ENDBRANCH   4   5
ENDBRANCH   3   4
ENDBRANCH   2   3
ENDBRANCH   1   2
BRANCH   1  13
ATOM     13  C   UNL     1       1.817   5.136  20.535  0.00  0.00    +0.000 C 
BRANCH  13  14
ATOM     14  C   UNL     1       2.282   3.722  20.847  0.00  0.00    +0.000 C 
ATOM     15  O   UNL     1       2.335   3.271  21.995  0.00  0.00    +0.000 OA
BRANCH  14  16
ATOM     16  C   UNL     1       2.668   2.861  19.715  0.00  0.00    +0.000 C 
ATOM     17  C   UNL     1       3.828   2.244  19.469  0.00  0.00    +0.000 C 
ATOM     18  C   UNL     1       3.771   1.474  18.211  0.00  0.00    +0.000 C 
ATOM     19  O   UNL     1       2.451   1.701  17.727  0.00  0.00    +0.000 OA
ATOM     20  C   UNL     1       1.796   2.510  18.595  0.00  0.00    +0.000 C 
ATOM     21  O   UNL     1       0.638   2.888  18.443  0.00  0.00    +0.000 OA
BRANCH  17  22
ATOM     22  O   UNL     1       4.981   2.209  20.207  0.00  0.00    +0.000 OA
ATOM     23  H   UNL     1       5.258   3.113  20.442  0.00  0.00    +0.000 HD
ENDBRANCH  17  22
ENDBRANCH  14  16
ENDBRANCH  13  14
ENDBRANCH   1  13
TORSDOF 14
ENDMDL
MODEL 4
REMARK VINA RESULT:      -5.9      3.101      6.176
REMARK  Name = 
REMARK  15 active torsions:
REMARK  status: ('A' for Active; 'I' for Inactive)
REMARK    1  A    between atoms: C_1  and  C_2
REMARK    2  A    between atoms: C_2  and  C_3
REMARK    3  A    between atoms: C_3  and  C_4
REMARK    4  A    between atoms: C_4  and  C_5
REMARK    5  A    between atoms: C_5  and  C_6
REMARK    6  A    between atoms: C_6  and  C_7
REMARK    7  A    between atoms: C_7  and  C_8
REMARK    8  A    between atoms: C_8  and  C_9
REMARK    9  A    between atoms: C_9  and  C_10
REMARK   10  A    between atoms: C_10  and  C_11
REMARK   11  A    between atoms: C_11  and  C_12
REMARK   12  A    between atoms: C_12  and  C_13
REMARK   13  A    between atoms: C_13  and  C_14
REMARK   14  A    between atoms: C_14  and  C_16
REMARK   15  A    between atoms: C_17  and  O_18
REMARK                            x       y       z     vdW  Elec       q    Type
REMARK                         _______ _______ _______ _____ _____    ______ ____
ROOT
ATOM      1  C   UNL     1       2.244   6.523  20.246  0.00  0.00    +0.000 C 
ENDROOT
BRANCH   1   2
ATOM      2  C   UNL     1       2.302   7.302  18.941  0.00  0.00    +0.000 C 
BRANCH   2   3
ATOM      3  C   UNL     1       2.831   6.412  17.826  0.00  0.00    +0.000 C 
BRANCH   3   4
ATOM      4  C   UNL     1       4.343   6.294  17.916  0.00  0.00    +0.000 C 
BRANCH   4   5
ATOM      5  C   UNL     1       4.922   5.934  16.558  0.00  0.00    +0.000 C 
BRANCH   5   6
ATOM      6  C   UNL     1       4.888   4.429  16.357  0.00  0.00    +0.000 C 
BRANCH   6   7
ATOM      7  C   UNL     1       6.197   3.952  15.751  0.00  0.00    +0.000 C 
BRANCH   7   8
ATOM      8  C   UNL     1       6.422   4.616  14.403  0.00  0.00    +0.000 C 
BRANCH   8   9
ATOM      9  C   UNL     1       5.459   4.052  13.371  0.00  0.00    +0.000 C 
BRANCH   9  10
ATOM     10  C   UNL     1       6.188   3.104  12.432  0.00  0.00    +0.000 C 
BRANCH  10  12
ATOM     11  C   UNL     1       3.915   3.311  11.414  0.00  0.00    +0.000 C 
ATOM     12  C   UNL     1       5.254   2.603  11.338  0.00  0.00    +0.000 C 
ENDBRANCH  10  12
ENDBRANCH   9  10
ENDBRANCH   8   9
ENDBRANCH   7   8
ENDBRANCH   6   7
ENDBRANCH   5   6
ENDBRANCH   4   5
ENDBRANCH   3   4
ENDBRANCH   2   3
ENDBRANCH   1   2
BRANCH   1  13
ATOM     13  C   UNL     1       1.446   5.242  20.081  0.00  0.00    +0.000 C 
BRANCH  13  14
ATOM     14  C   UNL     1       2.236   4.030  20.547  0.00  0.00    +0.000 C 
ATOM     15  O   UNL     1       2.500   3.815  21.734  0.00  0.00    +0.000 OA
BRANCH  14  16
ATOM     16  C   UNL     1       2.687   3.070  19.524  0.00  0.00    +0.000 C 
ATOM     17  C   UNL     1       3.762   2.275  19.513  0.00  0.00    +0.000 C 
ATOM     18  C   UNL     1       3.821   1.466  18.280  0.00  0.00    +0.000 C 
ATOM     19  O   UNL     1       2.665   1.867  17.549  0.00  0.00    +0.000 OA
ATOM     20  C   UNL     1       1.995   2.804  18.263  0.00  0.00    +0.000 C 
ATOM     21  O   UNL     1       0.959   3.345  17.887  0.00  0.00    +0.000 OA
BRANCH  17  22
ATOM     22  O   UNL     1       4.737   2.100  20.458  0.00  0.00    +0.000 OA
ATOM     23  H   UNL     1       5.485   2.702  20.286  0.00  0.00    +0.000 HD
ENDBRANCH  17  22
ENDBRANCH  14  16
ENDBRANCH  13  14
ENDBRANCH   1  13
TORSDOF 14
ENDMDL
MODEL 5
REMARK VINA RESULT:      -5.9      3.340      6.515
REMARK  Name = 
REMARK  15 active torsions:
REMARK  status: ('A' for Active; 'I' for Inactive)
REMARK    1  A    between atoms: C_1  and  C_2
REMARK    2  A    between atoms: C_2  and  C_3
REMARK    3  A    between atoms: C_3  and  C_4
REMARK    4  A    between atoms: C_4  and  C_5
REMARK    5  A    between atoms: C_5  and  C_6
REMARK    6  A    between atoms: C_6  and  C_7
REMARK    7  A    between atoms: C_7  and  C_8
REMARK    8  A    between atoms: C_8  and  C_9
REMARK    9  A    between atoms: C_9  and  C_10
REMARK   10  A    between atoms: C_10  and  C_11
REMARK   11  A    between atoms: C_11  and  C_12
REMARK   12  A    between atoms: C_12  and  C_13
REMARK   13  A    between atoms: C_13  and  C_14
REMARK   14  A    between atoms: C_14  and  C_16
REMARK   15  A    between atoms: C_17  and  O_18
REMARK                            x       y       z     vdW  Elec       q    Type
REMARK                         _______ _______ _______ _____ _____    ______ ____
ROOT
ATOM      1  C   UNL     1       2.707   5.995  18.111  0.00  0.00    +0.000 C 
ENDROOT
BRANCH   1   2
ATOM      2  C   UNL     1       3.705   7.053  17.664  0.00  0.00    +0.000 C 
BRANCH   2   3
ATOM      3  C   UNL     1       5.096   6.447  17.559  0.00  0.00    +0.000 C 
BRANCH   3   4
ATOM      4  C   UNL     1       5.325   5.887  16.165  0.00  0.00    +0.000 C 
BRANCH   4   5
ATOM      5  C   UNL     1       5.174   4.375  16.176  0.00  0.00    +0.000 C 
BRANCH   5   6
ATOM      6  C   UNL     1       5.702   3.787  14.879  0.00  0.00    +0.000 C 
BRANCH   6   7
ATOM      7  C   UNL     1       6.697   4.740  14.241  0.00  0.00    +0.000 C 
BRANCH   7   8
ATOM      8  C   UNL     1       6.979   4.320  12.808  0.00  0.00    +0.000 C 
BRANCH   8   9
ATOM      9  C   UNL     1       6.081   3.158  12.414  0.00  0.00    +0.000 C 
BRANCH   9  10
ATOM     10  C   UNL     1       5.352   3.471  11.116  0.00  0.00    +0.000 C 
BRANCH  10  12
ATOM     11  C   UNL     1       3.118   3.699  10.020  0.00  0.00    +0.000 C 
ATOM     12  C   UNL     1       3.847   3.315  11.292  0.00  0.00    +0.000 C 
ENDBRANCH  10  12
ENDBRANCH   9  10
ENDBRANCH   8   9
ENDBRANCH   7   8
ENDBRANCH   6   7
ENDBRANCH   5   6
ENDBRANCH   4   5
ENDBRANCH   3   4
ENDBRANCH   2   3
ENDBRANCH   1   2
BRANCH   1  13
ATOM     13  C   UNL     1       2.528   6.017  19.618  0.00  0.00    +0.000 C 
BRANCH  13  14
ATOM     14  C   UNL     1       2.499   4.612  20.196  0.00  0.00    +0.000 C 
ATOM     15  O   UNL     1       2.250   4.378  21.383  0.00  0.00    +0.000 OA
BRANCH  14  16
ATOM     16  C   UNL     1       2.770   3.488  19.283  0.00  0.00    +0.000 C 
ATOM     17  C   UNL     1       3.894   2.787  19.099  0.00  0.00    +0.000 C 
ATOM     18  C   UNL     1       3.713   1.738  18.078  0.00  0.00    +0.000 C 
ATOM     19  O   UNL     1       2.357   1.887  17.665  0.00  0.00    +0.000 OA
ATOM     20  C   UNL     1       1.795   2.907  18.360  0.00  0.00    +0.000 C 
ATOM     21  O   UNL     1       0.634   3.279  18.218  0.00  0.00    +0.000 OA
BRANCH  17  22
ATOM     22  O   UNL     1       5.108   2.891  19.724  0.00  0.00    +0.000 OA
ATOM     23  H   UNL     1       5.427   2.009  19.987  0.00  0.00    +0.000 HD
ENDBRANCH  17  22
ENDBRANCH  14  16
ENDBRANCH  13  14
ENDBRANCH   1  13
TORSDOF 14
ENDMDL
MODEL 6
REMARK VINA RESULT:      -5.8      1.938      4.087
REMARK  Name = 
REMARK  15 active torsions:
REMARK  status: ('A' for Active; 'I' for Inactive)
REMARK    1  A    between atoms: C_1  and  C_2
REMARK    2  A    between atoms: C_2  and  C_3
REMARK    3  A    between atoms: C_3  and  C_4
REMARK    4  A    between atoms: C_4  and  C_5
REMARK    5  A    between atoms: C_5  and  C_6
REMARK    6  A    between atoms: C_6  and  C_7
REMARK    7  A    between atoms: C_7  and  C_8
REMARK    8  A    between atoms: C_8  and  C_9
REMARK    9  A    between atoms: C_9  and  C_10
REMARK   10  A    between atoms: C_10  and  C_11
REMARK   11  A    between atoms: C_11  and  C_12
REMARK   12  A    between atoms: C_12  and  C_13
REMARK   13  A    between atoms: C_13  and  C_14
REMARK   14  A    between atoms: C_14  and  C_16
REMARK   15  A    between atoms: C_17  and  O_18
REMARK                            x       y       z     vdW  Elec       q    Type
REMARK                         _______ _______ _______ _____ _____    ______ ____
ROOT
ATOM      1  C   UNL     1       6.940   6.379  17.969  0.00  0.00    +0.000 C 
ENDROOT
BRANCH   1   2
ATOM      2  C   UNL     1       6.794   5.531  19.223  0.00  0.00    +0.000 C 
BRANCH   2   3
ATOM      3  C   UNL     1       5.406   4.909  19.273  0.00  0.00    +0.000 C 
BRANCH   3   4
ATOM      4  C   UNL     1       4.379   5.862  18.686  0.00  0.00    +0.000 C 
BRANCH   4   5
ATOM      5  C   UNL     1       3.433   5.110  17.765  0.00  0.00    +0.000 C 
BRANCH   5   6
ATOM      6  C   UNL     1       3.753   3.625  17.785  0.00  0.00    +0.000 C 
BRANCH   6   7
ATOM      7  C   UNL     1       2.501   2.817  17.493  0.00  0.00    +0.000 C 
BRANCH   7   8
ATOM      8  C   UNL     1       1.277   3.532  18.040  0.00  0.00    +0.000 C 
BRANCH   8   9
ATOM      9  C   UNL     1       0.964   3.040  19.444  0.00  0.00    +0.000 C 
BRANCH   9  10
ATOM     10  C   UNL     1       0.997   4.199  20.428  0.00  0.00    +0.000 C 
BRANCH  10  12
ATOM     11  C   UNL     1       2.826   2.741  21.309  0.00  0.00    +0.000 C 
ATOM     12  C   UNL     1       2.258   4.147  21.282  0.00  0.00    +0.000 C 
ENDBRANCH  10  12
ENDBRANCH   9  10
ENDBRANCH   8   9
ENDBRANCH   7   8
ENDBRANCH   6   7
ENDBRANCH   5   6
ENDBRANCH   4   5
ENDBRANCH   3   4
ENDBRANCH   2   3
ENDBRANCH   1   2
BRANCH   1  13
ATOM     13  C   UNL     1       7.302   5.521  16.770  0.00  0.00    +0.000 C 
BRANCH  13  14
ATOM     14  C   UNL     1       6.406   5.821  15.579  0.00  0.00    +0.000 C 
ATOM     15  O   UNL     1       5.522   6.682  15.605  0.00  0.00    +0.000 OA
BRANCH  14  16
ATOM     16  C   UNL     1       6.626   5.050  14.343  0.00  0.00    +0.000 C 
ATOM     17  C   UNL     1       7.619   5.130  13.452  0.00  0.00    +0.000 C 
ATOM     18  C   UNL     1       7.440   4.155  12.358  0.00  0.00    +0.000 C 
ATOM     19  O   UNL     1       6.228   3.483  12.690  0.00  0.00    +0.000 OA
ATOM     20  C   UNL     1       5.741   3.997  13.846  0.00  0.00    +0.000 C 
ATOM     21  O   UNL     1       4.702   3.622  14.381  0.00  0.00    +0.000 OA
BRANCH  17  22
ATOM     22  O   UNL     1       8.730   5.929  13.441  0.00  0.00    +0.000 OA
ATOM     23  H   UNL     1       9.177   5.896  14.307  0.00  0.00    +0.000 HD
ENDBRANCH  17  22
ENDBRANCH  14  16
ENDBRANCH  13  14
ENDBRANCH   1  13
TORSDOF 14
ENDMDL
MODEL 7
REMARK VINA RESULT:      -5.7      3.461      7.832
REMARK  Name = 
REMARK  15 active torsions:
REMARK  status: ('A' for Active; 'I' for Inactive)
REMARK    1  A    between atoms: C_1  and  C_2
REMARK    2  A    between atoms: C_2  and  C_3
REMARK    3  A    between atoms: C_3  and  C_4
REMARK    4  A    between atoms: C_4  and  C_5
REMARK    5  A    between atoms: C_5  and  C_6
REMARK    6  A    between atoms: C_6  and  C_7
REMARK    7  A    between atoms: C_7  and  C_8
REMARK    8  A    between atoms: C_8  and  C_9
REMARK    9  A    between atoms: C_9  and  C_10
REMARK   10  A    between atoms: C_10  and  C_11
REMARK   11  A    between atoms: C_11  and  C_12
REMARK   12  A    between atoms: C_12  and  C_13
REMARK   13  A    between atoms: C_13  and  C_14
REMARK   14  A    between atoms: C_14  and  C_16
REMARK   15  A    between atoms: C_17  and  O_18
REMARK                            x       y       z     vdW  Elec       q    Type
REMARK                         _______ _______ _______ _____ _____    ______ ____
ROOT
ATOM      1  C   UNL     1       4.608   4.231  17.068  0.00  0.00    +0.000 C 
ENDROOT
BRANCH   1   2
ATOM      2  C   UNL     1       4.393   5.693  17.429  0.00  0.00    +0.000 C 
BRANCH   2   3
ATOM      3  C   UNL     1       5.004   6.588  16.361  0.00  0.00    +0.000 C 
BRANCH   3   4
ATOM      4  C   UNL     1       6.168   7.377  16.935  0.00  0.00    +0.000 C 
BRANCH   4   5
ATOM      5  C   UNL     1       6.977   6.504  17.880  0.00  0.00    +0.000 C 
BRANCH   5   6
ATOM      6  C   UNL     1       8.133   7.297  18.465  0.00  0.00    +0.000 C 
BRANCH   6   7
ATOM      7  C   UNL     1       8.126   8.713  17.916  0.00  0.00    +0.000 C 
BRANCH   7   8
ATOM      8  C   UNL     1       8.879   9.642  18.853  0.00  0.00    +0.000 C 
BRANCH   8   9
ATOM      9  C   UNL     1       8.995  11.028  18.239  0.00  0.00    +0.000 C 
BRANCH   9  10
ATOM     10  C   UNL     1      10.408  11.263  17.729  0.00  0.00    +0.000 C 
BRANCH  10  12
ATOM     11  C   UNL     1      11.996  11.656  19.618  0.00  0.00    +0.000 C 
ATOM     12  C   UNL     1      11.118  12.314  18.572  0.00  0.00    +0.000 C 
ENDBRANCH  10  12
ENDBRANCH   9  10
ENDBRANCH   8   9
ENDBRANCH   7   8
ENDBRANCH   6   7
ENDBRANCH   5   6
ENDBRANCH   4   5
ENDBRANCH   3   4
ENDBRANCH   2   3
ENDBRANCH   1   2
BRANCH   1  13
ATOM     13  C   UNL     1       4.865   3.396  18.311  0.00  0.00    +0.000 C 
BRANCH  13  14
ATOM     14  C   UNL     1       3.730   2.419  18.569  0.00  0.00    +0.000 C 
ATOM     15  O   UNL     1       3.708   1.275  18.103  0.00  0.00    +0.000 OA
BRANCH  14  16
ATOM     16  C   UNL     1       2.621   2.867  19.429  0.00  0.00    +0.000 C 
ATOM     17  C   UNL     1       2.488   2.798  20.758  0.00  0.00    +0.000 C 
ATOM     18  C   UNL     1       1.206   3.378  21.201  0.00  0.00    +0.000 C 
ATOM     19  O   UNL     1       0.581   3.800  19.992  0.00  0.00    +0.000 OA
ATOM     20  C   UNL     1       1.396   3.506  18.949  0.00  0.00    +0.000 C 
ATOM     21  O   UNL     1       1.126   3.746  17.776  0.00  0.00    +0.000 OA
BRANCH  17  22
ATOM     22  O   UNL     1       3.352   2.317  21.705  0.00  0.00    +0.000 OA
ATOM     23  H   UNL     1       4.270   2.547  21.471  0.00  0.00    +0.000 HD
ENDBRANCH  17  22
ENDBRANCH  14  16
ENDBRANCH  13  14
ENDBRANCH   1  13
TORSDOF 14
ENDMDL
MODEL 8
REMARK VINA RESULT:      -5.7      4.047      5.731
REMARK  Name = 
REMARK  15 active torsions:
REMARK  status: ('A' for Active; 'I' for Inactive)
REMARK    1  A    between atoms: C_1  and  C_2
REMARK    2  A    between atoms: C_2  and  C_3
REMARK    3  A    between atoms: C_3  and  C_4
REMARK    4  A    between atoms: C_4  and  C_5
REMARK    5  A    between atoms: C_5  and  C_6
REMARK    6  A    between atoms: C_6  and  C_7
REMARK    7  A    between atoms: C_7  and  C_8
REMARK    8  A    between atoms: C_8  and  C_9
REMARK    9  A    between atoms: C_9  and  C_10
REMARK   10  A    between atoms: C_10  and  C_11
REMARK   11  A    between atoms: C_11  and  C_12
REMARK   12  A    between atoms: C_12  and  C_13
REMARK   13  A    between atoms: C_13  and  C_14
REMARK   14  A    between atoms: C_14  and  C_16
REMARK   15  A    between atoms: C_17  and  O_18
REMARK                            x       y       z     vdW  Elec       q    Type
REMARK                         _______ _______ _______ _____ _____    ______ ____
ROOT
ATOM      1  C   UNL     1       3.172   7.030  18.174  0.00  0.00    +0.000 C 
ENDROOT
BRANCH   1   2
ATOM      2  C   UNL     1       4.213   7.254  17.087  0.00  0.00    +0.000 C 
BRANCH   2   3
ATOM      3  C   UNL     1       5.395   6.320  17.297  0.00  0.00    +0.000 C 
BRANCH   3   4
ATOM      4  C   UNL     1       5.213   5.514  18.571  0.00  0.00    +0.000 C 
BRANCH   4   5
ATOM      5  C   UNL     1       5.402   4.034  18.287  0.00  0.00    +0.000 C 
BRANCH   5   6
ATOM      6  C   UNL     1       4.451   3.212  19.139  0.00  0.00    +0.000 C 
BRANCH   6   7
ATOM      7  C   UNL     1       3.536   2.385  18.252  0.00  0.00    +0.000 C 
BRANCH   7   8
ATOM      8  C   UNL     1       2.753   3.292  17.318  0.00  0.00    +0.000 C 
BRANCH   8   9
ATOM      9  C   UNL     1       1.517   3.830  18.021  0.00  0.00    +0.000 C 
BRANCH   9  10
ATOM     10  C   UNL     1       0.896   2.751  18.895  0.00  0.00    +0.000 C 
BRANCH  10  12
ATOM     11  C   UNL     1       1.390   4.606  20.495  0.00  0.00    +0.000 C 
ATOM     12  C   UNL     1       0.795   3.221  20.341  0.00  0.00    +0.000 C 
ENDBRANCH  10  12
ENDBRANCH   9  10
ENDBRANCH   8   9
ENDBRANCH   7   8
ENDBRANCH   6   7
ENDBRANCH   5   6
ENDBRANCH   4   5
ENDBRANCH   3   4
ENDBRANCH   2   3
ENDBRANCH   1   2
BRANCH   1  13
ATOM     13  C   UNL     1       1.846   7.667  17.798  0.00  0.00    +0.000 C 
BRANCH  13  14
ATOM     14  C   UNL     1       1.779   9.119  18.244  0.00  0.00    +0.000 C 
ATOM     15  O   UNL     1       2.383  10.027  17.666  0.00  0.00    +0.000 OA
BRANCH  14  16
ATOM     16  C   UNL     1       0.939   9.440  19.410  0.00  0.00    +0.000 C 
ATOM     17  C   UNL     1       0.998   8.970  20.661  0.00  0.00    +0.000 C 
ATOM     18  C   UNL     1      -0.044   9.576  21.513  0.00  0.00    +0.000 C 
ATOM     19  O   UNL     1      -0.738  10.459  20.635  0.00  0.00    +0.000 OA
ATOM     20  C   UNL     1      -0.175  10.388  19.404  0.00  0.00    +0.000 C 
ATOM     21  O   UNL     1      -0.561  11.032  18.433  0.00  0.00    +0.000 OA
BRANCH  17  22
ATOM     22  O   UNL     1       1.869   8.078  21.226  0.00  0.00    +0.000 OA
ATOM     23  H   UNL     1       2.187   7.447  20.555  0.00  0.00    +0.000 HD
ENDBRANCH  17  22
ENDBRANCH  14  16
ENDBRANCH  13  14
ENDBRANCH   1  13
TORSDOF 14
ENDMDL
MODEL 9
REMARK VINA RESULT:      -5.7      3.789      8.121
REMARK  Name = 
REMARK  15 active torsions:
REMARK  status: ('A' for Active; 'I' for Inactive)
REMARK    1  A    between atoms: C_1  and  C_2
REMARK    2  A    between atoms: C_2  and  C_3
REMARK    3  A    between atoms: C_3  and  C_4
REMARK    4  A    between atoms: C_4  and  C_5
REMARK    5  A    between atoms: C_5  and  C_6
REMARK    6  A    between atoms: C_6  and  C_7
REMARK    7  A    between atoms: C_7  and  C_8
REMARK    8  A    between atoms: C_8  and  C_9
REMARK    9  A    between atoms: C_9  and  C_10
REMARK   10  A    between atoms: C_10  and  C_11
REMARK   11  A    between atoms: C_11  and  C_12
REMARK   12  A    between atoms: C_12  and  C_13
REMARK   13  A    between atoms: C_13  and  C_14
REMARK   14  A    between atoms: C_14  and  C_16
REMARK   15  A    between atoms: C_17  and  O_18
REMARK                            x       y       z     vdW  Elec       q    Type
REMARK                         _______ _______ _______ _____ _____    ______ ____
ROOT
ATOM      1  C   UNL     1       4.830   5.194  19.147  0.00  0.00    +0.000 C 
ENDROOT
BRANCH   1   2
ATOM      2  C   UNL     1       5.034   6.156  17.987  0.00  0.00    +0.000 C 
BRANCH   2   3
ATOM      3  C   UNL     1       6.341   5.845  17.274  0.00  0.00    +0.000 C 
BRANCH   3   4
ATOM      4  C   UNL     1       7.511   6.460  18.022  0.00  0.00    +0.000 C 
BRANCH   4   5
ATOM      5  C   UNL     1       7.736   7.890  17.559  0.00  0.00    +0.000 C 
BRANCH   5   6
ATOM      6  C   UNL     1       8.598   8.636  18.563  0.00  0.00    +0.000 C 
BRANCH   6   7
ATOM      7  C   UNL     1       8.597  10.122  18.251  0.00  0.00    +0.000 C 
BRANCH   7   8
ATOM      8  C   UNL     1       9.886  10.761  18.740  0.00  0.00    +0.000 C 
BRANCH   8   9
ATOM      9  C   UNL     1       9.578  11.876  19.727  0.00  0.00    +0.000 C 
BRANCH   9  10
ATOM     10  C   UNL     1       9.138  11.294  21.061  0.00  0.00    +0.000 C 
BRANCH  10  12
ATOM     11  C   UNL     1       8.300  11.823  23.355  0.00  0.00    +0.000 C 
ATOM     12  C   UNL     1       8.646  12.393  21.994  0.00  0.00    +0.000 C 
ENDBRANCH  10  12
ENDBRANCH   9  10
ENDBRANCH   8   9
ENDBRANCH   7   8
ENDBRANCH   6   7
ENDBRANCH   5   6
ENDBRANCH   4   5
ENDBRANCH   3   4
ENDBRANCH   2   3
ENDBRANCH   1   2
BRANCH   1  13
ATOM     13  C   UNL     1       5.060   3.757  18.710  0.00  0.00    +0.000 C 
BRANCH  13  14
ATOM     14  C   UNL     1       4.385   2.774  19.652  0.00  0.00    +0.000 C 
ATOM     15  O   UNL     1       5.015   1.989  20.367  0.00  0.00    +0.000 OA
BRANCH  14  16
ATOM     16  C   UNL     1       2.913   2.781  19.713  0.00  0.00    +0.000 C 
ATOM     17  C   UNL     1       2.017   2.704  18.724  0.00  0.00    +0.000 C 
ATOM     18  C   UNL     1       0.636   2.742  19.244  0.00  0.00    +0.000 C 
ATOM     19  O   UNL     1       0.802   2.855  20.655  0.00  0.00    +0.000 OA
ATOM     20  C   UNL     1       2.127   2.880  20.942  0.00  0.00    +0.000 C 
ATOM     21  O   UNL     1       2.582   2.978  22.077  0.00  0.00    +0.000 OA
BRANCH  17  22
ATOM     22  O   UNL     1       2.204   2.568  17.374  0.00  0.00    +0.000 OA
ATOM     23  H   UNL     1       1.411   2.865  16.892  0.00  0.00    +0.000 HD
ENDBRANCH  17  22
ENDBRANCH  14  16
ENDBRANCH  13  14
ENDBRANCH   1  13
TORSDOF 14
ENDMDL
