MODEL 1
REMARK VINA RESULT:      -9.4      0.000      0.000
REMARK  Name = 
REMARK  4 active torsions:
REMARK  status: ('A' for Active; 'I' for Inactive)
REMARK    1  A    between atoms: C_2  and  O_3
REMARK    2  A    between atoms: C_2  and  C_11
REMARK    3  A    between atoms: O_3  and  C_4
REMARK    4  A    between atoms: C_15  and  C_16
REMARK                            x       y       z     vdW  Elec       q    Type
REMARK                         _______ _______ _______ _____ _____    ______ ____
ROOT
ATOM      1  C   UNL     1       5.843   5.272  16.938  0.00  0.00    +0.000 A 
ATOM      2  C   UNL     1       5.192   4.593  15.973  0.00  0.00    +0.000 A 
ATOM      3  C   UNL     1       5.788   4.405  14.658  0.00  0.00    +0.000 A 
ATOM      4  C   UNL     1       5.219   3.584  13.677  0.00  0.00    +0.000 A 
ATOM      5  C   UNL     1       5.834   3.429  12.419  0.00  0.00    +0.000 A 
ATOM      6  C   UNL     1       7.028   4.121  12.153  0.00  0.00    +0.000 A 
ATOM      7  C   UNL     1       7.603   4.934  13.131  0.00  0.00    +0.000 A 
ATOM      8  C   UNL     1       6.981   5.054  14.369  0.00  0.00    +0.000 A 
ATOM      9  O   UNL     1       7.627   5.821  15.353  0.00  0.00    +0.000 OA
ATOM     10  C   UNL     1       7.173   5.863  16.669  0.00  0.00    +0.000 A 
ATOM     11  O   UNL     1       7.865   6.374  17.541  0.00  0.00    +0.000 OA
ENDROOT
BRANCH   1  13
ATOM     12  O   UNL     1       5.767   5.155  19.322  0.00  0.00    +0.000 OA
ATOM     13  C   UNL     1       5.175   5.358  18.266  0.00  0.00    +0.000 C 
BRANCH  13  14
ATOM     14  O   UNL     1       3.830   5.674  18.138  0.00  0.00    +0.000 OA
BRANCH  14  15
ATOM     15  C   UNL     1       2.769   5.040  18.837  0.00  0.00    +0.000 A 
ATOM     16  C   UNL     1       2.286   5.477  20.070  0.00  0.00    +0.000 A 
ATOM     17  C   UNL     1       1.302   4.734  20.732  0.00  0.00    +0.000 A 
ATOM     18  C   UNL     1       0.807   3.562  20.160  0.00  0.00    +0.000 A 
ATOM     19  C   UNL     1       1.291   3.146  18.923  0.00  0.00    +0.000 A 
ATOM     20  F   UNL     1       0.808   2.023  18.376  0.00  0.00    +0.000 F 
ATOM     21  C   UNL     1       2.273   3.871  18.256  0.00  0.00    +0.000 A 
ENDBRANCH  14  15
ENDBRANCH  13  14
ENDBRANCH   1  13
BRANCH   5  22
ATOM     22  C   UNL     1       5.251   2.496  11.385  0.00  0.00    +0.000 C 
ATOM     23 CL   UNL     1       3.671   3.067  10.811  0.00  0.00    +0.000 Cl
ENDBRANCH   5  22
TORSDOF 4
ENDMDL
MODEL 2
REMARK VINA RESULT:      -9.3      1.221      1.525
REMARK  Name = 
REMARK  4 active torsions:
REMARK  status: ('A' for Active; 'I' for Inactive)
REMARK    1  A    between atoms: C_2  and  O_3
REMARK    2  A    between atoms: C_2  and  C_11
REMARK    3  A    between atoms: O_3  and  C_4
REMARK    4  A    between atoms: C_15  and  C_16
REMARK                            x       y       z     vdW  Elec       q    Type
REMARK                         _______ _______ _______ _____ _____    ______ ____
ROOT
ATOM      1  C   UNL     1       5.995   5.017  17.055  0.00  0.00    +0.000 A 
ATOM      2  C   UNL     1       5.380   4.295  16.099  0.00  0.00    +0.000 A 
ATOM      3  C   UNL     1       5.919   4.231  14.747  0.00  0.00    +0.000 A 
ATOM      4  C   UNL     1       5.401   3.378  13.764  0.00  0.00    +0.000 A 
ATOM      5  C   UNL     1       5.958   3.347  12.470  0.00  0.00    +0.000 A 
ATOM      6  C   UNL     1       7.037   4.196  12.170  0.00  0.00    +0.000 A 
ATOM      7  C   UNL     1       7.561   5.042  13.149  0.00  0.00    +0.000 A 
ATOM      8  C   UNL     1       7.001   5.038  14.423  0.00  0.00    +0.000 A 
ATOM      9  O   UNL     1       7.602   5.846  15.402  0.00  0.00    +0.000 OA
ATOM     10  C   UNL     1       7.222   5.783  16.741  0.00  0.00    +0.000 A 
ATOM     11  O   UNL     1       7.895   6.348  17.596  0.00  0.00    +0.000 OA
ENDROOT
BRANCH   1  13
ATOM     12  O   UNL     1       6.046   4.661  19.417  0.00  0.00    +0.000 OA
ATOM     13  C   UNL     1       5.400   4.972  18.420  0.00  0.00    +0.000 C 
BRANCH  13  14
ATOM     14  O   UNL     1       4.052   5.302  18.397  0.00  0.00    +0.000 OA
BRANCH  14  15
ATOM     15  C   UNL     1       2.994   4.455  18.820  0.00  0.00    +0.000 A 
ATOM     16  C   UNL     1       2.088   3.856  17.947  0.00  0.00    +0.000 A 
ATOM     17  C   UNL     1       1.019   3.113  18.459  0.00  0.00    +0.000 A 
ATOM     18  C   UNL     1       0.862   2.972  19.838  0.00  0.00    +0.000 A 
ATOM     19  C   UNL     1       1.782   3.566  20.696  0.00  0.00    +0.000 A 
ATOM     20  F   UNL     1       1.629   3.424  22.019  0.00  0.00    +0.000 F 
ATOM     21  C   UNL     1       2.847   4.313  20.202  0.00  0.00    +0.000 A 
ENDBRANCH  14  15
ENDBRANCH  13  14
ENDBRANCH   1  13
BRANCH   5  22
ATOM     22  C   UNL     1       5.438   2.385  11.430  0.00  0.00    +0.000 C 
ATOM     23 CL   UNL     1       6.679   1.208  10.953  0.00  0.00    +0.000 Cl
ENDBRANCH   5  22
TORSDOF 4
ENDMDL
MODEL 3
REMARK VINA RESULT:      -9.2      1.293      1.578
REMARK  Name = 
REMARK  4 active torsions:
REMARK  status: ('A' for Active; 'I' for Inactive)
REMARK    1  A    between atoms: C_2  and  O_3
REMARK    2  A    between atoms: C_2  and  C_11
REMARK    3  A    between atoms: O_3  and  C_4
REMARK    4  A    between atoms: C_15  and  C_16
REMARK                            x       y       z     vdW  Elec       q    Type
REMARK                         _______ _______ _______ _____ _____    ______ ____
ROOT
ATOM      1  C   UNL     1       5.868   4.786  17.305  0.00  0.00    +0.000 A 
ATOM      2  C   UNL     1       5.262   4.172  16.270  0.00  0.00    +0.000 A 
ATOM      3  C   UNL     1       5.852   4.192  14.939  0.00  0.00    +0.000 A 
ATOM      4  C   UNL     1       5.339   3.446  13.871  0.00  0.00    +0.000 A 
ATOM      5  C   UNL     1       5.946   3.492  12.600  0.00  0.00    +0.000 A 
ATOM      6  C   UNL     1       7.073   4.311  12.412  0.00  0.00    +0.000 A 
ATOM      7  C   UNL     1       7.593   5.050  13.476  0.00  0.00    +0.000 A 
ATOM      8  C   UNL     1       6.981   4.970  14.723  0.00  0.00    +0.000 A 
ATOM      9  O   UNL     1       7.576   5.668  15.787  0.00  0.00    +0.000 OA
ATOM     10  C   UNL     1       7.139   5.516  17.101  0.00  0.00    +0.000 A 
ATOM     11  O   UNL     1       7.800   5.979  18.024  0.00  0.00    +0.000 OA
ENDROOT
BRANCH   1  13
ATOM     12  O   UNL     1       5.191   5.574  19.456  0.00  0.00    +0.000 OA
ATOM     13  C   UNL     1       5.216   4.660  18.638  0.00  0.00    +0.000 C 
BRANCH  13  14
ATOM     14  O   UNL     1       4.676   3.394  18.820  0.00  0.00    +0.000 OA
BRANCH  14  15
ATOM     15  C   UNL     1       3.313   3.119  19.108  0.00  0.00    +0.000 A 
ATOM     16  C   UNL     1       2.312   3.078  18.138  0.00  0.00    +0.000 A 
ATOM     17  C   UNL     1       0.980   2.893  18.524  0.00  0.00    +0.000 A 
ATOM     18  C   UNL     1       0.655   2.750  19.873  0.00  0.00    +0.000 A 
ATOM     19  C   UNL     1       1.668   2.780  20.827  0.00  0.00    +0.000 A 
ATOM     20  F   UNL     1       1.352   2.636  22.121  0.00  0.00    +0.000 F 
ATOM     21  C   UNL     1       2.996   2.968  20.460  0.00  0.00    +0.000 A 
ENDBRANCH  14  15
ENDBRANCH  13  14
ENDBRANCH   1  13
BRANCH   5  22
ATOM     22  C   UNL     1       5.428   2.641  11.467  0.00  0.00    +0.000 C 
ATOM     23 CL   UNL     1       3.789   3.126  10.984  0.00  0.00    +0.000 Cl
ENDBRANCH   5  22
TORSDOF 4
ENDMDL
MODEL 4
REMARK VINA RESULT:      -8.9      1.249      1.694
REMARK  Name = 
REMARK  4 active torsions:
REMARK  status: ('A' for Active; 'I' for Inactive)
REMARK    1  A    between atoms: C_2  and  O_3
REMARK    2  A    between atoms: C_2  and  C_11
REMARK    3  A    between atoms: O_3  and  C_4
REMARK    4  A    between atoms: C_15  and  C_16
REMARK                            x       y       z     vdW  Elec       q    Type
REMARK                         _______ _______ _______ _____ _____    ______ ____
ROOT
ATOM      1  C   UNL     1       5.689   5.349  16.726  0.00  0.00    +0.000 A 
ATOM      2  C   UNL     1       5.076   4.650  15.751  0.00  0.00    +0.000 A 
ATOM      3  C   UNL     1       5.744   4.389  14.483  0.00  0.00    +0.000 A 
ATOM      4  C   UNL     1       5.209   3.546  13.503  0.00  0.00    +0.000 A 
ATOM      5  C   UNL     1       5.894   3.319  12.292  0.00  0.00    +0.000 A 
ATOM      6  C   UNL     1       7.124   3.963  12.073  0.00  0.00    +0.000 A 
ATOM      7  C   UNL     1       7.665   4.799  13.052  0.00  0.00    +0.000 A 
ATOM      8  C   UNL     1       6.973   4.990  14.244  0.00  0.00    +0.000 A 
ATOM      9  O   UNL     1       7.584   5.776  15.234  0.00  0.00    +0.000 OA
ATOM     10  C   UNL     1       7.052   5.887  16.516  0.00  0.00    +0.000 A 
ATOM     11  O   UNL     1       7.707   6.413  17.409  0.00  0.00    +0.000 OA
ENDROOT
BRANCH   1  13
ATOM     12  O   UNL     1       4.566   6.602  18.421  0.00  0.00    +0.000 OA
ATOM     13  C   UNL     1       4.946   5.511  18.006  0.00  0.00    +0.000 C 
BRANCH  13  14
ATOM     14  O   UNL     1       4.768   4.293  18.648  0.00  0.00    +0.000 OA
BRANCH  14  15
ATOM     15  C   UNL     1       3.524   3.631  18.818  0.00  0.00    +0.000 A 
ATOM     16  C   UNL     1       3.179   2.452  18.158  0.00  0.00    +0.000 A 
ATOM     17  C   UNL     1       1.895   1.920  18.313  0.00  0.00    +0.000 A 
ATOM     18  C   UNL     1       0.963   2.568  19.125  0.00  0.00    +0.000 A 
ATOM     19  C   UNL     1       1.326   3.736  19.787  0.00  0.00    +0.000 A 
ATOM     20  F   UNL     1       0.430   4.351  20.569  0.00  0.00    +0.000 F 
ATOM     21  C   UNL     1       2.598   4.280  19.638  0.00  0.00    +0.000 A 
ENDBRANCH  14  15
ENDBRANCH  13  14
ENDBRANCH   1  13
BRANCH   5  22
ATOM     22  C   UNL     1       5.344   2.363  11.263  0.00  0.00    +0.000 C 
ATOM     23 CL   UNL     1       6.446   0.998  10.986  0.00  0.00    +0.000 Cl
ENDBRANCH   5  22
TORSDOF 4
ENDMDL
MODEL 5
REMARK VINA RESULT:      -8.8      0.996      1.042
REMARK  Name = 
REMARK  4 active torsions:
REMARK  status: ('A' for Active; 'I' for Inactive)
REMARK    1  A    between atoms: C_2  and  O_3
REMARK    2  A    between atoms: C_2  and  C_11
REMARK    3  A    between atoms: O_3  and  C_4
REMARK    4  A    between atoms: C_15  and  C_16
REMARK                            x       y       z     vdW  Elec       q    Type
REMARK                         _______ _______ _______ _____ _____    ______ ____
ROOT
ATOM      1  C   UNL     1       5.867   4.872  17.239  0.00  0.00    +0.000 A 
ATOM      2  C   UNL     1       5.245   4.241  16.223  0.00  0.00    +0.000 A 
ATOM      3  C   UNL     1       5.826   4.219  14.888  0.00  0.00    +0.000 A 
ATOM      4  C   UNL     1       5.294   3.454  13.843  0.00  0.00    +0.000 A 
ATOM      5  C   UNL     1       5.893   3.460  12.567  0.00  0.00    +0.000 A 
ATOM      6  C   UNL     1       7.031   4.257  12.350  0.00  0.00    +0.000 A 
ATOM      7  C   UNL     1       7.568   5.014  13.392  0.00  0.00    +0.000 A 
ATOM      8  C   UNL     1       6.965   4.975  14.645  0.00  0.00    +0.000 A 
ATOM      9  O   UNL     1       7.577   5.690  15.687  0.00  0.00    +0.000 OA
ATOM     10  C   UNL     1       7.147   5.578  17.008  0.00  0.00    +0.000 A 
ATOM     11  O   UNL     1       7.821   6.053  17.915  0.00  0.00    +0.000 OA
ENDROOT
BRANCH   1  13
ATOM     12  O   UNL     1       5.225   5.720  19.377  0.00  0.00    +0.000 OA
ATOM     13  C   UNL     1       5.222   4.788  18.578  0.00  0.00    +0.000 C 
BRANCH  13  14
ATOM     14  O   UNL     1       4.654   3.539  18.791  0.00  0.00    +0.000 OA
BRANCH  14  15
ATOM     15  C   UNL     1       3.422   3.303  19.454  0.00  0.00    +0.000 A 
ATOM     16  C   UNL     1       3.263   3.372  20.837  0.00  0.00    +0.000 A 
ATOM     17  C   UNL     1       2.033   3.031  21.412  0.00  0.00    +0.000 A 
ATOM     18  C   UNL     1       0.972   2.623  20.603  0.00  0.00    +0.000 A 
ATOM     19  C   UNL     1       1.143   2.570  19.224  0.00  0.00    +0.000 A 
ATOM     20  F   UNL     1       0.120   2.183  18.452  0.00  0.00    +0.000 F 
ATOM     21  C   UNL     1       2.361   2.902  18.638  0.00  0.00    +0.000 A 
ENDBRANCH  14  15
ENDBRANCH  13  14
ENDBRANCH   1  13
BRANCH   5  22
ATOM     22  C   UNL     1       5.354   2.589  11.458  0.00  0.00    +0.000 C 
ATOM     23 CL   UNL     1       3.743   3.122  10.936  0.00  0.00    +0.000 Cl
ENDBRANCH   5  22
TORSDOF 4
ENDMDL
MODEL 6
REMARK VINA RESULT:      -8.7      0.916      1.349
REMARK  Name = 
REMARK  4 active torsions:
REMARK  status: ('A' for Active; 'I' for Inactive)
REMARK    1  A    between atoms: C_2  and  O_3
REMARK    2  A    between atoms: C_2  and  C_11
REMARK    3  A    between atoms: O_3  and  C_4
REMARK    4  A    between atoms: C_15  and  C_16
REMARK                            x       y       z     vdW  Elec       q    Type
REMARK                         _______ _______ _______ _____ _____    ______ ____
ROOT
ATOM      1  C   UNL     1       6.088   4.938  17.057  0.00  0.00    +0.000 A 
ATOM      2  C   UNL     1       5.441   4.261  16.089  0.00  0.00    +0.000 A 
ATOM      3  C   UNL     1       5.953   4.232  14.726  0.00  0.00    +0.000 A 
ATOM      4  C   UNL     1       5.399   3.425  13.725  0.00  0.00    +0.000 A 
ATOM      5  C   UNL     1       5.931   3.426  12.419  0.00  0.00    +0.000 A 
ATOM      6  C   UNL     1       7.023   4.261  12.128  0.00  0.00    +0.000 A 
ATOM      7  C   UNL     1       7.583   5.062  13.126  0.00  0.00    +0.000 A 
ATOM      8  C   UNL     1       7.047   5.026  14.409  0.00  0.00    +0.000 A 
ATOM      9  O   UNL     1       7.683   5.787  15.403  0.00  0.00    +0.000 OA
ATOM     10  C   UNL     1       7.326   5.687  16.746  0.00  0.00    +0.000 A 
ATOM     11  O   UNL     1       8.026   6.208  17.607  0.00  0.00    +0.000 OA
ENDROOT
BRANCH   1  13
ATOM     12  O   UNL     1       6.182   4.530  19.409  0.00  0.00    +0.000 OA
ATOM     13  C   UNL     1       5.517   4.858  18.430  0.00  0.00    +0.000 C 
BRANCH  13  14
ATOM     14  O   UNL     1       4.167   5.181  18.438  0.00  0.00    +0.000 OA
BRANCH  14  15
ATOM     15  C   UNL     1       3.115   4.293  18.784  0.00  0.00    +0.000 A 
ATOM     16  C   UNL     1       3.016   2.988  18.303  0.00  0.00    +0.000 A 
ATOM     17  C   UNL     1       1.894   2.215  18.621  0.00  0.00    +0.000 A 
ATOM     18  C   UNL     1       0.880   2.748  19.416  0.00  0.00    +0.000 A 
ATOM     19  C   UNL     1       0.999   4.048  19.899  0.00  0.00    +0.000 A 
ATOM     20  F   UNL     1       0.025   4.553  20.666  0.00  0.00    +0.000 F 
ATOM     21  C   UNL     1       2.106   4.830  19.586  0.00  0.00    +0.000 A 
ENDBRANCH  14  15
ENDBRANCH  13  14
ENDBRANCH   1  13
BRANCH   5  22
ATOM     22  C   UNL     1       5.371   2.511  11.358  0.00  0.00    +0.000 C 
ATOM     23 CL   UNL     1       3.740   3.007  10.864  0.00  0.00    +0.000 Cl
ENDBRANCH   5  22
TORSDOF 4
ENDMDL
MODEL 7
REMARK VINA RESULT:      -8.6      2.018      2.550
REMARK  Name = 
REMARK  4 active torsions:
REMARK  status: ('A' for Active; 'I' for Inactive)
REMARK    1  A    between atoms: C_2  and  O_3
REMARK    2  A    between atoms: C_2  and  C_11
REMARK    3  A    between atoms: O_3  and  C_4
REMARK    4  A    between atoms: C_15  and  C_16
REMARK                            x       y       z     vdW  Elec       q    Type
REMARK                         _______ _______ _______ _____ _____    ______ ____
ROOT
ATOM      1  C   UNL     1       5.739   5.313  17.116  0.00  0.00    +0.000 A 
ATOM      2  C   UNL     1       5.134   4.620  16.132  0.00  0.00    +0.000 A 
ATOM      3  C   UNL     1       5.772   4.453  14.833  0.00  0.00    +0.000 A 
ATOM      4  C   UNL     1       5.252   3.621  13.835  0.00  0.00    +0.000 A 
ATOM      5  C   UNL     1       5.906   3.487  12.593  0.00  0.00    +0.000 A 
ATOM      6  C   UNL     1       7.088   4.211  12.363  0.00  0.00    +0.000 A 
ATOM      7  C   UNL     1       7.614   5.036  13.359  0.00  0.00    +0.000 A 
ATOM      8  C   UNL     1       6.954   5.135  14.580  0.00  0.00    +0.000 A 
ATOM      9  O   UNL     1       7.552   5.914  15.583  0.00  0.00    +0.000 OA
ATOM     10  C   UNL     1       7.060   5.940  16.886  0.00  0.00    +0.000 A 
ATOM     11  O   UNL     1       7.715   6.466  17.779  0.00  0.00    +0.000 OA
ENDROOT
BRANCH   1  13
ATOM     12  O   UNL     1       5.620   5.309  19.502  0.00  0.00    +0.000 OA
ATOM     13  C   UNL     1       5.033   5.377  18.426  0.00  0.00    +0.000 C 
BRANCH  13  14
ATOM     14  O   UNL     1       3.661   5.502  18.257  0.00  0.00    +0.000 OA
BRANCH  14  15
ATOM     15  C   UNL     1       2.903   6.666  18.550  0.00  0.00    +0.000 A 
ATOM     16  C   UNL     1       2.752   7.733  17.665  0.00  0.00    +0.000 A 
ATOM     17  C   UNL     1       2.065   8.881  18.075  0.00  0.00    +0.000 A 
ATOM     18  C   UNL     1       1.533   8.957  19.362  0.00  0.00    +0.000 A 
ATOM     19  C   UNL     1       1.682   7.879  20.229  0.00  0.00    +0.000 A 
ATOM     20  F   UNL     1       1.165   7.955  21.462  0.00  0.00    +0.000 F 
ATOM     21  C   UNL     1       2.367   6.733  19.838  0.00  0.00    +0.000 A 
ENDBRANCH  14  15
ENDBRANCH  13  14
ENDBRANCH   1  13
BRANCH   5  22
ATOM     22  C   UNL     1       5.377   2.543  11.541  0.00  0.00    +0.000 C 
ATOM     23 CL   UNL     1       3.807   3.083  10.912  0.00  0.00    +0.000 Cl
ENDBRANCH   5  22
TORSDOF 4
ENDMDL
MODEL 8
REMARK VINA RESULT:      -8.6      1.193      1.338
REMARK  Name = 
REMARK  4 active torsions:
REMARK  status: ('A' for Active; 'I' for Inactive)
REMARK    1  A    between atoms: C_2  and  O_3
REMARK    2  A    between atoms: C_2  and  C_11
REMARK    3  A    between atoms: O_3  and  C_4
REMARK    4  A    between atoms: C_15  and  C_16
REMARK                            x       y       z     vdW  Elec       q    Type
REMARK                         _______ _______ _______ _____ _____    ______ ____
ROOT
ATOM      1  C   UNL     1       5.832   5.340  16.788  0.00  0.00    +0.000 A 
ATOM      2  C   UNL     1       5.201   4.649  15.818  0.00  0.00    +0.000 A 
ATOM      3  C   UNL     1       5.835   4.423  14.527  0.00  0.00    +0.000 A 
ATOM      4  C   UNL     1       5.283   3.588  13.547  0.00  0.00    +0.000 A 
ATOM      5  C   UNL     1       5.935   3.396  12.312  0.00  0.00    +0.000 A 
ATOM      6  C   UNL     1       7.147   4.064  12.068  0.00  0.00    +0.000 A 
ATOM      7  C   UNL     1       7.704   4.891  13.046  0.00  0.00    +0.000 A 
ATOM      8  C   UNL     1       7.046   5.048  14.261  0.00  0.00    +0.000 A 
ATOM      9  O   UNL     1       7.673   5.827  15.247  0.00  0.00    +0.000 OA
ATOM     10  C   UNL     1       7.179   5.905  16.547  0.00  0.00    +0.000 A 
ATOM     11  O   UNL     1       7.852   6.426  17.429  0.00  0.00    +0.000 OA
ENDROOT
BRANCH   1  13
ATOM     12  O   UNL     1       5.715   5.650  19.153  0.00  0.00    +0.000 OA
ATOM     13  C   UNL     1       5.126   5.467  18.092  0.00  0.00    +0.000 C 
BRANCH  13  14
ATOM     14  O   UNL     1       3.752   5.333  17.941  0.00  0.00    +0.000 OA
BRANCH  14  15
ATOM     15  C   UNL     1       2.986   4.218  18.368  0.00  0.00    +0.000 A 
ATOM     16  C   UNL     1       1.723   4.325  18.951  0.00  0.00    +0.000 A 
ATOM     17  C   UNL     1       1.080   3.178  19.429  0.00  0.00    +0.000 A 
ATOM     18  C   UNL     1       1.700   1.933  19.323  0.00  0.00    +0.000 A 
ATOM     19  C   UNL     1       2.954   1.841  18.728  0.00  0.00    +0.000 A 
ATOM     20  F   UNL     1       3.543   0.642  18.624  0.00  0.00    +0.000 F 
ATOM     21  C   UNL     1       3.608   2.973  18.252  0.00  0.00    +0.000 A 
ENDBRANCH  14  15
ENDBRANCH  13  14
ENDBRANCH   1  13
BRANCH   5  22
ATOM     22  C   UNL     1       5.370   2.449  11.282  0.00  0.00    +0.000 C 
ATOM     23 CL   UNL     1       6.418   1.035  11.051  0.00  0.00    +0.000 Cl
ENDBRANCH   5  22
TORSDOF 4
ENDMDL
MODEL 9
REMARK VINA RESULT:      -8.6      1.178      1.409
REMARK  Name = 
REMARK  4 active torsions:
REMARK  status: ('A' for Active; 'I' for Inactive)
REMARK    1  A    between atoms: C_2  and  O_3
REMARK    2  A    between atoms: C_2  and  C_11
REMARK    3  A    between atoms: O_3  and  C_4
REMARK    4  A    between atoms: C_15  and  C_16
REMARK                            x       y       z     vdW  Elec       q    Type
REMARK                         _______ _______ _______ _____ _____    ______ ____
ROOT
ATOM      1  C   UNL     1       5.426   5.911  16.735  0.00  0.00    +0.000 A 
ATOM      2  C   UNL     1       4.839   5.217  15.741  0.00  0.00    +0.000 A 
ATOM      3  C   UNL     1       5.610   4.753  14.596  0.00  0.00    +0.000 A 
ATOM      4  C   UNL     1       5.078   3.905  13.617  0.00  0.00    +0.000 A 
ATOM      5  C   UNL     1       5.864   3.478  12.528  0.00  0.00    +0.000 A 
ATOM      6  C   UNL     1       7.192   3.924  12.427  0.00  0.00    +0.000 A 
ATOM      7  C   UNL     1       7.729   4.764  13.405  0.00  0.00    +0.000 A 
ATOM      8  C   UNL     1       6.933   5.155  14.478  0.00  0.00    +0.000 A 
ATOM      9  O   UNL     1       7.529   5.938  15.481  0.00  0.00    +0.000 OA
ATOM     10  C   UNL     1       6.868   6.237  16.670  0.00  0.00    +0.000 A 
ATOM     11  O   UNL     1       7.481   6.747  17.601  0.00  0.00    +0.000 OA
ENDROOT
BRANCH   1  13
ATOM     12  O   UNL     1       3.966   7.359  17.951  0.00  0.00    +0.000 OA
ATOM     13  C   UNL     1       4.565   6.290  17.890  0.00  0.00    +0.000 C 
BRANCH  13  14
ATOM     14  O   UNL     1       4.555   5.299  18.862  0.00  0.00    +0.000 OA
BRANCH  14  15
ATOM     15  C   UNL     1       3.607   4.245  18.947  0.00  0.00    +0.000 A 
ATOM     16  C   UNL     1       2.297   4.419  19.393  0.00  0.00    +0.000 A 
ATOM     17  C   UNL     1       1.460   3.307  19.535  0.00  0.00    +0.000 A 
ATOM     18  C   UNL     1       1.934   2.030  19.230  0.00  0.00    +0.000 A 
ATOM     19  C   UNL     1       3.240   1.876  18.775  0.00  0.00    +0.000 A 
ATOM     20  F   UNL     1       3.688   0.649  18.479  0.00  0.00    +0.000 F 
ATOM     21  C   UNL     1       4.086   2.971  18.634  0.00  0.00    +0.000 A 
ENDBRANCH  14  15
ENDBRANCH  13  14
ENDBRANCH   1  13
BRANCH   5  22
ATOM     22  C   UNL     1       5.307   2.516  11.507  0.00  0.00    +0.000 C 
ATOM     23 CL   UNL     1       3.741   3.067  10.877  0.00  0.00    +0.000 Cl
ENDBRANCH   5  22
TORSDOF 4
ENDMDL
