MODEL 1
REMARK VINA RESULT:      -7.5      0.000      0.000
REMARK  Name = 
REMARK  14 active torsions:
REMARK  status: ('A' for Active; 'I' for Inactive)
REMARK    1  A    between atoms: C_1  and  C_2
REMARK    2  A    between atoms: C_2  and  C_3
REMARK    3  A    between atoms: C_3  and  C_4
REMARK    4  A    between atoms: C_3  and  C_5
REMARK    5  A    between atoms: C_5  and  C_7
REMARK    6  A    between atoms: C_8  and  O_9
REMARK    7  A    between atoms: C_14  and  C_15
REMARK    8  A    between atoms: C_15  and  C_17
REMARK    9  A    between atoms: C_17  and  C_18
REMARK   10  A    between atoms: C_17  and  C_19
REMARK   11  A    between atoms: C_19  and  C_20
REMARK   12  A    between atoms: C_21  and  O_22
REMARK   13  A    between atoms: C_24  and  O_25
REMARK   14  A    between atoms: C_28  and  O_29
REMARK                            x       y       z     vdW  Elec       q    Type
REMARK                         _______ _______ _______ _____ _____    ______ ____
ROOT
ATOM      1  C   UNL     1       1.327   9.520  19.450  0.00  0.00    +0.000 A 
ATOM      2  C   UNL     1       1.984   9.922  18.265  0.00  0.00    +0.000 A 
ATOM      3  C   UNL     1       2.734   9.046  17.485  0.00  0.00    +0.000 A 
ATOM      4  C   UNL     1       2.901   7.770  18.009  0.00  0.00    +0.000 A 
ATOM      5  O   UNL     1       3.676   6.805  17.456  0.00  0.00    +0.000 OA
ATOM      6  C   UNL     1       3.672   5.739  18.303  0.00  0.00    +0.000 A 
ATOM      7  C   UNL     1       4.397   4.557  18.143  0.00  0.00    +0.000 A 
ATOM      8  C   UNL     1       4.348   3.659  19.222  0.00  0.00    +0.000 A 
ATOM      9  C   UNL     1       3.534   3.881  20.337  0.00  0.00    +0.000 A 
ATOM     10  C   UNL     1       2.770   5.047  20.421  0.00  0.00    +0.000 A 
ATOM     11  C   UNL     1       2.864   6.012  19.401  0.00  0.00    +0.000 A 
ATOM     12  C   UNL     1       2.343   7.326  19.195  0.00  0.00    +0.000 A 
ATOM     13  C   UNL     1       1.510   8.206  19.920  0.00  0.00    +0.000 A 
ENDROOT
BRANCH   1  14
ATOM     14  C   UNL     1       0.509  10.530  20.185  0.00  0.00    +0.000 C 
ATOM     15  O   UNL     1       0.903  10.830  21.318  0.00  0.00    +0.000 OA
BRANCH  14  16
ATOM     16  C   UNL     1      -0.716  11.196  19.541  0.00  0.00    +0.000 C 
ATOM     17  C   UNL     1      -1.479  12.032  20.569  0.00  0.00    +0.000 C 
BRANCH  16  19
ATOM     18  C   UNL     1      -1.693  10.224  17.378  0.00  0.00    +0.000 C 
ATOM     19  C   UNL     1      -1.616  10.122  18.896  0.00  0.00    +0.000 C 
ENDBRANCH  16  19
ENDBRANCH  14  16
ENDBRANCH   1  14
BRANCH   2  20
ATOM     20  O   UNL     1       1.967  11.220  17.815  0.00  0.00    +0.000 OA
ATOM     21  H   UNL     1       2.830  11.627  18.057  0.00  0.00    +0.000 HD
ENDBRANCH   2  20
BRANCH   7  22
ATOM     22  C   UNL     1       5.175   4.266  16.916  0.00  0.00    +0.000 C 
ATOM     23  O   UNL     1       4.554   3.854  15.937  0.00  0.00    +0.000 OA
BRANCH  22  24
ATOM     24  C   UNL     1       6.671   4.589  16.880  0.00  0.00    +0.000 C 
ATOM     25  C   UNL     1       7.066   5.104  15.498  0.00  0.00    +0.000 C 
BRANCH  24  26
ATOM     26  C   UNL     1       7.041   5.604  17.970  0.00  0.00    +0.000 C 
ATOM     27  C   UNL     1       7.351   6.980  17.392  0.00  0.00    +0.000 C 
ENDBRANCH  24  26
ENDBRANCH  22  24
ENDBRANCH   7  22
BRANCH   8  28
ATOM     28  O   UNL     1       5.096   2.509  19.249  0.00  0.00    +0.000 OA
ATOM     29  H   UNL     1       5.247   2.223  18.319  0.00  0.00    +0.000 HD
ENDBRANCH   8  28
BRANCH  10  30
ATOM     30  O   UNL     1       1.969   5.288  21.508  0.00  0.00    +0.000 OA
ATOM     31  H   UNL     1       1.418   4.497  21.662  0.00  0.00    +0.000 HD
ENDBRANCH  10  30
BRANCH  13  32
ATOM     32  O   UNL     1       0.948   7.802  21.104  0.00  0.00    +0.000 OA
ATOM     33  H   UNL     1       1.515   8.109  21.844  0.00  0.00    +0.000 HD
ENDBRANCH  13  32
TORSDOF 10
ENDMDL
MODEL 2
REMARK VINA RESULT:      -7.3      1.533      3.730
REMARK  Name = 
REMARK  14 active torsions:
REMARK  status: ('A' for Active; 'I' for Inactive)
REMARK    1  A    between atoms: C_1  and  C_2
REMARK    2  A    between atoms: C_2  and  C_3
REMARK    3  A    between atoms: C_3  and  C_4
REMARK    4  A    between atoms: C_3  and  C_5
REMARK    5  A    between atoms: C_5  and  C_7
REMARK    6  A    between atoms: C_8  and  O_9
REMARK    7  A    between atoms: C_14  and  C_15
REMARK    8  A    between atoms: C_15  and  C_17
REMARK    9  A    between atoms: C_17  and  C_18
REMARK   10  A    between atoms: C_17  and  C_19
REMARK   11  A    between atoms: C_19  and  C_20
REMARK   12  A    between atoms: C_21  and  O_22
REMARK   13  A    between atoms: C_24  and  O_25
REMARK   14  A    between atoms: C_28  and  O_29
REMARK                            x       y       z     vdW  Elec       q    Type
REMARK                         _______ _______ _______ _____ _____    ______ ____
ROOT
ATOM      1  C   UNL     1       1.097   9.366  19.679  0.00  0.00    +0.000 A 
ATOM      2  C   UNL     1       0.659   8.591  20.777  0.00  0.00    +0.000 A 
ATOM      3  C   UNL     1       1.182   7.334  21.067  0.00  0.00    +0.000 A 
ATOM      4  C   UNL     1       2.080   6.827  20.135  0.00  0.00    +0.000 A 
ATOM      5  O   UNL     1       2.621   5.586  20.182  0.00  0.00    +0.000 OA
ATOM      6  C   UNL     1       3.363   5.418  19.052  0.00  0.00    +0.000 A 
ATOM      7  C   UNL     1       4.038   4.257  18.675  0.00  0.00    +0.000 A 
ATOM      8  C   UNL     1       4.615   4.274  17.394  0.00  0.00    +0.000 A 
ATOM      9  C   UNL     1       4.614   5.420  16.594  0.00  0.00    +0.000 A 
ATOM     10  C   UNL     1       3.987   6.584  17.045  0.00  0.00    +0.000 A 
ATOM     11  C   UNL     1       3.319   6.577  18.283  0.00  0.00    +0.000 A 
ATOM     12  C   UNL     1       2.504   7.501  19.003  0.00  0.00    +0.000 A 
ATOM     13  C   UNL     1       2.029   8.813  18.781  0.00  0.00    +0.000 A 
ENDROOT
BRANCH   1  14
ATOM     14  C   UNL     1       0.503  10.722  19.487  0.00  0.00    +0.000 C 
ATOM     15  O   UNL     1       0.848  11.589  20.299  0.00  0.00    +0.000 OA
BRANCH  14  16
ATOM     16  C   UNL     1      -0.437  11.030  18.313  0.00  0.00    +0.000 C 
ATOM     17  C   UNL     1      -0.853  12.501  18.323  0.00  0.00    +0.000 C 
BRANCH  16  19
ATOM     18  C   UNL     1      -2.344   9.913  17.011  0.00  0.00    +0.000 C 
ATOM     19  C   UNL     1      -1.660  10.091  18.361  0.00  0.00    +0.000 C 
ENDBRANCH  16  19
ENDBRANCH  14  16
ENDBRANCH   1  14
BRANCH   2  20
ATOM     20  O   UNL     1      -0.345   9.003  21.619  0.00  0.00    +0.000 OA
ATOM     21  H   UNL     1       0.076   9.496  22.359  0.00  0.00    +0.000 HD
ENDBRANCH   2  20
BRANCH   7  22
ATOM     22  C   UNL     1       4.137   3.075  19.563  0.00  0.00    +0.000 C 
ATOM     23  O   UNL     1       5.212   2.881  20.128  0.00  0.00    +0.000 OA
BRANCH  22  24
ATOM     24  C   UNL     1       2.891   2.224  19.824  0.00  0.00    +0.000 C 
ATOM     25  C   UNL     1       2.249   2.624  21.150  0.00  0.00    +0.000 C 
BRANCH  24  26
ATOM     26  C   UNL     1       1.888   2.348  18.669  0.00  0.00    +0.000 C 
ATOM     27  C   UNL     1       0.540   2.885  19.135  0.00  0.00    +0.000 C 
ENDBRANCH  24  26
ENDBRANCH  22  24
ENDBRANCH   7  22
BRANCH   8  28
ATOM     28  O   UNL     1       5.214   3.167  16.848  0.00  0.00    +0.000 OA
ATOM     29  H   UNL     1       5.407   2.535  17.579  0.00  0.00    +0.000 HD
ENDBRANCH   8  28
BRANCH  10  30
ATOM     30  O   UNL     1       3.969   7.718  16.274  0.00  0.00    +0.000 OA
ATOM     31  H   UNL     1       4.456   7.534  15.448  0.00  0.00    +0.000 HD
ENDBRANCH  10  30
BRANCH  13  32
ATOM     32  O   UNL     1       2.421   9.506  17.665  0.00  0.00    +0.000 OA
ATOM     33  H   UNL     1       3.207  10.049  17.890  0.00  0.00    +0.000 HD
ENDBRANCH  13  32
TORSDOF 10
ENDMDL
MODEL 3
REMARK VINA RESULT:      -7.3      0.450      1.119
REMARK  Name = 
REMARK  14 active torsions:
REMARK  status: ('A' for Active; 'I' for Inactive)
REMARK    1  A    between atoms: C_1  and  C_2
REMARK    2  A    between atoms: C_2  and  C_3
REMARK    3  A    between atoms: C_3  and  C_4
REMARK    4  A    between atoms: C_3  and  C_5
REMARK    5  A    between atoms: C_5  and  C_7
REMARK    6  A    between atoms: C_8  and  O_9
REMARK    7  A    between atoms: C_14  and  C_15
REMARK    8  A    between atoms: C_15  and  C_17
REMARK    9  A    between atoms: C_17  and  C_18
REMARK   10  A    between atoms: C_17  and  C_19
REMARK   11  A    between atoms: C_19  and  C_20
REMARK   12  A    between atoms: C_21  and  O_22
REMARK   13  A    between atoms: C_24  and  O_25
REMARK   14  A    between atoms: C_28  and  O_29
REMARK                            x       y       z     vdW  Elec       q    Type
REMARK                         _______ _______ _______ _____ _____    ______ ____
ROOT
ATOM      1  C   UNL     1       1.224   9.575  19.503  0.00  0.00    +0.000 A 
ATOM      2  C   UNL     1       1.870  10.018  18.326  0.00  0.00    +0.000 A 
ATOM      3  C   UNL     1       2.637   9.175  17.526  0.00  0.00    +0.000 A 
ATOM      4  C   UNL     1       2.832   7.892  18.021  0.00  0.00    +0.000 A 
ATOM      5  O   UNL     1       3.627   6.956  17.446  0.00  0.00    +0.000 OA
ATOM      6  C   UNL     1       3.648   5.872  18.269  0.00  0.00    +0.000 A 
ATOM      7  C   UNL     1       4.397   4.710  18.082  0.00  0.00    +0.000 A 
ATOM      8  C   UNL     1       4.369   3.787  19.141  0.00  0.00    +0.000 A 
ATOM      9  C   UNL     1       3.553   3.967  20.261  0.00  0.00    +0.000 A 
ATOM     10  C   UNL     1       2.764   5.115  20.372  0.00  0.00    +0.000 A 
ATOM     11  C   UNL     1       2.835   6.103  19.375  0.00  0.00    +0.000 A 
ATOM     12  C   UNL     1       2.286   7.409  19.198  0.00  0.00    +0.000 A 
ATOM     13  C   UNL     1       1.436   8.256  19.944  0.00  0.00    +0.000 A 
ENDROOT
BRANCH   1  14
ATOM     14  C   UNL     1       0.386  10.551  20.261  0.00  0.00    +0.000 C 
ATOM     15  O   UNL     1       0.915  11.072  21.250  0.00  0.00    +0.000 OA
BRANCH  14  16
ATOM     16  C   UNL     1      -1.030  10.925  19.800  0.00  0.00    +0.000 C 
ATOM     17  C   UNL     1      -1.398  10.172  18.521  0.00  0.00    +0.000 C 
BRANCH  16  19
ATOM     18  C   UNL     1      -2.318  13.076  20.341  0.00  0.00    +0.000 C 
ATOM     19  C   UNL     1      -1.133  12.453  19.613  0.00  0.00    +0.000 C 
ENDBRANCH  16  19
ENDBRANCH  14  16
ENDBRANCH   1  14
BRANCH   2  20
ATOM     20  O   UNL     1       1.824  11.325  17.905  0.00  0.00    +0.000 OA
ATOM     21  H   UNL     1       1.957  11.894  18.697  0.00  0.00    +0.000 HD
ENDBRANCH   2  20
BRANCH   7  22
ATOM     22  C   UNL     1       5.179   4.462  16.847  0.00  0.00    +0.000 C 
ATOM     23  O   UNL     1       4.556   4.121  15.843  0.00  0.00    +0.000 OA
BRANCH  22  24
ATOM     24  C   UNL     1       6.683   4.745  16.841  0.00  0.00    +0.000 C 
ATOM     25  C   UNL     1       7.196   4.837  15.407  0.00  0.00    +0.000 C 
BRANCH  24  26
ATOM     26  C   UNL     1       7.006   6.026  17.623  0.00  0.00    +0.000 C 
ATOM     27  C   UNL     1       7.782   5.736  18.903  0.00  0.00    +0.000 C 
ENDBRANCH  24  26
ENDBRANCH  22  24
ENDBRANCH   7  22
BRANCH   8  28
ATOM     28  O   UNL     1       5.142   2.654  19.142  0.00  0.00    +0.000 OA
ATOM     29  H   UNL     1       4.591   1.910  19.477  0.00  0.00    +0.000 HD
ENDBRANCH   8  28
BRANCH  10  30
ATOM     30  O   UNL     1       1.961   5.314  21.466  0.00  0.00    +0.000 OA
ATOM     31  H   UNL     1       1.755   6.266  21.524  0.00  0.00    +0.000 HD
ENDBRANCH  10  30
BRANCH  13  32
ATOM     32  O   UNL     1       0.885   7.814  21.119  0.00  0.00    +0.000 OA
ATOM     33  H   UNL     1       0.470   8.575  21.579  0.00  0.00    +0.000 HD
ENDBRANCH  13  32
TORSDOF 10
ENDMDL
MODEL 4
REMARK VINA RESULT:      -7.2      1.046      1.575
REMARK  Name = 
REMARK  14 active torsions:
REMARK  status: ('A' for Active; 'I' for Inactive)
REMARK    1  A    between atoms: C_1  and  C_2
REMARK    2  A    between atoms: C_2  and  C_3
REMARK    3  A    between atoms: C_3  and  C_4
REMARK    4  A    between atoms: C_3  and  C_5
REMARK    5  A    between atoms: C_5  and  C_7
REMARK    6  A    between atoms: C_8  and  O_9
REMARK    7  A    between atoms: C_14  and  C_15
REMARK    8  A    between atoms: C_15  and  C_17
REMARK    9  A    between atoms: C_17  and  C_18
REMARK   10  A    between atoms: C_17  and  C_19
REMARK   11  A    between atoms: C_19  and  C_20
REMARK   12  A    between atoms: C_21  and  O_22
REMARK   13  A    between atoms: C_24  and  O_25
REMARK   14  A    between atoms: C_28  and  O_29
REMARK                            x       y       z     vdW  Elec       q    Type
REMARK                         _______ _______ _______ _____ _____    ______ ____
ROOT
ATOM      1  C   UNL     1       1.020   9.403  19.427  0.00  0.00    +0.000 A 
ATOM      2  C   UNL     1       1.670   9.859  18.258  0.00  0.00    +0.000 A 
ATOM      3  C   UNL     1       2.500   9.045  17.491  0.00  0.00    +0.000 A 
ATOM      4  C   UNL     1       2.752   7.783  18.015  0.00  0.00    +0.000 A 
ATOM      5  O   UNL     1       3.609   6.882  17.476  0.00  0.00    +0.000 OA
ATOM      6  C   UNL     1       3.668   5.815  18.320  0.00  0.00    +0.000 A 
ATOM      7  C   UNL     1       4.483   4.692  18.172  0.00  0.00    +0.000 A 
ATOM      8  C   UNL     1       4.479   3.787  19.247  0.00  0.00    +0.000 A 
ATOM      9  C   UNL     1       3.628   3.943  20.345  0.00  0.00    +0.000 A 
ATOM     10  C   UNL     1       2.776   5.048  20.416  0.00  0.00    +0.000 A 
ATOM     11  C   UNL     1       2.818   6.021  19.402  0.00  0.00    +0.000 A 
ATOM     12  C   UNL     1       2.204   7.293  19.188  0.00  0.00    +0.000 A 
ATOM     13  C   UNL     1       1.292   8.105  19.898  0.00  0.00    +0.000 A 
ENDROOT
BRANCH   1  14
ATOM     14  C   UNL     1       0.113  10.346  20.147  0.00  0.00    +0.000 C 
ATOM     15  O   UNL     1      -1.000  10.526  19.640  0.00  0.00    +0.000 OA
BRANCH  14  16
ATOM     16  C   UNL     1       0.525  11.004  21.472  0.00  0.00    +0.000 C 
ATOM     17  C   UNL     1      -0.378  10.536  22.613  0.00  0.00    +0.000 C 
BRANCH  16  19
ATOM     18  C   UNL     1       1.746  13.099  20.637  0.00  0.00    +0.000 C 
ATOM     19  C   UNL     1       0.506  12.539  21.321  0.00  0.00    +0.000 C 
ENDBRANCH  16  19
ENDBRANCH  14  16
ENDBRANCH   1  14
BRANCH   2  20
ATOM     20  O   UNL     1       1.564  11.154  17.810  0.00  0.00    +0.000 OA
ATOM     21  H   UNL     1       1.360  11.718  18.591  0.00  0.00    +0.000 HD
ENDBRANCH   2  20
BRANCH   7  22
ATOM     22  C   UNL     1       5.306   4.465  16.961  0.00  0.00    +0.000 C 
ATOM     23  O   UNL     1       4.725   4.085  15.946  0.00  0.00    +0.000 OA
BRANCH  22  24
ATOM     24  C   UNL     1       6.796   4.814  16.989  0.00  0.00    +0.000 C 
ATOM     25  C   UNL     1       7.353   4.861  15.569  0.00  0.00    +0.000 C 
BRANCH  24  26
ATOM     26  C   UNL     1       7.037   6.143  17.718  0.00  0.00    +0.000 C 
ATOM     27  C   UNL     1       7.878   5.964  18.977  0.00  0.00    +0.000 C 
ENDBRANCH  24  26
ENDBRANCH  22  24
ENDBRANCH   7  22
BRANCH   8  28
ATOM     28  O   UNL     1       5.311   2.698  19.288  0.00  0.00    +0.000 OA
ATOM     29  H   UNL     1       6.140   2.931  18.811  0.00  0.00    +0.000 HD
ENDBRANCH   8  28
BRANCH  10  30
ATOM     30  O   UNL     1       1.937   5.223  21.487  0.00  0.00    +0.000 OA
ATOM     31  H   UNL     1       2.003   4.434  22.059  0.00  0.00    +0.000 HD
ENDBRANCH  10  30
BRANCH  13  32
ATOM     32  O   UNL     1       0.737   7.655  21.068  0.00  0.00    +0.000 OA
ATOM     33  H   UNL     1      -0.128   8.100  21.200  0.00  0.00    +0.000 HD
ENDBRANCH  13  32
TORSDOF 10
ENDMDL
MODEL 5
REMARK VINA RESULT:      -7.2      0.650      1.042
REMARK  Name = 
REMARK  14 active torsions:
REMARK  status: ('A' for Active; 'I' for Inactive)
REMARK    1  A    between atoms: C_1  and  C_2
REMARK    2  A    between atoms: C_2  and  C_3
REMARK    3  A    between atoms: C_3  and  C_4
REMARK    4  A    between atoms: C_3  and  C_5
REMARK    5  A    between atoms: C_5  and  C_7
REMARK    6  A    between atoms: C_8  and  O_9
REMARK    7  A    between atoms: C_14  and  C_15
REMARK    8  A    between atoms: C_15  and  C_17
REMARK    9  A    between atoms: C_17  and  C_18
REMARK   10  A    between atoms: C_17  and  C_19
REMARK   11  A    between atoms: C_19  and  C_20
REMARK   12  A    between atoms: C_21  and  O_22
REMARK   13  A    between atoms: C_24  and  O_25
REMARK   14  A    between atoms: C_28  and  O_29
REMARK                            x       y       z     vdW  Elec       q    Type
REMARK                         _______ _______ _______ _____ _____    ______ ____
ROOT
ATOM      1  C   UNL     1       1.300   9.571  19.491  0.00  0.00    +0.000 A 
ATOM      2  C   UNL     1       1.913   9.936  18.271  0.00  0.00    +0.000 A 
ATOM      3  C   UNL     1       2.611   9.028  17.479  0.00  0.00    +0.000 A 
ATOM      4  C   UNL     1       2.778   7.761  18.023  0.00  0.00    +0.000 A 
ATOM      5  O   UNL     1       3.510   6.770  17.459  0.00  0.00    +0.000 OA
ATOM      6  C   UNL     1       3.524   5.722  18.329  0.00  0.00    +0.000 A 
ATOM      7  C   UNL     1       4.219   4.524  18.164  0.00  0.00    +0.000 A 
ATOM      8  C   UNL     1       4.201   3.650  19.264  0.00  0.00    +0.000 A 
ATOM      9  C   UNL     1       3.441   3.912  20.408  0.00  0.00    +0.000 A 
ATOM     10  C   UNL     1       2.703   5.094  20.499  0.00  0.00    +0.000 A 
ATOM     11  C   UNL     1       2.769   6.035  19.455  0.00  0.00    +0.000 A 
ATOM     12  C   UNL     1       2.264   7.353  19.242  0.00  0.00    +0.000 A 
ATOM     13  C   UNL     1       1.480   8.265  19.983  0.00  0.00    +0.000 A 
ENDROOT
BRANCH   1  14
ATOM     14  C   UNL     1       0.534  10.613  20.239  0.00  0.00    +0.000 C 
ATOM     15  O   UNL     1       1.010  10.967  21.324  0.00  0.00    +0.000 OA
BRANCH  14  16
ATOM     16  C   UNL     1      -0.740  11.244  19.659  0.00  0.00    +0.000 C 
ATOM     17  C   UNL     1      -1.529  11.970  20.750  0.00  0.00    +0.000 C 
BRANCH  16  19
ATOM     18  C   UNL     1      -1.738  10.375  17.462  0.00  0.00    +0.000 C 
ATOM     19  C   UNL     1      -1.591  10.162  18.963  0.00  0.00    +0.000 C 
ENDBRANCH  16  19
ENDBRANCH  14  16
ENDBRANCH   1  14
BRANCH   2  20
ATOM     20  O   UNL     1       1.899  11.224  17.793  0.00  0.00    +0.000 OA
ATOM     21  H   UNL     1       1.482  11.201  16.901  0.00  0.00    +0.000 HD
ENDBRANCH   2  20
BRANCH   7  22
ATOM     22  C   UNL     1       4.938   4.191  16.912  0.00  0.00    +0.000 C 
ATOM     23  O   UNL     1       4.568   3.192  16.296  0.00  0.00    +0.000 OA
BRANCH  22  24
ATOM     24  C   UNL     1       6.012   5.146  16.386  0.00  0.00    +0.000 C 
ATOM     25  C   UNL     1       7.402   4.606  16.713  0.00  0.00    +0.000 C 
BRANCH  24  26
ATOM     26  C   UNL     1       5.854   5.375  14.876  0.00  0.00    +0.000 C 
ATOM     27  C   UNL     1       6.933   4.661  14.071  0.00  0.00    +0.000 C 
ENDBRANCH  24  26
ENDBRANCH  22  24
ENDBRANCH   7  22
BRANCH   8  28
ATOM     28  O   UNL     1       4.929   2.487  19.285  0.00  0.00    +0.000 OA
ATOM     29  H   UNL     1       4.878   2.113  20.195  0.00  0.00    +0.000 HD
ENDBRANCH   8  28
BRANCH  10  30
ATOM     30  O   UNL     1       1.954   5.373  21.614  0.00  0.00    +0.000 OA
ATOM     31  H   UNL     1       2.486   5.149  22.402  0.00  0.00    +0.000 HD
ENDBRANCH  10  30
BRANCH  13  32
ATOM     32  O   UNL     1       0.962   7.898  21.198  0.00  0.00    +0.000 OA
ATOM     33  H   UNL     1       0.863   6.921  21.217  0.00  0.00    +0.000 HD
ENDBRANCH  13  32
TORSDOF 10
ENDMDL
MODEL 6
REMARK VINA RESULT:      -7.1      0.951      1.745
REMARK  Name = 
REMARK  14 active torsions:
REMARK  status: ('A' for Active; 'I' for Inactive)
REMARK    1  A    between atoms: C_1  and  C_2
REMARK    2  A    between atoms: C_2  and  C_3
REMARK    3  A    between atoms: C_3  and  C_4
REMARK    4  A    between atoms: C_3  and  C_5
REMARK    5  A    between atoms: C_5  and  C_7
REMARK    6  A    between atoms: C_8  and  O_9
REMARK    7  A    between atoms: C_14  and  C_15
REMARK    8  A    between atoms: C_15  and  C_17
REMARK    9  A    between atoms: C_17  and  C_18
REMARK   10  A    between atoms: C_17  and  C_19
REMARK   11  A    between atoms: C_19  and  C_20
REMARK   12  A    between atoms: C_21  and  O_22
REMARK   13  A    between atoms: C_24  and  O_25
REMARK   14  A    between atoms: C_28  and  O_29
REMARK                            x       y       z     vdW  Elec       q    Type
REMARK                         _______ _______ _______ _____ _____    ______ ____
ROOT
ATOM      1  C   UNL     1       1.325   9.707  19.689  0.00  0.00    +0.000 A 
ATOM      2  C   UNL     1       1.820  10.082  18.419  0.00  0.00    +0.000 A 
ATOM      3  C   UNL     1       2.431   9.181  17.552  0.00  0.00    +0.000 A 
ATOM      4  C   UNL     1       2.639   7.905  18.062  0.00  0.00    +0.000 A 
ATOM      5  O   UNL     1       3.305   6.916  17.418  0.00  0.00    +0.000 OA
ATOM      6  C   UNL     1       3.394   5.857  18.269  0.00  0.00    +0.000 A 
ATOM      7  C   UNL     1       4.059   4.656  18.023  0.00  0.00    +0.000 A 
ATOM      8  C   UNL     1       4.140   3.767  19.109  0.00  0.00    +0.000 A 
ATOM      9  C   UNL     1       3.496   4.020  20.324  0.00  0.00    +0.000 A 
ATOM     10  C   UNL     1       2.780   5.206  20.500  0.00  0.00    +0.000 A 
ATOM     11  C   UNL     1       2.753   6.160  19.467  0.00  0.00    +0.000 A 
ATOM     12  C   UNL     1       2.241   7.485  19.320  0.00  0.00    +0.000 A 
ATOM     13  C   UNL     1       1.540   8.393  20.144  0.00  0.00    +0.000 A 
ENDROOT
BRANCH   1  14
ATOM     14  C   UNL     1       0.643  10.744  20.519  0.00  0.00    +0.000 C 
ATOM     15  O   UNL     1       1.373  11.603  21.027  0.00  0.00    +0.000 OA
BRANCH  14  16
ATOM     16  C   UNL     1      -0.884  10.768  20.681  0.00  0.00    +0.000 C 
ATOM     17  C   UNL     1      -1.532  11.590  19.566  0.00  0.00    +0.000 C 
BRANCH  16  19
ATOM     18  C   UNL     1      -0.955  10.331  23.207  0.00  0.00    +0.000 C 
ATOM     19  C   UNL     1      -1.253  11.309  22.078  0.00  0.00    +0.000 C 
ENDBRANCH  16  19
ENDBRANCH  14  16
ENDBRANCH   1  14
BRANCH   2  20
ATOM     20  O   UNL     1       1.771  11.377  17.961  0.00  0.00    +0.000 OA
ATOM     21  H   UNL     1       2.697  11.659  17.780  0.00  0.00    +0.000 HD
ENDBRANCH   2  20
BRANCH   7  22
ATOM     22  C   UNL     1       4.651   4.335  16.703  0.00  0.00    +0.000 C 
ATOM     23  O   UNL     1       4.099   3.462  16.034  0.00  0.00    +0.000 OA
BRANCH  22  24
ATOM     24  C   UNL     1       5.831   5.161  16.187  0.00  0.00    +0.000 C 
ATOM     25  C   UNL     1       7.148   4.549  16.655  0.00  0.00    +0.000 C 
BRANCH  24  26
ATOM     26  C   UNL     1       5.793   5.280  14.657  0.00  0.00    +0.000 C 
ATOM     27  C   UNL     1       6.552   4.147  13.975  0.00  0.00    +0.000 C 
ENDBRANCH  24  26
ENDBRANCH  22  24
ENDBRANCH   7  22
BRANCH   8  28
ATOM     28  O   UNL     1       4.856   2.600  19.045  0.00  0.00    +0.000 OA
ATOM     29  H   UNL     1       4.667   2.082  19.861  0.00  0.00    +0.000 HD
ENDBRANCH   8  28
BRANCH  10  30
ATOM     30  O   UNL     1       2.145   5.476  21.686  0.00  0.00    +0.000 OA
ATOM     31  H   UNL     1       1.670   4.671  21.968  0.00  0.00    +0.000 HD
ENDBRANCH  10  30
BRANCH  13  32
ATOM     32  O   UNL     1       1.139   8.013  21.399  0.00  0.00    +0.000 OA
ATOM     33  H   UNL     1       1.603   7.181  21.641  0.00  0.00    +0.000 HD
ENDBRANCH  13  32
TORSDOF 10
ENDMDL
MODEL 7
REMARK VINA RESULT:      -7.1      1.773      3.979
REMARK  Name = 
REMARK  14 active torsions:
REMARK  status: ('A' for Active; 'I' for Inactive)
REMARK    1  A    between atoms: C_1  and  C_2
REMARK    2  A    between atoms: C_2  and  C_3
REMARK    3  A    between atoms: C_3  and  C_4
REMARK    4  A    between atoms: C_3  and  C_5
REMARK    5  A    between atoms: C_5  and  C_7
REMARK    6  A    between atoms: C_8  and  O_9
REMARK    7  A    between atoms: C_14  and  C_15
REMARK    8  A    between atoms: C_15  and  C_17
REMARK    9  A    between atoms: C_17  and  C_18
REMARK   10  A    between atoms: C_17  and  C_19
REMARK   11  A    between atoms: C_19  and  C_20
REMARK   12  A    between atoms: C_21  and  O_22
REMARK   13  A    between atoms: C_24  and  O_25
REMARK   14  A    between atoms: C_28  and  O_29
REMARK                            x       y       z     vdW  Elec       q    Type
REMARK                         _______ _______ _______ _____ _____    ______ ____
ROOT
ATOM      1  C   UNL     1       1.113   9.357  19.563  0.00  0.00    +0.000 A 
ATOM      2  C   UNL     1       0.666   8.603  20.672  0.00  0.00    +0.000 A 
ATOM      3  C   UNL     1       1.185   7.351  20.990  0.00  0.00    +0.000 A 
ATOM      4  C   UNL     1       2.088   6.826  20.074  0.00  0.00    +0.000 A 
ATOM      5  O   UNL     1       2.627   5.585  20.148  0.00  0.00    +0.000 OA
ATOM      6  C   UNL     1       3.377   5.395  19.027  0.00  0.00    +0.000 A 
ATOM      7  C   UNL     1       4.052   4.225  18.676  0.00  0.00    +0.000 A 
ATOM      8  C   UNL     1       4.639   4.217  17.400  0.00  0.00    +0.000 A 
ATOM      9  C   UNL     1       4.645   5.348  16.578  0.00  0.00    +0.000 A 
ATOM     10  C   UNL     1       4.017   6.521  17.002  0.00  0.00    +0.000 A 
ATOM     11  C   UNL     1       3.341   6.538  18.236  0.00  0.00    +0.000 A 
ATOM     12  C   UNL     1       2.521   7.478  18.932  0.00  0.00    +0.000 A 
ATOM     13  C   UNL     1       2.050   8.785  18.682  0.00  0.00    +0.000 A 
ENDROOT
BRANCH   1  14
ATOM     14  C   UNL     1       0.522  10.710  19.341  0.00  0.00    +0.000 C 
ATOM     15  O   UNL     1      -0.609  10.737  18.842  0.00  0.00    +0.000 OA
BRANCH  14  16
ATOM     16  C   UNL     1       1.260  11.989  19.764  0.00  0.00    +0.000 C 
ATOM     17  C   UNL     1       0.590  12.622  20.983  0.00  0.00    +0.000 C 
BRANCH  16  19
ATOM     18  C   UNL     1       2.746  13.401  18.223  0.00  0.00    +0.000 C 
ATOM     19  C   UNL     1       1.328  12.971  18.576  0.00  0.00    +0.000 C 
ENDBRANCH  16  19
ENDBRANCH  14  16
ENDBRANCH   1  14
BRANCH   2  20
ATOM     20  O   UNL     1      -0.344   9.033  21.499  0.00  0.00    +0.000 OA
ATOM     21  H   UNL     1      -0.360   8.432  22.279  0.00  0.00    +0.000 HD
ENDBRANCH   2  20
BRANCH   7  22
ATOM     22  C   UNL     1       4.143   3.060  19.587  0.00  0.00    +0.000 C 
ATOM     23  O   UNL     1       5.213   2.877  20.166  0.00  0.00    +0.000 OA
BRANCH  22  24
ATOM     24  C   UNL     1       2.895   2.215  19.853  0.00  0.00    +0.000 C 
ATOM     25  C   UNL     1       2.267   2.607  21.188  0.00  0.00    +0.000 C 
BRANCH  24  26
ATOM     26  C   UNL     1       1.882   2.353  18.709  0.00  0.00    +0.000 C 
ATOM     27  C   UNL     1       0.535   2.876  19.195  0.00  0.00    +0.000 C 
ENDBRANCH  24  26
ENDBRANCH  22  24
ENDBRANCH   7  22
BRANCH   8  28
ATOM     28  O   UNL     1       5.240   3.099  16.879  0.00  0.00    +0.000 OA
ATOM     29  H   UNL     1       5.298   2.424  17.595  0.00  0.00    +0.000 HD
ENDBRANCH   8  28
BRANCH  10  30
ATOM     30  O   UNL     1       4.006   7.641  16.210  0.00  0.00    +0.000 OA
ATOM     31  H   UNL     1       4.867   8.092  16.307  0.00  0.00    +0.000 HD
ENDBRANCH  10  30
BRANCH  13  32
ATOM     32  O   UNL     1       2.451   9.457  17.556  0.00  0.00    +0.000 OA
ATOM     33  H   UNL     1       2.655   8.802  16.853  0.00  0.00    +0.000 HD
ENDBRANCH  13  32
TORSDOF 10
ENDMDL
MODEL 8
REMARK VINA RESULT:      -6.9      2.338      4.823
REMARK  Name = 
REMARK  14 active torsions:
REMARK  status: ('A' for Active; 'I' for Inactive)
REMARK    1  A    between atoms: C_1  and  C_2
REMARK    2  A    between atoms: C_2  and  C_3
REMARK    3  A    between atoms: C_3  and  C_4
REMARK    4  A    between atoms: C_3  and  C_5
REMARK    5  A    between atoms: C_5  and  C_7
REMARK    6  A    between atoms: C_8  and  O_9
REMARK    7  A    between atoms: C_14  and  C_15
REMARK    8  A    between atoms: C_15  and  C_17
REMARK    9  A    between atoms: C_17  and  C_18
REMARK   10  A    between atoms: C_17  and  C_19
REMARK   11  A    between atoms: C_19  and  C_20
REMARK   12  A    between atoms: C_21  and  O_22
REMARK   13  A    between atoms: C_24  and  O_25
REMARK   14  A    between atoms: C_28  and  O_29
REMARK                            x       y       z     vdW  Elec       q    Type
REMARK                         _______ _______ _______ _____ _____    ______ ____
ROOT
ATOM      1  C   UNL     1      -0.398  11.122  21.430  0.00  0.00    +0.000 A 
ATOM      2  C   UNL     1      -0.597  10.180  22.465  0.00  0.00    +0.000 A 
ATOM      3  C   UNL     1       0.054   8.950  22.498  0.00  0.00    +0.000 A 
ATOM      4  C   UNL     1       0.825   8.648  21.382  0.00  0.00    +0.000 A 
ATOM      5  O   UNL     1       1.454   7.465  21.177  0.00  0.00    +0.000 OA
ATOM      6  C   UNL     1       2.015   7.508  19.937  0.00  0.00    +0.000 A 
ATOM      7  C   UNL     1       2.702   6.469  19.307  0.00  0.00    +0.000 A 
ATOM      8  C   UNL     1       3.064   6.698  17.969  0.00  0.00    +0.000 A 
ATOM      9  C   UNL     1       2.852   7.930  17.343  0.00  0.00    +0.000 A 
ATOM     10  C   UNL     1       2.223   8.966  18.037  0.00  0.00    +0.000 A 
ATOM     11  C   UNL     1       1.766   8.744  19.349  0.00  0.00    +0.000 A 
ATOM     12  C   UNL     1       1.012   9.493  20.302  0.00  0.00    +0.000 A 
ATOM     13  C   UNL     1       0.415  10.773  20.336  0.00  0.00    +0.000 A 
ENDROOT
BRANCH   1  14
ATOM     14  C   UNL     1      -1.111  12.431  21.517  0.00  0.00    +0.000 C 
ATOM     15  O   UNL     1      -0.400  13.429  21.688  0.00  0.00    +0.000 OA
BRANCH  14  16
ATOM     16  C   UNL     1      -2.633  12.531  21.345  0.00  0.00    +0.000 C 
ATOM     17  C   UNL     1      -3.004  12.653  19.866  0.00  0.00    +0.000 C 
BRANCH  16  19
ATOM     18  C   UNL     1      -3.375  13.392  23.644  0.00  0.00    +0.000 C 
ATOM     19  C   UNL     1      -3.176  13.717  22.169  0.00  0.00    +0.000 C 
ENDBRANCH  16  19
ENDBRANCH  14  16
ENDBRANCH   1  14
BRANCH   2  20
ATOM     20  O   UNL     1      -1.480  10.390  23.496  0.00  0.00    +0.000 OA
ATOM     21  H   UNL     1      -1.632  11.361  23.559  0.00  0.00    +0.000 HD
ENDBRANCH   2  20
BRANCH   7  22
ATOM     22  C   UNL     1       3.026   5.200  20.000  0.00  0.00    +0.000 C 
ATOM     23  O   UNL     1       4.207   4.856  20.026  0.00  0.00    +0.000 OA
BRANCH  22  24
ATOM     24  C   UNL     1       1.920   4.442  20.738  0.00  0.00    +0.000 C 
ATOM     25  C   UNL     1       0.868   3.949  19.748  0.00  0.00    +0.000 C 
BRANCH  24  26
ATOM     26  C   UNL     1       2.499   3.276  21.550  0.00  0.00    +0.000 C 
ATOM     27  C   UNL     1       1.414   2.324  22.040  0.00  0.00    +0.000 C 
ENDBRANCH  24  26
ENDBRANCH  22  24
ENDBRANCH   7  22
BRANCH   8  28
ATOM     28  O   UNL     1       3.645   5.727  17.194  0.00  0.00    +0.000 OA
ATOM     29  H   UNL     1       3.347   4.851  17.531  0.00  0.00    +0.000 HD
ENDBRANCH   8  28
BRANCH  10  30
ATOM     30  O   UNL     1       2.001  10.181  17.440  0.00  0.00    +0.000 OA
ATOM     31  H   UNL     1       2.846  10.496  17.065  0.00  0.00    +0.000 HD
ENDBRANCH  10  30
BRANCH  13  32
ATOM     32  O   UNL     1       0.572  11.632  19.279  0.00  0.00    +0.000 OA
ATOM     33  H   UNL     1      -0.025  11.351  18.551  0.00  0.00    +0.000 HD
ENDBRANCH  13  32
TORSDOF 10
ENDMDL
MODEL 9
REMARK VINA RESULT:      -6.9      0.614      1.408
REMARK  Name = 
REMARK  14 active torsions:
REMARK  status: ('A' for Active; 'I' for Inactive)
REMARK    1  A    between atoms: C_1  and  C_2
REMARK    2  A    between atoms: C_2  and  C_3
REMARK    3  A    between atoms: C_3  and  C_4
REMARK    4  A    between atoms: C_3  and  C_5
REMARK    5  A    between atoms: C_5  and  C_7
REMARK    6  A    between atoms: C_8  and  O_9
REMARK    7  A    between atoms: C_14  and  C_15
REMARK    8  A    between atoms: C_15  and  C_17
REMARK    9  A    between atoms: C_17  and  C_18
REMARK   10  A    between atoms: C_17  and  C_19
REMARK   11  A    between atoms: C_19  and  C_20
REMARK   12  A    between atoms: C_21  and  O_22
REMARK   13  A    between atoms: C_24  and  O_25
REMARK   14  A    between atoms: C_28  and  O_29
REMARK                            x       y       z     vdW  Elec       q    Type
REMARK                         _______ _______ _______ _____ _____    ______ ____
ROOT
ATOM      1  C   UNL     1       1.393   9.409  19.362  0.00  0.00    +0.000 A 
ATOM      2  C   UNL     1       2.093   9.771  18.188  0.00  0.00    +0.000 A 
ATOM      3  C   UNL     1       2.846   8.862  17.450  0.00  0.00    +0.000 A 
ATOM      4  C   UNL     1       2.971   7.595  18.006  0.00  0.00    +0.000 A 
ATOM      5  O   UNL     1       3.741   6.602  17.497  0.00  0.00    +0.000 OA
ATOM      6  C   UNL     1       3.690   5.556  18.367  0.00  0.00    +0.000 A 
ATOM      7  C   UNL     1       4.393   4.356  18.253  0.00  0.00    +0.000 A 
ATOM      8  C   UNL     1       4.294   3.483  19.350  0.00  0.00    +0.000 A 
ATOM      9  C   UNL     1       3.454   3.747  20.435  0.00  0.00    +0.000 A 
ATOM     10  C   UNL     1       2.712   4.931  20.472  0.00  0.00    +0.000 A 
ATOM     11  C   UNL     1       2.856   5.870  19.435  0.00  0.00    +0.000 A 
ATOM     12  C   UNL     1       2.369   7.189  19.184  0.00  0.00    +0.000 A 
ATOM     13  C   UNL     1       1.535   8.103  19.866  0.00  0.00    +0.000 A 
ENDROOT
BRANCH   1  14
ATOM     14  C   UNL     1       0.577  10.452  20.051  0.00  0.00    +0.000 C 
ATOM     15  O   UNL     1       1.201  11.265  20.743  0.00  0.00    +0.000 OA
BRANCH  14  16
ATOM     16  C   UNL     1      -0.944  10.539  19.859  0.00  0.00    +0.000 C 
ATOM     17  C   UNL     1      -1.316  10.346  18.389  0.00  0.00    +0.000 C 
BRANCH  16  19
ATOM     18  C   UNL     1      -1.416  13.016  19.390  0.00  0.00    +0.000 C 
ATOM     19  C   UNL     1      -1.465  11.884  20.408  0.00  0.00    +0.000 C 
ENDBRANCH  16  19
ENDBRANCH  14  16
ENDBRANCH   1  14
BRANCH   2  20
ATOM     20  O   UNL     1       2.116  11.059  17.709  0.00  0.00    +0.000 OA
ATOM     21  H   UNL     1       2.850  11.116  17.055  0.00  0.00    +0.000 HD
ENDBRANCH   2  20
BRANCH   7  22
ATOM     22  C   UNL     1       5.200   4.021  17.056  0.00  0.00    +0.000 C 
ATOM     23  O   UNL     1       4.774   3.134  16.318  0.00  0.00    +0.000 OA
BRANCH  22  24
ATOM     24  C   UNL     1       6.444   4.851  16.732  0.00  0.00    +0.000 C 
ATOM     25  C   UNL     1       7.450   4.762  17.877  0.00  0.00    +0.000 C 
BRANCH  24  26
ATOM     26  C   UNL     1       7.078   4.401  15.409  0.00  0.00    +0.000 C 
ATOM     27  C   UNL     1       6.270   4.859  14.200  0.00  0.00    +0.000 C 
ENDBRANCH  24  26
ENDBRANCH  22  24
ENDBRANCH   7  22
BRANCH   8  28
ATOM     28  O   UNL     1       5.017   2.319  19.424  0.00  0.00    +0.000 OA
ATOM     29  H   UNL     1       4.400   1.595  19.678  0.00  0.00    +0.000 HD
ENDBRANCH   8  28
BRANCH  10  30
ATOM     30  O   UNL     1       1.886   5.212  21.529  0.00  0.00    +0.000 OA
ATOM     31  H   UNL     1       1.108   4.624  21.474  0.00  0.00    +0.000 HD
ENDBRANCH  10  30
BRANCH  13  32
ATOM     32  O   UNL     1       0.931   7.737  21.041  0.00  0.00    +0.000 OA
ATOM     33  H   UNL     1       1.152   8.401  21.730  0.00  0.00    +0.000 HD
ENDBRANCH  13  32
TORSDOF 10
ENDMDL
