MODEL 1
REMARK VINA RESULT:      -8.6      0.000      0.000
REMARK  Name = 
REMARK  8 active torsions:
REMARK  status: ('A' for Active; 'I' for Inactive)
REMARK    1  A    between atoms: C_1  and  N_2
REMARK    2  A    between atoms: N_2  and  C_3
REMARK    3  A    between atoms: N_2  and  C_4
REMARK    4  A    between atoms: C_7  and  C_8
REMARK    5  A    between atoms: C_8  and  N_9
REMARK    6  A    between atoms: C_12  and  C_13
REMARK    7  A    between atoms: C_20  and  C_22
REMARK    8  A    between atoms: C_26  and  N_27
REMARK                            x       y       z     vdW  Elec       q    Type
REMARK                         _______ _______ _______ _____ _____    ______ ____
ROOT
ATOM      1  N   UNL     1       1.945   9.576  18.882  0.00  0.00    +0.000 N 
ATOM      2  C   UNL     1       0.628   9.891  18.802  0.00  0.00    +0.000 A 
ATOM      3  N   UNL     1      -0.186   9.680  17.792  0.00  0.00    +0.000 NA
ATOM      4  C   UNL     1      -1.289  10.431  18.100  0.00  0.00    +0.000 A 
ATOM      5  N   UNL     1      -1.241  11.040  19.290  0.00  0.00    +0.000 NA
ATOM      6  N   UNL     1      -0.049  10.614  19.781  0.00  0.00    +0.000 N 
ATOM      7  C   UNL     1       0.300  10.912  21.108  0.00  0.00    +0.000 C 
ATOM      8  O   UNL     1       1.114  10.191  21.683  0.00  0.00    +0.000 OA
ATOM      9  H   UNL     1       2.595  10.346  19.015  0.00  0.00    +0.000 HD
ENDROOT
BRANCH   7  10
ATOM     10  C   UNL     1      -0.247  12.083  21.847  0.00  0.00    +0.000 A 
ATOM     11  C   UNL     1       0.283  13.364  21.637  0.00  0.00    +0.000 A 
ATOM     12  C   UNL     1      -0.314  14.479  22.239  0.00  0.00    +0.000 A 
ATOM     13  C   UNL     1      -1.451  14.321  23.034  0.00  0.00    +0.000 A 
ATOM     14  C   UNL     1      -1.979  13.039  23.237  0.00  0.00    +0.000 A 
ATOM     15  C   UNL     1      -1.381  11.919  22.652  0.00  0.00    +0.000 A 
BRANCH  14  16
ATOM     16  N   UNL     1      -3.205  12.867  24.032  0.00  0.00    +0.000 N 
ATOM     17  O   UNL     1      -3.852  11.826  23.874  0.00  0.00    +0.000 OA
ATOM     18  O   UNL     1      -3.508  13.771  24.821  0.00  0.00    +0.000 OA
ENDBRANCH  14  16
ENDBRANCH   7  10
BRANCH   4  19
ATOM     19  C   UNL     1      -2.433  10.616  17.163  0.00  0.00    +0.000 A 
ATOM     20  C   UNL     1      -2.574  10.011  15.929  0.00  0.00    +0.000 A 
ATOM     21  C   UNL     1      -3.779  10.503  15.368  0.00  0.00    +0.000 A 
ATOM     22  C   UNL     1      -4.305  11.369  16.295  0.00  0.00    +0.000 A 
ATOM     23  O   UNL     1      -3.501  11.441  17.386  0.00  0.00    +0.000 OA
ENDBRANCH   4  19
BRANCH   1  24
ATOM     24  C   UNL     1       2.489   8.525  18.040  0.00  0.00    +0.000 C 
BRANCH  24  28
ATOM     25  C   UNL     1       1.858   4.525  19.709  0.00  0.00    +0.000 A 
ATOM     26  C   UNL     1       1.930   5.669  20.523  0.00  0.00    +0.000 A 
ATOM     27  C   UNL     1       2.173   6.951  19.999  0.00  0.00    +0.000 A 
ATOM     28  C   UNL     1       2.327   7.144  18.625  0.00  0.00    +0.000 A 
ATOM     29  C   UNL     1       2.271   6.021  17.798  0.00  0.00    +0.000 A 
ATOM     30  C   UNL     1       2.039   4.742  18.334  0.00  0.00    +0.000 A 
BRANCH  25  32
ATOM     31  C   UNL     1       1.769   2.980  21.646  0.00  0.00    +0.000 C 
ATOM     32  N   UNL     1       1.608   3.254  20.225  0.00  0.00    +0.000 N 
ATOM     33  C   UNL     1       1.643   2.100  19.321  0.00  0.00    +0.000 C 
ENDBRANCH  25  32
ENDBRANCH  24  28
ENDBRANCH   1  24
TORSDOF 6
ENDMDL
MODEL 2
REMARK VINA RESULT:      -8.4      0.514      1.099
REMARK  Name = 
REMARK  8 active torsions:
REMARK  status: ('A' for Active; 'I' for Inactive)
REMARK    1  A    between atoms: C_1  and  N_2
REMARK    2  A    between atoms: N_2  and  C_3
REMARK    3  A    between atoms: N_2  and  C_4
REMARK    4  A    between atoms: C_7  and  C_8
REMARK    5  A    between atoms: C_8  and  N_9
REMARK    6  A    between atoms: C_12  and  C_13
REMARK    7  A    between atoms: C_20  and  C_22
REMARK    8  A    between atoms: C_26  and  N_27
REMARK                            x       y       z     vdW  Elec       q    Type
REMARK                         _______ _______ _______ _____ _____    ______ ____
ROOT
ATOM      1  N   UNL     1       1.810   9.679  18.932  0.00  0.00    +0.000 N 
ATOM      2  C   UNL     1       0.489   9.980  18.856  0.00  0.00    +0.000 A 
ATOM      3  N   UNL     1      -0.320   9.783  17.838  0.00  0.00    +0.000 NA
ATOM      4  C   UNL     1      -1.433  10.512  18.161  0.00  0.00    +0.000 A 
ATOM      5  N   UNL     1      -1.396  11.091  19.367  0.00  0.00    +0.000 NA
ATOM      6  N   UNL     1      -0.201  10.669  19.850  0.00  0.00    +0.000 N 
ATOM      7  C   UNL     1       0.140  10.938  21.186  0.00  0.00    +0.000 C 
ATOM      8  O   UNL     1       0.962  10.213  21.745  0.00  0.00    +0.000 OA
ATOM      9  H   UNL     1       2.449  10.454  19.086  0.00  0.00    +0.000 HD
ENDROOT
BRANCH   7  10
ATOM     10  C   UNL     1      -0.424  12.083  21.952  0.00  0.00    +0.000 A 
ATOM     11  C   UNL     1       0.170  13.351  21.871  0.00  0.00    +0.000 A 
ATOM     12  C   UNL     1      -0.434  14.450  22.493  0.00  0.00    +0.000 A 
ATOM     13  C   UNL     1      -1.640  14.292  23.180  0.00  0.00    +0.000 A 
ATOM     14  C   UNL     1      -2.231  13.023  23.253  0.00  0.00    +0.000 A 
ATOM     15  C   UNL     1      -1.627  11.917  22.647  0.00  0.00    +0.000 A 
BRANCH  14  16
ATOM     16  N   UNL     1      -3.526  12.855  23.931  0.00  0.00    +0.000 N 
ATOM     17  O   UNL     1      -4.223  13.862  24.097  0.00  0.00    +0.000 OA
ATOM     18  O   UNL     1      -3.845  11.712  24.284  0.00  0.00    +0.000 OA
ENDBRANCH  14  16
ENDBRANCH   7  10
BRANCH   4  19
ATOM     19  C   UNL     1      -2.576  10.706  17.225  0.00  0.00    +0.000 A 
ATOM     20  C   UNL     1      -2.655  10.224  15.933  0.00  0.00    +0.000 A 
ATOM     21  C   UNL     1      -3.887  10.679  15.401  0.00  0.00    +0.000 A 
ATOM     22  C   UNL     1      -4.491  11.401  16.402  0.00  0.00    +0.000 A 
ATOM     23  O   UNL     1      -3.708  11.420  17.510  0.00  0.00    +0.000 OA
ENDBRANCH   4  19
BRANCH   1  24
ATOM     24  C   UNL     1       2.370   8.657  18.066  0.00  0.00    +0.000 C 
BRANCH  24  28
ATOM     25  C   UNL     1       2.314   4.641  19.812  0.00  0.00    +0.000 A 
ATOM     26  C   UNL     1       2.551   4.854  18.443  0.00  0.00    +0.000 A 
ATOM     27  C   UNL     1       2.531   6.137  17.868  0.00  0.00    +0.000 A 
ATOM     28  C   UNL     1       2.297   7.268  18.652  0.00  0.00    +0.000 A 
ATOM     29  C   UNL     1       2.047   7.080  20.012  0.00  0.00    +0.000 A 
ATOM     30  C   UNL     1       2.059   5.792  20.575  0.00  0.00    +0.000 A 
BRANCH  25  32
ATOM     31  C   UNL     1       1.415   3.014  21.453  0.00  0.00    +0.000 C 
ATOM     32  N   UNL     1       2.343   3.371  20.388  0.00  0.00    +0.000 N 
ATOM     33  C   UNL     1       3.563   2.566  20.276  0.00  0.00    +0.000 C 
ENDBRANCH  25  32
ENDBRANCH  24  28
ENDBRANCH   1  24
TORSDOF 6
ENDMDL
MODEL 3
REMARK VINA RESULT:      -8.3      7.442     10.353
REMARK  Name = 
REMARK  8 active torsions:
REMARK  status: ('A' for Active; 'I' for Inactive)
REMARK    1  A    between atoms: C_1  and  N_2
REMARK    2  A    between atoms: N_2  and  C_3
REMARK    3  A    between atoms: N_2  and  C_4
REMARK    4  A    between atoms: C_7  and  C_8
REMARK    5  A    between atoms: C_8  and  N_9
REMARK    6  A    between atoms: C_12  and  C_13
REMARK    7  A    between atoms: C_20  and  C_22
REMARK    8  A    between atoms: C_26  and  N_27
REMARK                            x       y       z     vdW  Elec       q    Type
REMARK                         _______ _______ _______ _____ _____    ______ ____
ROOT
ATOM      1  N   UNL     1       7.350   7.671  17.935  0.00  0.00    +0.000 N 
ATOM      2  C   UNL     1       6.998   6.604  17.175  0.00  0.00    +0.000 A 
ATOM      3  N   UNL     1       7.461   6.279  15.988  0.00  0.00    +0.000 NA
ATOM      4  C   UNL     1       6.589   5.317  15.551  0.00  0.00    +0.000 A 
ATOM      5  N   UNL     1       5.650   4.964  16.436  0.00  0.00    +0.000 NA
ATOM      6  N   UNL     1       5.973   5.724  17.513  0.00  0.00    +0.000 N 
ATOM      7  C   UNL     1       5.304   5.519  18.731  0.00  0.00    +0.000 C 
ATOM      8  O   UNL     1       5.861   5.852  19.776  0.00  0.00    +0.000 OA
ATOM      9  H   UNL     1       6.615   8.335  18.162  0.00  0.00    +0.000 HD
ENDROOT
BRANCH   7  10
ATOM     10  C   UNL     1       3.934   4.943  18.817  0.00  0.00    +0.000 A 
ATOM     11  C   UNL     1       3.084   4.968  17.702  0.00  0.00    +0.000 A 
ATOM     12  C   UNL     1       1.846   4.316  17.748  0.00  0.00    +0.000 A 
ATOM     13  C   UNL     1       1.461   3.624  18.898  0.00  0.00    +0.000 A 
ATOM     14  C   UNL     1       2.317   3.599  20.008  0.00  0.00    +0.000 A 
ATOM     15  C   UNL     1       3.549   4.258  19.975  0.00  0.00    +0.000 A 
BRANCH  14  16
ATOM     16  N   UNL     1       1.942   2.831  21.206  0.00  0.00    +0.000 N 
ATOM     17  O   UNL     1       2.849   2.470  21.964  0.00  0.00    +0.000 OA
ATOM     18  O   UNL     1       0.740   2.602  21.388  0.00  0.00    +0.000 OA
ENDBRANCH  14  16
ENDBRANCH   7  10
BRANCH   4  19
ATOM     19  C   UNL     1       6.634   4.746  14.175  0.00  0.00    +0.000 A 
ATOM     20  C   UNL     1       5.840   3.722  13.697  0.00  0.00    +0.000 A 
ATOM     21  C   UNL     1       6.250   3.475  12.363  0.00  0.00    +0.000 A 
ATOM     22  C   UNL     1       7.261   4.368  12.104  0.00  0.00    +0.000 A 
ATOM     23  O   UNL     1       7.498   5.144  13.192  0.00  0.00    +0.000 OA
ENDBRANCH   4  19
BRANCH   1  24
ATOM     24  C   UNL     1       8.637   8.312  17.731  0.00  0.00    +0.000 C 
BRANCH  24  28
ATOM     25  C   UNL     1       8.957  12.415  19.229  0.00  0.00    +0.000 A 
ATOM     26  C   UNL     1       9.417  11.314  19.971  0.00  0.00    +0.000 A 
ATOM     27  C   UNL     1       9.281   9.991  19.515  0.00  0.00    +0.000 A 
ATOM     28  C   UNL     1       8.700   9.718  18.275  0.00  0.00    +0.000 A 
ATOM     29  C   UNL     1       8.225  10.795  17.526  0.00  0.00    +0.000 A 
ATOM     30  C   UNL     1       8.356  12.114  17.996  0.00  0.00    +0.000 A 
BRANCH  25  32
ATOM     31  C   UNL     1       8.333  14.218  20.812  0.00  0.00    +0.000 C 
ATOM     32  N   UNL     1       9.099  13.730  19.673  0.00  0.00    +0.000 N 
ATOM     33  C   UNL     1       9.633  14.738  18.754  0.00  0.00    +0.000 C 
ENDBRANCH  25  32
ENDBRANCH  24  28
ENDBRANCH   1  24
TORSDOF 6
ENDMDL
MODEL 4
REMARK VINA RESULT:      -8.3      7.606     10.364
REMARK  Name = 
REMARK  8 active torsions:
REMARK  status: ('A' for Active; 'I' for Inactive)
REMARK    1  A    between atoms: C_1  and  N_2
REMARK    2  A    between atoms: N_2  and  C_3
REMARK    3  A    between atoms: N_2  and  C_4
REMARK    4  A    between atoms: C_7  and  C_8
REMARK    5  A    between atoms: C_8  and  N_9
REMARK    6  A    between atoms: C_12  and  C_13
REMARK    7  A    between atoms: C_20  and  C_22
REMARK    8  A    between atoms: C_26  and  N_27
REMARK                            x       y       z     vdW  Elec       q    Type
REMARK                         _______ _______ _______ _____ _____    ______ ____
ROOT
ATOM      1  N   UNL     1       7.261   7.626  17.775  0.00  0.00    +0.000 N 
ATOM      2  C   UNL     1       6.918   6.525  17.059  0.00  0.00    +0.000 A 
ATOM      3  N   UNL     1       7.366   6.168  15.876  0.00  0.00    +0.000 NA
ATOM      4  C   UNL     1       6.508   5.173  15.490  0.00  0.00    +0.000 A 
ATOM      5  N   UNL     1       5.592   4.833  16.404  0.00  0.00    +0.000 NA
ATOM      6  N   UNL     1       5.918   5.637  17.447  0.00  0.00    +0.000 N 
ATOM      7  C   UNL     1       5.276   5.461  18.684  0.00  0.00    +0.000 C 
ATOM      8  O   UNL     1       5.844   5.843  19.706  0.00  0.00    +0.000 OA
ATOM      9  H   UNL     1       6.516   8.282  17.992  0.00  0.00    +0.000 HD
ENDROOT
BRANCH   7  10
ATOM     10  C   UNL     1       3.920   4.861  18.815  0.00  0.00    +0.000 A 
ATOM     11  C   UNL     1       3.043   4.846  17.721  0.00  0.00    +0.000 A 
ATOM     12  C   UNL     1       1.819   4.172  17.812  0.00  0.00    +0.000 A 
ATOM     13  C   UNL     1       1.476   3.496  18.984  0.00  0.00    +0.000 A 
ATOM     14  C   UNL     1       2.359   3.511  20.073  0.00  0.00    +0.000 A 
ATOM     15  C   UNL     1       3.576   4.193  19.996  0.00  0.00    +0.000 A 
BRANCH  14  16
ATOM     16  N   UNL     1       2.029   2.760  21.295  0.00  0.00    +0.000 N 
ATOM     17  O   UNL     1       0.835   2.630  21.585  0.00  0.00    +0.000 OA
ATOM     18  O   UNL     1       2.968   2.294  21.953  0.00  0.00    +0.000 OA
ENDBRANCH  14  16
ENDBRANCH   7  10
BRANCH   4  19
ATOM     19  C   UNL     1       6.540   4.555  14.134  0.00  0.00    +0.000 A 
ATOM     20  C   UNL     1       7.456   4.835  13.138  0.00  0.00    +0.000 A 
ATOM     21  C   UNL     1       7.086   4.056  12.013  0.00  0.00    +0.000 A 
ATOM     22  C   UNL     1       5.976   3.342  12.392  0.00  0.00    +0.000 A 
ATOM     23  O   UNL     1       5.640   3.632  13.674  0.00  0.00    +0.000 OA
ENDBRANCH   4  19
BRANCH   1  24
ATOM     24  C   UNL     1       8.530   8.285  17.524  0.00  0.00    +0.000 C 
BRANCH  24  28
ATOM     25  C   UNL     1       9.036  12.193  19.436  0.00  0.00    +0.000 A 
ATOM     26  C   UNL     1       9.364  10.995  20.093  0.00  0.00    +0.000 A 
ATOM     27  C   UNL     1       9.167   9.735  19.502  0.00  0.00    +0.000 A 
ATOM     28  C   UNL     1       8.655   9.625  18.207  0.00  0.00    +0.000 A 
ATOM     29  C   UNL     1       8.311  10.801  17.540  0.00  0.00    +0.000 A 
ATOM     30  C   UNL     1       8.502  12.056  18.145  0.00  0.00    +0.000 A 
BRANCH  25  32
ATOM     31  C   UNL     1       8.909  14.665  19.292  0.00  0.00    +0.000 C 
ATOM     32  N   UNL     1       9.240  13.445  20.016  0.00  0.00    +0.000 N 
ATOM     33  C   UNL     1      10.193  13.571  21.123  0.00  0.00    +0.000 C 
ENDBRANCH  25  32
ENDBRANCH  24  28
ENDBRANCH   1  24
TORSDOF 6
ENDMDL
MODEL 5
REMARK VINA RESULT:      -8.3      1.583      1.925
REMARK  Name = 
REMARK  8 active torsions:
REMARK  status: ('A' for Active; 'I' for Inactive)
REMARK    1  A    between atoms: C_1  and  N_2
REMARK    2  A    between atoms: N_2  and  C_3
REMARK    3  A    between atoms: N_2  and  C_4
REMARK    4  A    between atoms: C_7  and  C_8
REMARK    5  A    between atoms: C_8  and  N_9
REMARK    6  A    between atoms: C_12  and  C_13
REMARK    7  A    between atoms: C_20  and  C_22
REMARK    8  A    between atoms: C_26  and  N_27
REMARK                            x       y       z     vdW  Elec       q    Type
REMARK                         _______ _______ _______ _____ _____    ______ ____
ROOT
ATOM      1  N   UNL     1       1.858   9.628  18.935  0.00  0.00    +0.000 N 
ATOM      2  C   UNL     1       0.539   9.927  18.828  0.00  0.00    +0.000 A 
ATOM      3  N   UNL     1      -0.247   9.722  17.795  0.00  0.00    +0.000 NA
ATOM      4  C   UNL     1      -1.368  10.453  18.088  0.00  0.00    +0.000 A 
ATOM      5  N   UNL     1      -1.357  11.042  19.288  0.00  0.00    +0.000 NA
ATOM      6  N   UNL     1      -0.172  10.625  19.801  0.00  0.00    +0.000 N 
ATOM      7  C   UNL     1       0.140  10.906  21.141  0.00  0.00    +0.000 C 
ATOM      8  O   UNL     1       0.951  10.187  21.724  0.00  0.00    +0.000 OA
ATOM      9  H   UNL     1       2.494  10.405  19.096  0.00  0.00    +0.000 HD
ENDROOT
BRANCH   7  10
ATOM     10  C   UNL     1      -0.441  12.058  21.885  0.00  0.00    +0.000 A 
ATOM     11  C   UNL     1      -1.510  11.862  22.770  0.00  0.00    +0.000 A 
ATOM     12  C   UNL     1      -1.972  12.922  23.559  0.00  0.00    +0.000 A 
ATOM     13  C   UNL     1      -1.357  14.174  23.481  0.00  0.00    +0.000 A 
ATOM     14  C   UNL     1      -0.285  14.362  22.597  0.00  0.00    +0.000 A 
ATOM     15  C   UNL     1       0.173  13.313  21.795  0.00  0.00    +0.000 A 
BRANCH  14  16
ATOM     16  N   UNL     1       0.401  15.662  22.543  0.00  0.00    +0.000 N 
ATOM     17  O   UNL     1       1.628  15.672  22.699  0.00  0.00    +0.000 OA
ATOM     18  O   UNL     1      -0.289  16.668  22.333  0.00  0.00    +0.000 OA
ENDBRANCH  14  16
ENDBRANCH   7  10
BRANCH   4  19
ATOM     19  C   UNL     1      -2.491  10.637  17.125  0.00  0.00    +0.000 A 
ATOM     20  C   UNL     1      -2.538  10.151  15.833  0.00  0.00    +0.000 A 
ATOM     21  C   UNL     1      -3.761  10.597  15.273  0.00  0.00    +0.000 A 
ATOM     22  C   UNL     1      -4.390  11.319  16.258  0.00  0.00    +0.000 A 
ATOM     23  O   UNL     1      -3.633  11.345  17.383  0.00  0.00    +0.000 OA
ENDBRANCH   4  19
BRANCH   1  24
ATOM     24  C   UNL     1       2.437   8.599  18.090  0.00  0.00    +0.000 C 
BRANCH  24  28
ATOM     25  C   UNL     1       1.900   4.568  19.716  0.00  0.00    +0.000 A 
ATOM     26  C   UNL     1       1.869   5.711  20.534  0.00  0.00    +0.000 A 
ATOM     27  C   UNL     1       2.080   7.004  20.026  0.00  0.00    +0.000 A 
ATOM     28  C   UNL     1       2.306   7.209  18.663  0.00  0.00    +0.000 A 
ATOM     29  C   UNL     1       2.353   6.088  17.834  0.00  0.00    +0.000 A 
ATOM     30  C   UNL     1       2.151   4.797  18.354  0.00  0.00    +0.000 A 
BRANCH  25  32
ATOM     31  C   UNL     1       1.935   2.974  21.615  0.00  0.00    +0.000 C 
ATOM     32  N   UNL     1       1.681   3.284  20.215  0.00  0.00    +0.000 N 
ATOM     33  C   UNL     1       1.651   2.154  19.282  0.00  0.00    +0.000 C 
ENDBRANCH  25  32
ENDBRANCH  24  28
ENDBRANCH   1  24
TORSDOF 6
ENDMDL
MODEL 6
REMARK VINA RESULT:      -8.2      7.027     10.382
REMARK  Name = 
REMARK  8 active torsions:
REMARK  status: ('A' for Active; 'I' for Inactive)
REMARK    1  A    between atoms: C_1  and  N_2
REMARK    2  A    between atoms: N_2  and  C_3
REMARK    3  A    between atoms: N_2  and  C_4
REMARK    4  A    between atoms: C_7  and  C_8
REMARK    5  A    between atoms: C_8  and  N_9
REMARK    6  A    between atoms: C_12  and  C_13
REMARK    7  A    between atoms: C_20  and  C_22
REMARK    8  A    between atoms: C_26  and  N_27
REMARK                            x       y       z     vdW  Elec       q    Type
REMARK                         _______ _______ _______ _____ _____    ______ ____
ROOT
ATOM      1  N   UNL     1       7.534   7.812  17.840  0.00  0.00    +0.000 N 
ATOM      2  C   UNL     1       7.282   6.666  17.158  0.00  0.00    +0.000 A 
ATOM      3  N   UNL     1       7.559   6.406  15.899  0.00  0.00    +0.000 NA
ATOM      4  C   UNL     1       6.851   5.263  15.640  0.00  0.00    +0.000 A 
ATOM      5  N   UNL     1       6.207   4.748  16.693  0.00  0.00    +0.000 NA
ATOM      6  N   UNL     1       6.564   5.598  17.689  0.00  0.00    +0.000 N 
ATOM      7  C   UNL     1       6.212   5.297  19.015  0.00  0.00    +0.000 C 
ATOM      8  O   UNL     1       6.878   5.781  19.929  0.00  0.00    +0.000 OA
ATOM      9  H   UNL     1       6.731   8.308  18.217  0.00  0.00    +0.000 HD
ENDROOT
BRANCH   7  10
ATOM     10  C   UNL     1       5.047   4.441  19.372  0.00  0.00    +0.000 A 
ATOM     11  C   UNL     1       5.212   3.060  19.553  0.00  0.00    +0.000 A 
ATOM     12  C   UNL     1       4.143   2.280  20.008  0.00  0.00    +0.000 A 
ATOM     13  C   UNL     1       2.914   2.875  20.301  0.00  0.00    +0.000 A 
ATOM     14  C   UNL     1       2.757   4.257  20.122  0.00  0.00    +0.000 A 
ATOM     15  C   UNL     1       3.815   5.041  19.654  0.00  0.00    +0.000 A 
BRANCH  14  16
ATOM     16  N   UNL     1       1.483   4.902  20.474  0.00  0.00    +0.000 N 
ATOM     17  O   UNL     1       0.454   4.218  20.408  0.00  0.00    +0.000 OA
ATOM     18  O   UNL     1       1.518   6.087  20.827  0.00  0.00    +0.000 OA
ENDBRANCH  14  16
ENDBRANCH   7  10
BRANCH   4  19
ATOM     19  C   UNL     1       6.745   4.665  14.278  0.00  0.00    +0.000 A 
ATOM     20  C   UNL     1       7.557   4.959  13.200  0.00  0.00    +0.000 A 
ATOM     21  C   UNL     1       7.075   4.199  12.106  0.00  0.00    +0.000 A 
ATOM     22  C   UNL     1       6.005   3.481  12.583  0.00  0.00    +0.000 A 
ATOM     23  O   UNL     1       5.801   3.752  13.897  0.00  0.00    +0.000 OA
ENDBRANCH   4  19
BRANCH   1  24
ATOM     24  C   UNL     1       8.581   8.708  17.385  0.00  0.00    +0.000 C 
BRANCH  24  28
ATOM     25  C   UNL     1       9.341  12.160  19.972  0.00  0.00    +0.000 A 
ATOM     26  C   UNL     1       9.385  10.842  20.457  0.00  0.00    +0.000 A 
ATOM     27  C   UNL     1       9.103   9.731  19.643  0.00  0.00    +0.000 A 
ATOM     28  C   UNL     1       8.790   9.896  18.293  0.00  0.00    +0.000 A 
ATOM     29  C   UNL     1       8.729  11.197  17.792  0.00  0.00    +0.000 A 
ATOM     30  C   UNL     1       9.001  12.301  18.617  0.00  0.00    +0.000 A 
BRANCH  25  32
ATOM     31  C   UNL     1       8.657  13.760  21.738  0.00  0.00    +0.000 C 
ATOM     32  N   UNL     1       9.630  13.264  20.775  0.00  0.00    +0.000 N 
ATOM     33  C   UNL     1      10.676  14.198  20.350  0.00  0.00    +0.000 C 
ENDBRANCH  25  32
ENDBRANCH  24  28
ENDBRANCH   1  24
TORSDOF 6
ENDMDL
MODEL 7
REMARK VINA RESULT:      -8.2      1.569      2.150
REMARK  Name = 
REMARK  8 active torsions:
REMARK  status: ('A' for Active; 'I' for Inactive)
REMARK    1  A    between atoms: C_1  and  N_2
REMARK    2  A    between atoms: N_2  and  C_3
REMARK    3  A    between atoms: N_2  and  C_4
REMARK    4  A    between atoms: C_7  and  C_8
REMARK    5  A    between atoms: C_8  and  N_9
REMARK    6  A    between atoms: C_12  and  C_13
REMARK    7  A    between atoms: C_20  and  C_22
REMARK    8  A    between atoms: C_26  and  N_27
REMARK                            x       y       z     vdW  Elec       q    Type
REMARK                         _______ _______ _______ _____ _____    ______ ____
ROOT
ATOM      1  N   UNL     1       1.873   9.631  18.987  0.00  0.00    +0.000 N 
ATOM      2  C   UNL     1       0.551   9.909  18.864  0.00  0.00    +0.000 A 
ATOM      3  N   UNL     1      -0.217   9.700  17.817  0.00  0.00    +0.000 NA
ATOM      4  C   UNL     1      -1.354  10.409  18.100  0.00  0.00    +0.000 A 
ATOM      5  N   UNL     1      -1.370  10.989  19.306  0.00  0.00    +0.000 NA
ATOM      6  N   UNL     1      -0.186  10.586  19.832  0.00  0.00    +0.000 N 
ATOM      7  C   UNL     1       0.103  10.861  21.179  0.00  0.00    +0.000 C 
ATOM      8  O   UNL     1       0.916  10.150  21.768  0.00  0.00    +0.000 OA
ATOM      9  H   UNL     1       2.493  10.417  19.164  0.00  0.00    +0.000 HD
ENDROOT
BRANCH   7  10
ATOM     10  C   UNL     1      -0.508  11.996  21.924  0.00  0.00    +0.000 A 
ATOM     11  C   UNL     1      -1.565  11.769  22.818  0.00  0.00    +0.000 A 
ATOM     12  C   UNL     1      -2.053  12.817  23.608  0.00  0.00    +0.000 A 
ATOM     13  C   UNL     1      -1.478  14.087  23.522  0.00  0.00    +0.000 A 
ATOM     14  C   UNL     1      -0.419  14.306  22.630  0.00  0.00    +0.000 A 
ATOM     15  C   UNL     1       0.065  13.269  21.827  0.00  0.00    +0.000 A 
BRANCH  14  16
ATOM     16  N   UNL     1       0.226  15.626  22.568  0.00  0.00    +0.000 N 
ATOM     17  O   UNL     1       0.199  16.230  21.490  0.00  0.00    +0.000 OA
ATOM     18  O   UNL     1       0.749  16.059  23.604  0.00  0.00    +0.000 OA
ENDBRANCH  14  16
ENDBRANCH   7  10
BRANCH   4  19
ATOM     19  C   UNL     1      -2.466  10.584  17.123  0.00  0.00    +0.000 A 
ATOM     20  C   UNL     1      -2.555   9.984  15.882  0.00  0.00    +0.000 A 
ATOM     21  C   UNL     1      -3.745  10.463  15.281  0.00  0.00    +0.000 A 
ATOM     22  C   UNL     1      -4.316  11.317  16.193  0.00  0.00    +0.000 A 
ATOM     23  O   UNL     1      -3.553  11.393  17.313  0.00  0.00    +0.000 OA
ENDBRANCH   4  19
BRANCH   1  24
ATOM     24  C   UNL     1       2.481   8.620  18.142  0.00  0.00    +0.000 C 
BRANCH  24  28
ATOM     25  C   UNL     1       2.122   4.539  19.693  0.00  0.00    +0.000 A 
ATOM     26  C   UNL     1       2.284   4.803  18.322  0.00  0.00    +0.000 A 
ATOM     27  C   UNL     1       2.360   6.111  17.812  0.00  0.00    +0.000 A 
ATOM     28  C   UNL     1       2.303   7.215  18.664  0.00  0.00    +0.000 A 
ATOM     29  C   UNL     1       2.130   6.978  20.029  0.00  0.00    +0.000 A 
ATOM     30  C   UNL     1       2.044   5.666  20.527  0.00  0.00    +0.000 A 
BRANCH  25  32
ATOM     31  C   UNL     1       1.668   2.126  19.354  0.00  0.00    +0.000 C 
ATOM     32  N   UNL     1       2.056   3.243  20.204  0.00  0.00    +0.000 N 
ATOM     33  C   UNL     1       1.913   3.055  21.650  0.00  0.00    +0.000 C 
ENDBRANCH  25  32
ENDBRANCH  24  28
ENDBRANCH   1  24
TORSDOF 6
ENDMDL
MODEL 8
REMARK VINA RESULT:      -8.1      1.819      2.274
REMARK  Name = 
REMARK  8 active torsions:
REMARK  status: ('A' for Active; 'I' for Inactive)
REMARK    1  A    between atoms: C_1  and  N_2
REMARK    2  A    between atoms: N_2  and  C_3
REMARK    3  A    between atoms: N_2  and  C_4
REMARK    4  A    between atoms: C_7  and  C_8
REMARK    5  A    between atoms: C_8  and  N_9
REMARK    6  A    between atoms: C_12  and  C_13
REMARK    7  A    between atoms: C_20  and  C_22
REMARK    8  A    between atoms: C_26  and  N_27
REMARK                            x       y       z     vdW  Elec       q    Type
REMARK                         _______ _______ _______ _____ _____    ______ ____
ROOT
ATOM      1  N   UNL     1       1.967   9.390  18.755  0.00  0.00    +0.000 N 
ATOM      2  C   UNL     1       0.652   9.705  18.636  0.00  0.00    +0.000 A 
ATOM      3  N   UNL     1      -0.118   9.542  17.583  0.00  0.00    +0.000 NA
ATOM      4  C   UNL     1      -1.237  10.272  17.882  0.00  0.00    +0.000 A 
ATOM      5  N   UNL     1      -1.242  10.820  19.102  0.00  0.00    +0.000 NA
ATOM      6  N   UNL     1      -0.070  10.374  19.621  0.00  0.00    +0.000 N 
ATOM      7  C   UNL     1       0.222  10.606  20.975  0.00  0.00    +0.000 C 
ATOM      8  O   UNL     1       1.015   9.860  21.546  0.00  0.00    +0.000 OA
ATOM      9  H   UNL     1       2.606  10.155  18.954  0.00  0.00    +0.000 HD
ENDROOT
BRANCH   7  10
ATOM     10  C   UNL     1      -0.363  11.736  21.748  0.00  0.00    +0.000 A 
ATOM     11  C   UNL     1      -1.346  11.496  22.719  0.00  0.00    +0.000 A 
ATOM     12  C   UNL     1      -1.803  12.543  23.529  0.00  0.00    +0.000 A 
ATOM     13  C   UNL     1      -1.268  13.825  23.386  0.00  0.00    +0.000 A 
ATOM     14  C   UNL     1      -0.282  14.058  22.417  0.00  0.00    +0.000 A 
ATOM     15  C   UNL     1       0.169  13.022  21.594  0.00  0.00    +0.000 A 
BRANCH  14  16
ATOM     16  N   UNL     1       0.323  15.392  22.291  0.00  0.00    +0.000 N 
ATOM     17  O   UNL     1       1.257  15.674  23.051  0.00  0.00    +0.000 OA
ATOM     18  O   UNL     1      -0.131  16.150  21.424  0.00  0.00    +0.000 OA
ENDBRANCH  14  16
ENDBRANCH   7  10
BRANCH   4  19
ATOM     19  C   UNL     1      -2.341  10.500  16.907  0.00  0.00    +0.000 A 
ATOM     20  C   UNL     1      -3.496  11.219  17.146  0.00  0.00    +0.000 A 
ATOM     21  C   UNL     1      -4.278  11.140  15.967  0.00  0.00    +0.000 A 
ATOM     22  C   UNL     1      -3.551  10.387  15.078  0.00  0.00    +0.000 A 
ATOM     23  O   UNL     1      -2.376   9.999  15.635  0.00  0.00    +0.000 OA
ENDBRANCH   4  19
BRANCH   1  24
ATOM     24  C   UNL     1       2.552   8.386  17.885  0.00  0.00    +0.000 C 
BRANCH  24  28
ATOM     25  C   UNL     1       2.837   4.436  19.757  0.00  0.00    +0.000 A 
ATOM     26  C   UNL     1       3.289   4.674  18.448  0.00  0.00    +0.000 A 
ATOM     27  C   UNL     1       3.165   5.929  17.826  0.00  0.00    +0.000 A 
ATOM     28  C   UNL     1       2.602   7.011  18.505  0.00  0.00    +0.000 A 
ATOM     29  C   UNL     1       2.135   6.796  19.802  0.00  0.00    +0.000 A 
ATOM     30  C   UNL     1       2.255   5.534  20.411  0.00  0.00    +0.000 A 
BRANCH  25  32
ATOM     31  C   UNL     1       2.277   2.915  21.633  0.00  0.00    +0.000 C 
ATOM     32  N   UNL     1       2.967   3.196  20.381  0.00  0.00    +0.000 N 
ATOM     33  C   UNL     1       4.126   2.357  20.061  0.00  0.00    +0.000 C 
ENDBRANCH  25  32
ENDBRANCH  24  28
ENDBRANCH   1  24
TORSDOF 6
ENDMDL
MODEL 9
REMARK VINA RESULT:      -7.9      3.149      4.396
REMARK  Name = 
REMARK  8 active torsions:
REMARK  status: ('A' for Active; 'I' for Inactive)
REMARK    1  A    between atoms: C_1  and  N_2
REMARK    2  A    between atoms: N_2  and  C_3
REMARK    3  A    between atoms: N_2  and  C_4
REMARK    4  A    between atoms: C_7  and  C_8
REMARK    5  A    between atoms: C_8  and  N_9
REMARK    6  A    between atoms: C_12  and  C_13
REMARK    7  A    between atoms: C_20  and  C_22
REMARK    8  A    between atoms: C_26  and  N_27
REMARK                            x       y       z     vdW  Elec       q    Type
REMARK                         _______ _______ _______ _____ _____    ______ ____
ROOT
ATOM      1  N   UNL     1       1.136  10.144  20.410  0.00  0.00    +0.000 N 
ATOM      2  C   UNL     1       0.095  10.770  19.805  0.00  0.00    +0.000 A 
ATOM      3  N   UNL     1      -0.874  10.219  19.109  0.00  0.00    +0.000 NA
ATOM      4  C   UNL     1      -1.475  11.283  18.489  0.00  0.00    +0.000 A 
ATOM      5  N   UNL     1      -0.982  12.481  18.823  0.00  0.00    +0.000 NA
ATOM      6  N   UNL     1      -0.037  12.155  19.741  0.00  0.00    +0.000 N 
ATOM      7  C   UNL     1       0.608  13.173  20.462  0.00  0.00    +0.000 C 
ATOM      8  O   UNL     1       1.103  12.902  21.556  0.00  0.00    +0.000 OA
ATOM      9  H   UNL     1       2.069  10.397  20.096  0.00  0.00    +0.000 HD
ENDROOT
BRANCH   7  10
ATOM     10  C   UNL     1       0.750  14.564  19.952  0.00  0.00    +0.000 A 
ATOM     11  C   UNL     1       0.079  15.622  20.581  0.00  0.00    +0.000 A 
ATOM     12  C   UNL     1       0.312  16.941  20.176  0.00  0.00    +0.000 A 
ATOM     13  C   UNL     1       1.228  17.210  19.156  0.00  0.00    +0.000 A 
ATOM     14  C   UNL     1       1.900  16.149  18.534  0.00  0.00    +0.000 A 
ATOM     15  C   UNL     1       1.662  14.827  18.923  0.00  0.00    +0.000 A 
BRANCH  14  16
ATOM     16  N   UNL     1       2.903  16.425  17.495  0.00  0.00    +0.000 N 
ATOM     17  O   UNL     1       2.894  17.544  16.969  0.00  0.00    +0.000 OA
ATOM     18  O   UNL     1       3.704  15.523  17.216  0.00  0.00    +0.000 OA
ENDBRANCH  14  16
ENDBRANCH   7  10
BRANCH   4  19
ATOM     19  C   UNL     1      -2.552  11.126  17.471  0.00  0.00    +0.000 A 
ATOM     20  C   UNL     1      -2.446  10.434  16.280  0.00  0.00    +0.000 A 
ATOM     21  C   UNL     1      -3.686  10.582  15.610  0.00  0.00    +0.000 A 
ATOM     22  C   UNL     1      -4.476  11.346  16.434  0.00  0.00    +0.000 A 
ATOM     23  O   UNL     1      -3.801  11.677  17.564  0.00  0.00    +0.000 OA
ENDBRANCH   4  19
BRANCH   1  24
ATOM     24  C   UNL     1       1.028   8.741  20.767  0.00  0.00    +0.000 C 
BRANCH  24  28
ATOM     25  C   UNL     1       3.425   6.134  18.189  0.00  0.00    +0.000 A 
ATOM     26  C   UNL     1       3.070   7.439  17.805  0.00  0.00    +0.000 A 
ATOM     27  C   UNL     1       2.267   8.267  18.609  0.00  0.00    +0.000 A 
ATOM     28  C   UNL     1       1.807   7.828  19.852  0.00  0.00    +0.000 A 
ATOM     29  C   UNL     1       2.137   6.532  20.249  0.00  0.00    +0.000 A 
ATOM     30  C   UNL     1       2.931   5.708  19.432  0.00  0.00    +0.000 A 
BRANCH  25  32
ATOM     31  C   UNL     1       5.009   5.868  16.301  0.00  0.00    +0.000 C 
ATOM     32  N   UNL     1       4.228   5.313  17.398  0.00  0.00    +0.000 N 
ATOM     33  C   UNL     1       3.946   3.876  17.350  0.00  0.00    +0.000 C 
ENDBRANCH  25  32
ENDBRANCH  24  28
ENDBRANCH   1  24
TORSDOF 6
ENDMDL
