MODEL 1
REMARK VINA RESULT:      -8.4      0.000      0.000
REMARK  Name = 
REMARK  3 active torsions:
REMARK  status: ('A' for Active; 'I' for Inactive)
REMARK    1  A    between atoms: C_2  and  C_10
REMARK    2  A    between atoms: N_3  and  C_4
REMARK    3  A    between atoms: C_15  and  N_16
REMARK                            x       y       z     vdW  Elec       q    Type
REMARK                         _______ _______ _______ _____ _____    ______ ____
ROOT
ATOM      1  C   UNL     1       5.373   5.501  16.385  0.00  0.00    +0.000 A 
ATOM      2  C   UNL     1       6.131   5.926  15.271  0.00  0.00    +0.000 A 
ATOM      3  C   UNL     1       6.537   5.022  14.292  0.00  0.00    +0.000 A 
ATOM      4  C   UNL     1       6.143   3.693  14.381  0.00  0.00    +0.000 A 
ATOM      5  C   UNL     1       5.345   3.268  15.444  0.00  0.00    +0.000 A 
ATOM      6  C   UNL     1       4.968   4.159  16.467  0.00  0.00    +0.000 A 
ENDROOT
BRANCH   6   7
ATOM      7  N   UNL     1       4.131   3.672  17.509  0.00  0.00    +0.000 N 
ATOM      8  C   UNL     1       2.869   3.151  17.319  0.00  0.00    +0.000 A 
ATOM      9  C   UNL     1       2.290   3.238  18.549  0.00  0.00    +0.000 A 
ATOM     10  C   UNL     1       0.932   3.115  18.801  0.00  0.00    +0.000 A 
ATOM     11  C   UNL     1       0.682   3.097  20.184  0.00  0.00    +0.000 A 
ATOM     12  C   UNL     1       1.715   3.127  21.175  0.00  0.00    +0.000 A 
ATOM     13  C   UNL     1       3.093   3.278  20.872  0.00  0.00    +0.000 A 
ATOM     14  C   UNL     1       3.360   3.386  19.494  0.00  0.00    +0.000 A 
ATOM     15  N   UNL     1       4.508   3.613  18.818  0.00  0.00    +0.000 NA
ENDBRANCH   6   7
BRANCH   1  17
ATOM     16  O   UNL     1       5.745   7.305  17.850  0.00  0.00    +0.000 OA
ATOM     17  C   UNL     1       4.925   6.554  17.337  0.00  0.00    +0.000 C 
ATOM     18  N   UNL     1       3.563   6.468  17.620  0.00  0.00    +0.000 N 
ATOM     19  H   UNL     1       3.060   5.663  17.275  0.00  0.00    +0.000 HD
BRANCH  18  20
ATOM     20  C   UNL     1       2.786   7.393  18.332  0.00  0.00    +0.000 A 
ATOM     21  C   UNL     1       2.311   8.574  17.764  0.00  0.00    +0.000 A 
ATOM     22  C   UNL     1       1.456   9.402  18.493  0.00  0.00    +0.000 A 
ATOM     23  C   UNL     1       1.092   9.068  19.798  0.00  0.00    +0.000 A 
ATOM     24  C   UNL     1       1.578   7.898  20.375  0.00  0.00    +0.000 A 
ATOM     25  C   UNL     1       2.415   7.056  19.639  0.00  0.00    +0.000 A 
ENDBRANCH  18  20
ENDBRANCH   1  17
TORSDOF 3
ENDMDL
MODEL 2
REMARK VINA RESULT:      -8.3      1.558      4.952
REMARK  Name = 
REMARK  3 active torsions:
REMARK  status: ('A' for Active; 'I' for Inactive)
REMARK    1  A    between atoms: C_2  and  C_10
REMARK    2  A    between atoms: N_3  and  C_4
REMARK    3  A    between atoms: C_15  and  N_16
REMARK                            x       y       z     vdW  Elec       q    Type
REMARK                         _______ _______ _______ _____ _____    ______ ____
ROOT
ATOM      1  C   UNL     1       2.316   4.323  19.848  0.00  0.00    +0.000 A 
ATOM      2  C   UNL     1       1.402   4.041  20.887  0.00  0.00    +0.000 A 
ATOM      3  C   UNL     1       1.579   2.937  21.718  0.00  0.00    +0.000 A 
ATOM      4  C   UNL     1       2.700   2.132  21.559  0.00  0.00    +0.000 A 
ATOM      5  C   UNL     1       3.644   2.431  20.576  0.00  0.00    +0.000 A 
ATOM      6  C   UNL     1       3.454   3.515  19.696  0.00  0.00    +0.000 A 
ENDROOT
BRANCH   6   7
ATOM      7  N   UNL     1       4.464   3.784  18.733  0.00  0.00    +0.000 N 
ATOM      8  C   UNL     1       5.601   4.525  18.977  0.00  0.00    +0.000 A 
ATOM      9  C   UNL     1       6.024   4.895  17.736  0.00  0.00    +0.000 A 
ATOM     10  C   UNL     1       6.954   5.890  17.475  0.00  0.00    +0.000 A 
ATOM     11  C   UNL     1       7.286   5.915  16.110  0.00  0.00    +0.000 A 
ATOM     12  C   UNL     1       6.776   4.979  15.154  0.00  0.00    +0.000 A 
ATOM     13  C   UNL     1       5.806   3.990  15.461  0.00  0.00    +0.000 A 
ATOM     14  C   UNL     1       5.392   4.002  16.807  0.00  0.00    +0.000 A 
ATOM     15  N   UNL     1       4.452   3.288  17.462  0.00  0.00    +0.000 NA
ENDBRANCH   6   7
BRANCH   1  17
ATOM     16  O   UNL     1       1.865   5.499  17.859  0.00  0.00    +0.000 OA
ATOM     17  C   UNL     1       2.081   5.566  19.063  0.00  0.00    +0.000 C 
ATOM     18  N   UNL     1       2.261   6.718  19.827  0.00  0.00    +0.000 N 
ATOM     19  H   UNL     1       2.641   6.612  20.757  0.00  0.00    +0.000 HD
BRANCH  18  20
ATOM     20  C   UNL     1       1.957   8.035  19.456  0.00  0.00    +0.000 A 
ATOM     21  C   UNL     1       2.315   8.574  18.222  0.00  0.00    +0.000 A 
ATOM     22  C   UNL     1       1.891   9.857  17.873  0.00  0.00    +0.000 A 
ATOM     23  C   UNL     1       1.130  10.616  18.763  0.00  0.00    +0.000 A 
ATOM     24  C   UNL     1       0.784  10.088  20.003  0.00  0.00    +0.000 A 
ATOM     25  C   UNL     1       1.187   8.796  20.345  0.00  0.00    +0.000 A 
ENDBRANCH  18  20
ENDBRANCH   1  17
TORSDOF 3
ENDMDL
MODEL 3
REMARK VINA RESULT:      -7.7      1.344      6.069
REMARK  Name = 
REMARK  3 active torsions:
REMARK  status: ('A' for Active; 'I' for Inactive)
REMARK    1  A    between atoms: C_2  and  C_10
REMARK    2  A    between atoms: N_3  and  C_4
REMARK    3  A    between atoms: C_15  and  N_16
REMARK                            x       y       z     vdW  Elec       q    Type
REMARK                         _______ _______ _______ _____ _____    ______ ____
ROOT
ATOM      1  C   UNL     1       3.319   4.113  19.791  0.00  0.00    +0.000 A 
ATOM      2  C   UNL     1       3.251   2.723  20.030  0.00  0.00    +0.000 A 
ATOM      3  C   UNL     1       2.159   2.161  20.687  0.00  0.00    +0.000 A 
ATOM      4  C   UNL     1       1.094   2.970  21.063  0.00  0.00    +0.000 A 
ATOM      5  C   UNL     1       1.119   4.337  20.782  0.00  0.00    +0.000 A 
ATOM      6  C   UNL     1       2.237   4.928  20.162  0.00  0.00    +0.000 A 
ENDROOT
BRANCH   6   7
ATOM      7  N   UNL     1       2.191   6.320  19.878  0.00  0.00    +0.000 N 
ATOM      8  C   UNL     1       1.860   7.295  20.796  0.00  0.00    +0.000 A 
ATOM      9  C   UNL     1       1.511   8.364  20.027  0.00  0.00    +0.000 A 
ATOM     10  C   UNL     1       0.825   9.481  20.480  0.00  0.00    +0.000 A 
ATOM     11  C   UNL     1       0.761  10.465  19.480  0.00  0.00    +0.000 A 
ATOM     12  C   UNL     1       1.391  10.336  18.201  0.00  0.00    +0.000 A 
ATOM     13  C   UNL     1       2.064   9.163  17.770  0.00  0.00    +0.000 A 
ATOM     14  C   UNL     1       2.066   8.129  18.725  0.00  0.00    +0.000 A 
ATOM     15  N   UNL     1       2.524   6.859  18.671  0.00  0.00    +0.000 NA
ENDBRANCH   6   7
BRANCH   1  17
ATOM     16  O   UNL     1       5.446   5.103  19.600  0.00  0.00    +0.000 OA
ATOM     17  C   UNL     1       4.490   4.607  19.016  0.00  0.00    +0.000 C 
ATOM     18  N   UNL     1       4.283   4.538  17.639  0.00  0.00    +0.000 N 
ATOM     19  H   UNL     1       3.359   4.295  17.313  0.00  0.00    +0.000 HD
BRANCH  18  20
ATOM     20  C   UNL     1       5.231   4.755  16.629  0.00  0.00    +0.000 A 
ATOM     21  C   UNL     1       6.148   5.803  16.668  0.00  0.00    +0.000 A 
ATOM     22  C   UNL     1       7.133   5.903  15.684  0.00  0.00    +0.000 A 
ATOM     23  C   UNL     1       7.191   4.973  14.646  0.00  0.00    +0.000 A 
ATOM     24  C   UNL     1       6.267   3.934  14.594  0.00  0.00    +0.000 A 
ATOM     25  C   UNL     1       5.295   3.818  15.590  0.00  0.00    +0.000 A 
ENDBRANCH  18  20
ENDBRANCH   1  17
TORSDOF 3
ENDMDL
MODEL 4
REMARK VINA RESULT:      -7.7      1.917      5.343
REMARK  Name = 
REMARK  3 active torsions:
REMARK  status: ('A' for Active; 'I' for Inactive)
REMARK    1  A    between atoms: C_2  and  C_10
REMARK    2  A    between atoms: N_3  and  C_4
REMARK    3  A    between atoms: C_15  and  N_16
REMARK                            x       y       z     vdW  Elec       q    Type
REMARK                         _______ _______ _______ _____ _____    ______ ____
ROOT
ATOM      1  C   UNL     1       3.193   3.506  18.353  0.00  0.00    +0.000 A 
ATOM      2  C   UNL     1       3.040   2.110  18.197  0.00  0.00    +0.000 A 
ATOM      3  C   UNL     1       1.894   1.460  18.647  0.00  0.00    +0.000 A 
ATOM      4  C   UNL     1       0.860   2.200  19.206  0.00  0.00    +0.000 A 
ATOM      5  C   UNL     1       0.970   3.587  19.314  0.00  0.00    +0.000 A 
ATOM      6  C   UNL     1       2.143   4.254  18.909  0.00  0.00    +0.000 A 
ENDROOT
BRANCH   6   7
ATOM      7  N   UNL     1       2.183   5.671  19.020  0.00  0.00    +0.000 N 
ATOM      8  C   UNL     1       2.072   6.366  20.206  0.00  0.00    +0.000 A 
ATOM      9  C   UNL     1       1.717   7.622  19.817  0.00  0.00    +0.000 A 
ATOM     10  C   UNL     1       1.204   8.600  20.656  0.00  0.00    +0.000 A 
ATOM     11  C   UNL     1       1.091   9.827  19.979  0.00  0.00    +0.000 A 
ATOM     12  C   UNL     1       1.524  10.028  18.630  0.00  0.00    +0.000 A 
ATOM     13  C   UNL     1       2.023   8.992  17.799  0.00  0.00    +0.000 A 
ATOM     14  C   UNL     1       2.063   7.733  18.429  0.00  0.00    +0.000 A 
ATOM     15  N   UNL     1       2.393   6.508  17.964  0.00  0.00    +0.000 NA
ENDBRANCH   6   7
BRANCH   1  17
ATOM     16  O   UNL     1       4.829   3.753  16.679  0.00  0.00    +0.000 OA
ATOM     17  C   UNL     1       4.420   4.119  17.774  0.00  0.00    +0.000 C 
ATOM     18  N   UNL     1       5.040   5.002  18.657  0.00  0.00    +0.000 N 
ATOM     19  H   UNL     1       4.692   5.042  19.605  0.00  0.00    +0.000 HD
BRANCH  18  20
ATOM     20  C   UNL     1       6.104   5.871  18.378  0.00  0.00    +0.000 A 
ATOM     21  C   UNL     1       6.022   6.880  17.421  0.00  0.00    +0.000 A 
ATOM     22  C   UNL     1       7.079   7.779  17.264  0.00  0.00    +0.000 A 
ATOM     23  C   UNL     1       8.230   7.657  18.043  0.00  0.00    +0.000 A 
ATOM     24  C   UNL     1       8.323   6.641  18.989  0.00  0.00    +0.000 A 
ATOM     25  C   UNL     1       7.257   5.755  19.164  0.00  0.00    +0.000 A 
ENDBRANCH  18  20
ENDBRANCH   1  17
TORSDOF 3
ENDMDL
MODEL 5
REMARK VINA RESULT:      -7.6      1.582      4.822
REMARK  Name = 
REMARK  3 active torsions:
REMARK  status: ('A' for Active; 'I' for Inactive)
REMARK    1  A    between atoms: C_2  and  C_10
REMARK    2  A    between atoms: N_3  and  C_4
REMARK    3  A    between atoms: C_15  and  N_16
REMARK                            x       y       z     vdW  Elec       q    Type
REMARK                         _______ _______ _______ _____ _____    ______ ____
ROOT
ATOM      1  C   UNL     1       2.600   4.358  19.814  0.00  0.00    +0.000 A 
ATOM      2  C   UNL     1       2.018   3.876  21.008  0.00  0.00    +0.000 A 
ATOM      3  C   UNL     1       2.496   2.722  21.624  0.00  0.00    +0.000 A 
ATOM      4  C   UNL     1       3.597   2.065  21.088  0.00  0.00    +0.000 A 
ATOM      5  C   UNL     1       4.220   2.560  19.943  0.00  0.00    +0.000 A 
ATOM      6  C   UNL     1       3.719   3.698  19.281  0.00  0.00    +0.000 A 
ENDROOT
BRANCH   6   7
ATOM      7  N   UNL     1       4.414   4.169  18.133  0.00  0.00    +0.000 N 
ATOM      8  C   UNL     1       4.075   3.861  16.832  0.00  0.00    +0.000 A 
ATOM      9  C   UNL     1       5.210   4.126  16.127  0.00  0.00    +0.000 A 
ATOM     10  C   UNL     1       5.461   3.697  14.832  0.00  0.00    +0.000 A 
ATOM     11  C   UNL     1       6.647   4.268  14.340  0.00  0.00    +0.000 A 
ATOM     12  C   UNL     1       7.429   5.219  15.071  0.00  0.00    +0.000 A 
ATOM     13  C   UNL     1       7.148   5.612  16.405  0.00  0.00    +0.000 A 
ATOM     14  C   UNL     1       6.012   4.985  16.951  0.00  0.00    +0.000 A 
ATOM     15  N   UNL     1       5.469   5.031  18.187  0.00  0.00    +0.000 NA
ENDBRANCH   6   7
BRANCH   1  17
ATOM     16  O   UNL     1       1.601   5.679  18.142  0.00  0.00    +0.000 OA
ATOM     17  C   UNL     1       2.067   5.639  19.273  0.00  0.00    +0.000 C 
ATOM     18  N   UNL     1       2.285   6.710  20.138  0.00  0.00    +0.000 N 
ATOM     19  H   UNL     1       2.868   6.552  20.947  0.00  0.00    +0.000 HD
BRANCH  18  20
ATOM     20  C   UNL     1       1.768   8.008  20.024  0.00  0.00    +0.000 A 
ATOM     21  C   UNL     1       1.853   8.754  18.850  0.00  0.00    +0.000 A 
ATOM     22  C   UNL     1       1.226   9.999  18.768  0.00  0.00    +0.000 A 
ATOM     23  C   UNL     1       0.534  10.513  19.865  0.00  0.00    +0.000 A 
ATOM     24  C   UNL     1       0.460   9.780  21.045  0.00  0.00    +0.000 A 
ATOM     25  C   UNL     1       1.067   8.524  21.121  0.00  0.00    +0.000 A 
ENDBRANCH  18  20
ENDBRANCH   1  17
TORSDOF 3
ENDMDL
MODEL 6
REMARK VINA RESULT:      -7.6      2.213      5.233
REMARK  Name = 
REMARK  3 active torsions:
REMARK  status: ('A' for Active; 'I' for Inactive)
REMARK    1  A    between atoms: C_2  and  C_10
REMARK    2  A    between atoms: N_3  and  C_4
REMARK    3  A    between atoms: C_15  and  N_16
REMARK                            x       y       z     vdW  Elec       q    Type
REMARK                         _______ _______ _______ _____ _____    ______ ____
ROOT
ATOM      1  C   UNL     1       6.404   5.955  17.180  0.00  0.00    +0.000 A 
ATOM      2  C   UNL     1       7.676   6.551  17.328  0.00  0.00    +0.000 A 
ATOM      3  C   UNL     1       8.268   6.674  18.582  0.00  0.00    +0.000 A 
ATOM      4  C   UNL     1       7.626   6.153  19.698  0.00  0.00    +0.000 A 
ATOM      5  C   UNL     1       6.396   5.508  19.561  0.00  0.00    +0.000 A 
ATOM      6  C   UNL     1       5.761   5.419  18.307  0.00  0.00    +0.000 A 
ENDROOT
BRANCH   6   7
ATOM      7  N   UNL     1       4.522   4.727  18.229  0.00  0.00    +0.000 N 
ATOM      8  C   UNL     1       3.306   5.253  18.612  0.00  0.00    +0.000 A 
ATOM      9  C   UNL     1       2.517   4.157  18.792  0.00  0.00    +0.000 A 
ATOM     10  C   UNL     1       1.301   4.153  19.458  0.00  0.00    +0.000 A 
ATOM     11  C   UNL     1       0.668   2.904  19.331  0.00  0.00    +0.000 A 
ATOM     12  C   UNL     1       1.196   1.826  18.551  0.00  0.00    +0.000 A 
ATOM     13  C   UNL     1       2.458   1.867  17.903  0.00  0.00    +0.000 A 
ATOM     14  C   UNL     1       3.151   3.078  18.090  0.00  0.00    +0.000 A 
ATOM     15  N   UNL     1       4.385   3.473  17.710  0.00  0.00    +0.000 NA
ENDBRANCH   6   7
BRANCH   1  17
ATOM     16  O   UNL     1       5.129   6.642  15.324  0.00  0.00    +0.000 OA
ATOM     17  C   UNL     1       5.888   5.802  15.791  0.00  0.00    +0.000 C 
ATOM     18  N   UNL     1       6.272   4.594  15.213  0.00  0.00    +0.000 N 
ATOM     19  H   UNL     1       6.729   3.913  15.802  0.00  0.00    +0.000 HD
BRANCH  18  20
ATOM     20  C   UNL     1       6.109   4.207  13.875  0.00  0.00    +0.000 A 
ATOM     21  C   UNL     1       7.156   4.211  12.956  0.00  0.00    +0.000 A 
ATOM     22  C   UNL     1       6.953   3.714  11.667  0.00  0.00    +0.000 A 
ATOM     23  C   UNL     1       5.700   3.235  11.284  0.00  0.00    +0.000 A 
ATOM     24  C   UNL     1       4.647   3.245  12.194  0.00  0.00    +0.000 A 
ATOM     25  C   UNL     1       4.854   3.719  13.491  0.00  0.00    +0.000 A 
ENDBRANCH  18  20
ENDBRANCH   1  17
TORSDOF 3
ENDMDL
MODEL 7
REMARK VINA RESULT:      -7.5      1.578      4.889
REMARK  Name = 
REMARK  3 active torsions:
REMARK  status: ('A' for Active; 'I' for Inactive)
REMARK    1  A    between atoms: C_2  and  C_10
REMARK    2  A    between atoms: N_3  and  C_4
REMARK    3  A    between atoms: C_15  and  N_16
REMARK                            x       y       z     vdW  Elec       q    Type
REMARK                         _______ _______ _______ _____ _____    ______ ____
ROOT
ATOM      1  C   UNL     1       2.631   4.265  19.770  0.00  0.00    +0.000 A 
ATOM      2  C   UNL     1       2.063   3.786  20.972  0.00  0.00    +0.000 A 
ATOM      3  C   UNL     1       2.593   2.673  21.621  0.00  0.00    +0.000 A 
ATOM      4  C   UNL     1       3.730   2.058  21.111  0.00  0.00    +0.000 A 
ATOM      5  C   UNL     1       4.337   2.555  19.957  0.00  0.00    +0.000 A 
ATOM      6  C   UNL     1       3.786   3.649  19.262  0.00  0.00    +0.000 A 
ENDROOT
BRANCH   6   7
ATOM      7  N   UNL     1       4.466   4.125  18.108  0.00  0.00    +0.000 N 
ATOM      8  C   UNL     1       4.126   3.803  16.811  0.00  0.00    +0.000 A 
ATOM      9  C   UNL     1       5.253   4.083  16.098  0.00  0.00    +0.000 A 
ATOM     10  C   UNL     1       5.505   3.651  14.805  0.00  0.00    +0.000 A 
ATOM     11  C   UNL     1       6.677   4.240  14.303  0.00  0.00    +0.000 A 
ATOM     12  C   UNL     1       7.446   5.209  15.023  0.00  0.00    +0.000 A 
ATOM     13  C   UNL     1       7.165   5.606  16.356  0.00  0.00    +0.000 A 
ATOM     14  C   UNL     1       6.043   4.962  16.912  0.00  0.00    +0.000 A 
ATOM     15  N   UNL     1       5.506   5.006  18.151  0.00  0.00    +0.000 NA
ENDBRANCH   6   7
BRANCH   1  17
ATOM     16  O   UNL     1       1.462   5.462  18.114  0.00  0.00    +0.000 OA
ATOM     17  C   UNL     1       2.040   5.504  19.193  0.00  0.00    +0.000 C 
ATOM     18  N   UNL     1       2.336   6.636  19.951  0.00  0.00    +0.000 N 
ATOM     19  H   UNL     1       2.998   6.537  20.707  0.00  0.00    +0.000 HD
BRANCH  18  20
ATOM     20  C   UNL     1       1.802   7.922  19.794  0.00  0.00    +0.000 A 
ATOM     21  C   UNL     1       1.175   8.611  20.830  0.00  0.00    +0.000 A 
ATOM     22  C   UNL     1       0.758   9.930  20.638  0.00  0.00    +0.000 A 
ATOM     23  C   UNL     1       0.944  10.556  19.406  0.00  0.00    +0.000 A 
ATOM     24  C   UNL     1       1.556   9.868  18.363  0.00  0.00    +0.000 A 
ATOM     25  C   UNL     1       1.994   8.556  18.560  0.00  0.00    +0.000 A 
ENDBRANCH  18  20
ENDBRANCH   1  17
TORSDOF 3
ENDMDL
MODEL 8
REMARK VINA RESULT:      -7.5      2.057      4.731
REMARK  Name = 
REMARK  3 active torsions:
REMARK  status: ('A' for Active; 'I' for Inactive)
REMARK    1  A    between atoms: C_2  and  C_10
REMARK    2  A    between atoms: N_3  and  C_4
REMARK    3  A    between atoms: C_15  and  N_16
REMARK                            x       y       z     vdW  Elec       q    Type
REMARK                         _______ _______ _______ _____ _____    ______ ____
ROOT
ATOM      1  C   UNL     1       2.222   4.459  19.162  0.00  0.00    +0.000 A 
ATOM      2  C   UNL     1       1.119   3.643  19.499  0.00  0.00    +0.000 A 
ATOM      3  C   UNL     1       1.079   2.302  19.125  0.00  0.00    +0.000 A 
ATOM      4  C   UNL     1       2.163   1.742  18.461  0.00  0.00    +0.000 A 
ATOM      5  C   UNL     1       3.285   2.519  18.173  0.00  0.00    +0.000 A 
ATOM      6  C   UNL     1       3.322   3.888  18.500  0.00  0.00    +0.000 A 
ENDROOT
BRANCH   6   7
ATOM      7  N   UNL     1       4.505   4.619  18.205  0.00  0.00    +0.000 N 
ATOM      8  C   UNL     1       5.751   4.331  18.719  0.00  0.00    +0.000 A 
ATOM      9  C   UNL     1       6.451   5.488  18.551  0.00  0.00    +0.000 A 
ATOM     10  C   UNL     1       7.652   5.789  19.174  0.00  0.00    +0.000 A 
ATOM     11  C   UNL     1       8.188   6.986  18.668  0.00  0.00    +0.000 A 
ATOM     12  C   UNL     1       7.590   7.732  17.603  0.00  0.00    +0.000 A 
ATOM     13  C   UNL     1       6.345   7.399  17.009  0.00  0.00    +0.000 A 
ATOM     14  C   UNL     1       5.746   6.250  17.560  0.00  0.00    +0.000 A 
ATOM     15  N   UNL     1       4.552   5.663  17.329  0.00  0.00    +0.000 NA
ENDBRANCH   6   7
BRANCH   1  17
ATOM     16  O   UNL     1       2.495   6.089  20.837  0.00  0.00    +0.000 OA
ATOM     17  C   UNL     1       2.206   5.858  19.670  0.00  0.00    +0.000 C 
ATOM     18  N   UNL     1       1.728   6.761  18.722  0.00  0.00    +0.000 N 
ATOM     19  H   UNL     1       1.335   6.386  17.870  0.00  0.00    +0.000 HD
BRANCH  18  20
ATOM     20  C   UNL     1       1.741   8.160  18.804  0.00  0.00    +0.000 A 
ATOM     21  C   UNL     1       2.290   8.970  17.811  0.00  0.00    +0.000 A 
ATOM     22  C   UNL     1       2.177  10.358  17.903  0.00  0.00    +0.000 A 
ATOM     23  C   UNL     1       1.539  10.944  18.997  0.00  0.00    +0.000 A 
ATOM     24  C   UNL     1       1.004  10.140  19.999  0.00  0.00    +0.000 A 
ATOM     25  C   UNL     1       1.095   8.750  19.897  0.00  0.00    +0.000 A 
ENDBRANCH  18  20
ENDBRANCH   1  17
TORSDOF 3
ENDMDL
MODEL 9
REMARK VINA RESULT:      -7.4      1.956      5.425
REMARK  Name = 
REMARK  3 active torsions:
REMARK  status: ('A' for Active; 'I' for Inactive)
REMARK    1  A    between atoms: C_2  and  C_10
REMARK    2  A    between atoms: N_3  and  C_4
REMARK    3  A    between atoms: C_15  and  N_16
REMARK                            x       y       z     vdW  Elec       q    Type
REMARK                         _______ _______ _______ _____ _____    ______ ____
ROOT
ATOM      1  C   UNL     1       3.102   3.541  18.418  0.00  0.00    +0.000 A 
ATOM      2  C   UNL     1       2.946   2.153  18.203  0.00  0.00    +0.000 A 
ATOM      3  C   UNL     1       1.792   1.490  18.613  0.00  0.00    +0.000 A 
ATOM      4  C   UNL     1       0.755   2.211  19.191  0.00  0.00    +0.000 A 
ATOM      5  C   UNL     1       0.869   3.591  19.357  0.00  0.00    +0.000 A 
ATOM      6  C   UNL     1       2.048   4.269  18.993  0.00  0.00    +0.000 A 
ENDROOT
BRANCH   6   7
ATOM      7  N   UNL     1       2.093   5.680  19.162  0.00  0.00    +0.000 N 
ATOM      8  C   UNL     1       1.989   6.326  20.376  0.00  0.00    +0.000 A 
ATOM      9  C   UNL     1       1.635   7.598  20.042  0.00  0.00    +0.000 A 
ATOM     10  C   UNL     1       1.129   8.541  20.923  0.00  0.00    +0.000 A 
ATOM     11  C   UNL     1       1.015   9.795  20.299  0.00  0.00    +0.000 A 
ATOM     12  C   UNL     1       1.442  10.052  18.957  0.00  0.00    +0.000 A 
ATOM     13  C   UNL     1       1.934   9.050  18.081  0.00  0.00    +0.000 A 
ATOM     14  C   UNL     1       1.975   7.766  18.658  0.00  0.00    +0.000 A 
ATOM     15  N   UNL     1       2.299   6.560  18.141  0.00  0.00    +0.000 NA
ENDBRANCH   6   7
BRANCH   1  17
ATOM     16  O   UNL     1       4.751   3.857  16.769  0.00  0.00    +0.000 OA
ATOM     17  C   UNL     1       4.337   4.172  17.877  0.00  0.00    +0.000 C 
ATOM     18  N   UNL     1       4.957   5.005  18.807  0.00  0.00    +0.000 N 
ATOM     19  H   UNL     1       4.604   5.002  19.753  0.00  0.00    +0.000 HD
BRANCH  18  20
ATOM     20  C   UNL     1       6.029   5.879  18.577  0.00  0.00    +0.000 A 
ATOM     21  C   UNL     1       7.245   5.775  19.251  0.00  0.00    +0.000 A 
ATOM     22  C   UNL     1       8.308   6.610  18.901  0.00  0.00    +0.000 A 
ATOM     23  C   UNL     1       8.154   7.566  17.897  0.00  0.00    +0.000 A 
ATOM     24  C   UNL     1       6.937   7.684  17.233  0.00  0.00    +0.000 A 
ATOM     25  C   UNL     1       5.879   6.835  17.565  0.00  0.00    +0.000 A 
ENDBRANCH  18  20
ENDBRANCH   1  17
TORSDOF 3
ENDMDL
