MODEL 1
REMARK VINA RESULT:      -7.4      0.000      0.000
REMARK  Name = 
REMARK  7 active torsions:
REMARK  status: ('A' for Active; 'I' for Inactive)
REMARK    1  A    between atoms: C_1  and  C_2
REMARK    2  A    between atoms: C_2  and  C_3
REMARK    3  A    between atoms: C_3  and  N_4
REMARK    4  A    between atoms: N_4  and  C_12
REMARK    5  A    between atoms: C_5  and  C_7
REMARK    6  A    between atoms: N_15  and  C_16
REMARK    7  A    between atoms: C_16  and  C_17
REMARK                            x       y       z     vdW  Elec       q    Type
REMARK                         _______ _______ _______ _____ _____    ______ ____
ROOT
ATOM      1  C   UNL     1       4.717   5.539  16.510  0.00  0.00    +0.000 C 
ATOM      2  C   UNL     1       4.268   7.007  16.502  0.00  0.00    +0.000 C 
ATOM      3  C   UNL     1       3.728   7.526  17.839  0.00  0.00    +0.000 C 
ATOM      4  N   UNL     1       2.776   6.629  18.511  0.00  0.00    +0.000 NA
ATOM      5  C   UNL     1       3.242   5.246  18.583  0.00  0.00    +0.000 C 
ATOM      6  C   UNL     1       3.663   4.695  17.243  0.00  0.00    +0.000 C 
ENDROOT
BRANCH   1   7
ATOM      7  N   UNL     1       6.105   5.236  16.955  0.00  0.00    +0.000 N 
ATOM      8  C   UNL     1       7.012   4.503  16.122  0.00  0.00    +0.000 C 
ATOM      9  O   UNL     1       8.051   4.066  16.621  0.00  0.00    +0.000 OA
BRANCH   8  10
ATOM     10  C   UNL     1       6.735   4.274  14.685  0.00  0.00    +0.000 A 
ATOM     11  C   UNL     1       5.860   3.458  13.982  0.00  0.00    +0.000 A 
ATOM     12  C   UNL     1       6.011   3.497  12.569  0.00  0.00    +0.000 A 
ATOM     13  C   UNL     1       7.005   4.362  12.196  0.00  0.00    +0.000 A 
ATOM     14  S   UNL     1       7.744   5.109  13.545  0.00  0.00    +0.000 S 
ENDBRANCH   8  10
BRANCH   7  15
ATOM     15  C   UNL     1       6.380   5.344  18.405  0.00  0.00    +0.000 C 
BRANCH  15  17
ATOM     16  C   UNL     1       7.910   7.367  18.064  0.00  0.00    +0.000 C 
ATOM     17  C   UNL     1       7.489   6.232  18.980  0.00  0.00    +0.000 C 
ENDBRANCH  15  17
ENDBRANCH   7  15
ENDBRANCH   1   7
BRANCH   4  18
ATOM     18  C   UNL     1       2.539   7.066  19.903  0.00  0.00    +0.000 C 
BRANCH  18  19
ATOM     19  C   UNL     1       1.557   8.200  20.039  0.00  0.00    +0.000 A 
ATOM     20  C   UNL     1       0.834   8.352  21.231  0.00  0.00    +0.000 A 
ATOM     21  C   UNL     1      -0.128   9.355  21.370  0.00  0.00    +0.000 A 
ATOM     22  C   UNL     1      -0.353  10.220  20.289  0.00  0.00    +0.000 A 
ATOM     23  C   UNL     1      -1.218  11.302  20.014  0.00  0.00    +0.000 A 
ATOM     24  N   UNL     1      -1.025  11.825  18.801  0.00  0.00    +0.000 NA
ATOM     25  N   UNL     1      -0.032  11.074  18.293  0.00  0.00    +0.000 N 
ATOM     26  C   UNL     1       0.397  10.077  19.128  0.00  0.00    +0.000 A 
ATOM     27  C   UNL     1       1.359   9.081  18.962  0.00  0.00    +0.000 A 
ATOM     28  H   UNL     1       0.310  11.288  17.365  0.00  0.00    +0.000 HD
ENDBRANCH  18  19
ENDBRANCH   4  18
TORSDOF 6
ENDMDL
MODEL 2
REMARK VINA RESULT:      -7.3      4.891      9.487
REMARK  Name = 
REMARK  7 active torsions:
REMARK  status: ('A' for Active; 'I' for Inactive)
REMARK    1  A    between atoms: C_1  and  C_2
REMARK    2  A    between atoms: C_2  and  C_3
REMARK    3  A    between atoms: C_3  and  N_4
REMARK    4  A    between atoms: N_4  and  C_12
REMARK    5  A    between atoms: C_5  and  C_7
REMARK    6  A    between atoms: N_15  and  C_16
REMARK    7  A    between atoms: C_16  and  C_17
REMARK                            x       y       z     vdW  Elec       q    Type
REMARK                         _______ _______ _______ _____ _____    ______ ____
ROOT
ATOM      1  C   UNL     1       0.189  10.536  19.731  0.00  0.00    +0.000 C 
ATOM      2  C   UNL     1       0.496   9.309  20.599  0.00  0.00    +0.000 C 
ATOM      3  C   UNL     1       1.674   8.455  20.119  0.00  0.00    +0.000 C 
ATOM      4  N   UNL     1       1.680   8.165  18.678  0.00  0.00    +0.000 NA
ATOM      5  C   UNL     1       1.463   9.351  17.852  0.00  0.00    +0.000 C 
ATOM      6  C   UNL     1       0.233  10.129  18.250  0.00  0.00    +0.000 C 
ENDROOT
BRANCH   1   7
ATOM      7  N   UNL     1       0.944  11.790  20.003  0.00  0.00    +0.000 N 
ATOM      8  C   UNL     1       0.386  12.837  20.807  0.00  0.00    +0.000 C 
ATOM      9  O   UNL     1       0.934  13.942  20.802  0.00  0.00    +0.000 OA
BRANCH   8  10
ATOM     10  C   UNL     1      -0.814  12.617  21.647  0.00  0.00    +0.000 A 
ATOM     11  C   UNL     1      -1.054  11.959  22.845  0.00  0.00    +0.000 A 
ATOM     12  C   UNL     1      -2.418  11.920  23.242  0.00  0.00    +0.000 A 
ATOM     13  C   UNL     1      -3.221  12.568  22.340  0.00  0.00    +0.000 A 
ATOM     14  S   UNL     1      -2.326  13.207  21.030  0.00  0.00    +0.000 S 
ENDBRANCH   8  10
BRANCH   7  15
ATOM     15  C   UNL     1       2.079  12.095  19.104  0.00  0.00    +0.000 C 
BRANCH  15  17
ATOM     16  C   UNL     1       3.307  14.126  18.148  0.00  0.00    +0.000 C 
ATOM     17  C   UNL     1       2.064  13.257  18.105  0.00  0.00    +0.000 C 
ENDBRANCH  15  17
ENDBRANCH   7  15
ENDBRANCH   1   7
BRANCH   4  18
ATOM     18  C   UNL     1       2.981   7.597  18.264  0.00  0.00    +0.000 C 
BRANCH  18  19
ATOM     19  C   UNL     1       3.073   6.099  18.391  0.00  0.00    +0.000 A 
ATOM     20  C   UNL     1       1.994   5.302  17.982  0.00  0.00    +0.000 A 
ATOM     21  C   UNL     1       2.020   3.914  18.141  0.00  0.00    +0.000 A 
ATOM     22  C   UNL     1       3.159   3.328  18.713  0.00  0.00    +0.000 A 
ATOM     23  C   UNL     1       3.563   2.021  19.065  0.00  0.00    +0.000 A 
ATOM     24  N   UNL     1       4.793   1.981  19.583  0.00  0.00    +0.000 NA
ATOM     25  N   UNL     1       5.180   3.269  19.566  0.00  0.00    +0.000 N 
ATOM     26  C   UNL     1       4.233   4.130  19.080  0.00  0.00    +0.000 A 
ATOM     27  C   UNL     1       4.229   5.517  18.937  0.00  0.00    +0.000 A 
ATOM     28  H   UNL     1       6.105   3.501  19.906  0.00  0.00    +0.000 HD
ENDBRANCH  18  19
ENDBRANCH   4  18
TORSDOF 6
ENDMDL
MODEL 3
REMARK VINA RESULT:      -7.3      4.264      6.832
REMARK  Name = 
REMARK  7 active torsions:
REMARK  status: ('A' for Active; 'I' for Inactive)
REMARK    1  A    between atoms: C_1  and  C_2
REMARK    2  A    between atoms: C_2  and  C_3
REMARK    3  A    between atoms: C_3  and  N_4
REMARK    4  A    between atoms: N_4  and  C_12
REMARK    5  A    between atoms: C_5  and  C_7
REMARK    6  A    between atoms: N_15  and  C_16
REMARK    7  A    between atoms: C_16  and  C_17
REMARK                            x       y       z     vdW  Elec       q    Type
REMARK                         _______ _______ _______ _____ _____    ______ ____
ROOT
ATOM      1  C   UNL     1       4.289   5.320  18.323  0.00  0.00    +0.000 C 
ATOM      2  C   UNL     1       4.071   6.664  17.615  0.00  0.00    +0.000 C 
ATOM      3  C   UNL     1       5.351   7.353  17.127  0.00  0.00    +0.000 C 
ATOM      4  N   UNL     1       6.449   7.380  18.104  0.00  0.00    +0.000 NA
ATOM      5  C   UNL     1       6.702   6.080  18.720  0.00  0.00    +0.000 C 
ATOM      6  C   UNL     1       5.461   5.454  19.308  0.00  0.00    +0.000 C 
ENDROOT
BRANCH   1   7
ATOM      7  N   UNL     1       4.384   4.096  17.482  0.00  0.00    +0.000 N 
ATOM      8  C   UNL     1       3.698   2.889  17.842  0.00  0.00    +0.000 C 
ATOM      9  O   UNL     1       3.999   1.843  17.262  0.00  0.00    +0.000 OA
BRANCH   8  10
ATOM     10  C   UNL     1       2.639   2.876  18.876  0.00  0.00    +0.000 A 
ATOM     11  C   UNL     1       1.271   3.112  18.868  0.00  0.00    +0.000 A 
ATOM     12  C   UNL     1       0.652   3.081  20.148  0.00  0.00    +0.000 A 
ATOM     13  C   UNL     1       1.560   2.807  21.136  0.00  0.00    +0.000 A 
ATOM     14  S   UNL     1       3.139   2.595  20.515  0.00  0.00    +0.000 S 
ENDBRANCH   8  10
BRANCH   7  15
ATOM     15  C   UNL     1       5.506   4.031  16.519  0.00  0.00    +0.000 C 
BRANCH  15  17
ATOM     16  C   UNL     1       6.600   4.114  14.208  0.00  0.00    +0.000 C 
ATOM     17  C   UNL     1       5.345   4.349  15.029  0.00  0.00    +0.000 C 
ENDBRANCH  15  17
ENDBRANCH   7  15
ENDBRANCH   1   7
BRANCH   4  18
ATOM     18  C   UNL     1       7.713   7.792  17.458  0.00  0.00    +0.000 C 
BRANCH  18  19
ATOM     19  C   UNL     1       8.269   9.099  17.961  0.00  0.00    +0.000 A 
ATOM     20  C   UNL     1       9.042   9.119  19.131  0.00  0.00    +0.000 A 
ATOM     21  C   UNL     1       9.522  10.320  19.659  0.00  0.00    +0.000 A 
ATOM     22  C   UNL     1       9.224  11.514  18.986  0.00  0.00    +0.000 A 
ATOM     23  C   UNL     1       9.478  12.887  19.189  0.00  0.00    +0.000 A 
ATOM     24  N   UNL     1       8.978  13.657  18.219  0.00  0.00    +0.000 NA
ATOM     25  N   UNL     1       8.397  12.772  17.390  0.00  0.00    +0.000 N 
ATOM     26  C   UNL     1       8.487  11.471  17.808  0.00  0.00    +0.000 A 
ATOM     27  C   UNL     1       7.991  10.287  17.264  0.00  0.00    +0.000 A 
ATOM     28  H   UNL     1       7.947  13.117  16.551  0.00  0.00    +0.000 HD
ENDBRANCH  18  19
ENDBRANCH   4  18
TORSDOF 6
ENDMDL
MODEL 4
REMARK VINA RESULT:      -7.3      2.964      4.729
REMARK  Name = 
REMARK  7 active torsions:
REMARK  status: ('A' for Active; 'I' for Inactive)
REMARK    1  A    between atoms: C_1  and  C_2
REMARK    2  A    between atoms: C_2  and  C_3
REMARK    3  A    between atoms: C_3  and  N_4
REMARK    4  A    between atoms: N_4  and  C_12
REMARK    5  A    between atoms: C_5  and  C_7
REMARK    6  A    between atoms: N_15  and  C_16
REMARK    7  A    between atoms: C_16  and  C_17
REMARK                            x       y       z     vdW  Elec       q    Type
REMARK                         _______ _______ _______ _____ _____    ______ ____
ROOT
ATOM      1  C   UNL     1       4.537   5.185  18.338  0.00  0.00    +0.000 C 
ATOM      2  C   UNL     1       3.658   5.563  19.537  0.00  0.00    +0.000 C 
ATOM      3  C   UNL     1       2.563   6.593  19.238  0.00  0.00    +0.000 C 
ATOM      4  N   UNL     1       3.005   7.753  18.451  0.00  0.00    +0.000 NA
ATOM      5  C   UNL     1       3.778   7.384  17.267  0.00  0.00    +0.000 C 
ATOM      6  C   UNL     1       4.931   6.462  17.579  0.00  0.00    +0.000 C 
ENDROOT
BRANCH   1   7
ATOM      7  N   UNL     1       4.054   4.107  17.431  0.00  0.00    +0.000 N 
ATOM      8  C   UNL     1       3.396   2.941  17.943  0.00  0.00    +0.000 C 
ATOM      9  O   UNL     1       3.238   1.974  17.194  0.00  0.00    +0.000 OA
BRANCH   8  10
ATOM     10  C   UNL     1       2.896   2.879  19.336  0.00  0.00    +0.000 A 
ATOM     11  C   UNL     1       3.474   2.589  20.564  0.00  0.00    +0.000 A 
ATOM     12  C   UNL     1       2.566   2.556  21.658  0.00  0.00    +0.000 A 
ATOM     13  C   UNL     1       1.287   2.836  21.256  0.00  0.00    +0.000 A 
ATOM     14  S   UNL     1       1.194   3.128  19.573  0.00  0.00    +0.000 S 
ENDBRANCH   8  10
BRANCH   7  15
ATOM     15  C   UNL     1       4.627   4.074  16.067  0.00  0.00    +0.000 C 
BRANCH  15  17
ATOM     16  C   UNL     1       6.659   4.409  14.548  0.00  0.00    +0.000 C 
ATOM     17  C   UNL     1       6.096   3.736  15.787  0.00  0.00    +0.000 C 
ENDBRANCH  15  17
ENDBRANCH   7  15
ENDBRANCH   1   7
BRANCH   4  18
ATOM     18  C   UNL     1       1.844   8.531  17.969  0.00  0.00    +0.000 C 
BRANCH  18  19
ATOM     19  C   UNL     1       1.124   9.302  19.044  0.00  0.00    +0.000 A 
ATOM     20  C   UNL     1       0.442  10.482  18.712  0.00  0.00    +0.000 A 
ATOM     21  C   UNL     1      -0.185  11.254  19.694  0.00  0.00    +0.000 A 
ATOM     22  C   UNL     1      -0.128  10.817  21.026  0.00  0.00    +0.000 A 
ATOM     23  C   UNL     1      -0.584  11.296  22.274  0.00  0.00    +0.000 A 
ATOM     24  N   UNL     1      -0.282  10.478  23.285  0.00  0.00    +0.000 NA
ATOM     25  N   UNL     1       0.373   9.470  22.683  0.00  0.00    +0.000 N 
ATOM     26  C   UNL     1       0.521   9.627  21.331  0.00  0.00    +0.000 A 
ATOM     27  C   UNL     1       1.160   8.842  20.371  0.00  0.00    +0.000 A 
ATOM     28  H   UNL     1       0.702   8.699  23.251  0.00  0.00    +0.000 HD
ENDBRANCH  18  19
ENDBRANCH   4  18
TORSDOF 6
ENDMDL
MODEL 5
REMARK VINA RESULT:      -7.3      2.981      4.782
REMARK  Name = 
REMARK  7 active torsions:
REMARK  status: ('A' for Active; 'I' for Inactive)
REMARK    1  A    between atoms: C_1  and  C_2
REMARK    2  A    between atoms: C_2  and  C_3
REMARK    3  A    between atoms: C_3  and  N_4
REMARK    4  A    between atoms: N_4  and  C_12
REMARK    5  A    between atoms: C_5  and  C_7
REMARK    6  A    between atoms: N_15  and  C_16
REMARK    7  A    between atoms: C_16  and  C_17
REMARK                            x       y       z     vdW  Elec       q    Type
REMARK                         _______ _______ _______ _____ _____    ______ ____
ROOT
ATOM      1  C   UNL     1       4.424   5.266  18.407  0.00  0.00    +0.000 C 
ATOM      2  C   UNL     1       3.477   5.703  19.533  0.00  0.00    +0.000 C 
ATOM      3  C   UNL     1       2.445   6.764  19.135  0.00  0.00    +0.000 C 
ATOM      4  N   UNL     1       2.984   7.890  18.358  0.00  0.00    +0.000 NA
ATOM      5  C   UNL     1       3.825   7.466  17.241  0.00  0.00    +0.000 C 
ATOM      6  C   UNL     1       4.918   6.511  17.654  0.00  0.00    +0.000 C 
ENDROOT
BRANCH   1   7
ATOM      7  N   UNL     1       3.968   4.186  17.491  0.00  0.00    +0.000 N 
ATOM      8  C   UNL     1       3.335   3.000  17.991  0.00  0.00    +0.000 C 
ATOM      9  O   UNL     1       3.200   2.037  17.233  0.00  0.00    +0.000 OA
BRANCH   8  10
ATOM     10  C   UNL     1       2.834   2.916  19.382  0.00  0.00    +0.000 A 
ATOM     11  C   UNL     1       3.415   2.623  20.608  0.00  0.00    +0.000 A 
ATOM     12  C   UNL     1       2.507   2.562  21.700  0.00  0.00    +0.000 A 
ATOM     13  C   UNL     1       1.224   2.824  21.299  0.00  0.00    +0.000 A 
ATOM     14  S   UNL     1       1.128   3.133  19.620  0.00  0.00    +0.000 S 
ENDBRANCH   8  10
BRANCH   7  15
ATOM     15  C   UNL     1       4.543   4.178  16.128  0.00  0.00    +0.000 C 
BRANCH  15  17
ATOM     16  C   UNL     1       6.872   4.649  15.175  0.00  0.00    +0.000 C 
ATOM     17  C   UNL     1       5.942   3.634  15.816  0.00  0.00    +0.000 C 
ENDBRANCH  15  17
ENDBRANCH   7  15
ENDBRANCH   1   7
BRANCH   4  18
ATOM     18  C   UNL     1       1.890   8.697  17.779  0.00  0.00    +0.000 C 
BRANCH  18  19
ATOM     19  C   UNL     1       1.601   9.975  18.522  0.00  0.00    +0.000 A 
ATOM     20  C   UNL     1       2.098  11.191  18.029  0.00  0.00    +0.000 A 
ATOM     21  C   UNL     1       1.901  12.386  18.724  0.00  0.00    +0.000 A 
ATOM     22  C   UNL     1       1.183  12.349  19.929  0.00  0.00    +0.000 A 
ATOM     23  C   UNL     1       0.802  13.285  20.915  0.00  0.00    +0.000 A 
ATOM     24  N   UNL     1       0.084  12.738  21.899  0.00  0.00    +0.000 NA
ATOM     25  N   UNL     1       0.006  11.443  21.544  0.00  0.00    +0.000 N 
ATOM     26  C   UNL     1       0.668  11.141  20.384  0.00  0.00    +0.000 A 
ATOM     27  C   UNL     1       0.856   9.934  19.712  0.00  0.00    +0.000 A 
ATOM     28  H   UNL     1      -0.511  10.808  22.139  0.00  0.00    +0.000 HD
ENDBRANCH  18  19
ENDBRANCH   4  18
TORSDOF 6
ENDMDL
MODEL 6
REMARK VINA RESULT:      -7.2      3.113      4.844
REMARK  Name = 
REMARK  7 active torsions:
REMARK  status: ('A' for Active; 'I' for Inactive)
REMARK    1  A    between atoms: C_1  and  C_2
REMARK    2  A    between atoms: C_2  and  C_3
REMARK    3  A    between atoms: C_3  and  N_4
REMARK    4  A    between atoms: N_4  and  C_12
REMARK    5  A    between atoms: C_5  and  C_7
REMARK    6  A    between atoms: N_15  and  C_16
REMARK    7  A    between atoms: C_16  and  C_17
REMARK                            x       y       z     vdW  Elec       q    Type
REMARK                         _______ _______ _______ _____ _____    ______ ____
ROOT
ATOM      1  C   UNL     1       4.405   5.323  18.431  0.00  0.00    +0.000 C 
ATOM      2  C   UNL     1       3.445   5.733  19.557  0.00  0.00    +0.000 C 
ATOM      3  C   UNL     1       2.366   6.743  19.151  0.00  0.00    +0.000 C 
ATOM      4  N   UNL     1       2.852   7.880  18.356  0.00  0.00    +0.000 NA
ATOM      5  C   UNL     1       3.705   7.479  17.240  0.00  0.00    +0.000 C 
ATOM      6  C   UNL     1       4.841   6.578  17.659  0.00  0.00    +0.000 C 
ENDROOT
BRANCH   1   7
ATOM      7  N   UNL     1       3.992   4.211  17.531  0.00  0.00    +0.000 N 
ATOM      8  C   UNL     1       3.385   3.020  18.048  0.00  0.00    +0.000 C 
ATOM      9  O   UNL     1       3.288   2.038  17.308  0.00  0.00    +0.000 OA
BRANCH   8  10
ATOM     10  C   UNL     1       2.866   2.950  19.433  0.00  0.00    +0.000 A 
ATOM     11  C   UNL     1       3.433   2.676  20.670  0.00  0.00    +0.000 A 
ATOM     12  C   UNL     1       2.511   2.624  21.751  0.00  0.00    +0.000 A 
ATOM     13  C   UNL     1       1.232   2.872  21.330  0.00  0.00    +0.000 A 
ATOM     14  S   UNL     1       1.156   3.159  19.645  0.00  0.00    +0.000 S 
ENDBRANCH   8  10
BRANCH   7  15
ATOM     15  C   UNL     1       4.587   4.192  16.177  0.00  0.00    +0.000 C 
BRANCH  15  17
ATOM     16  C   UNL     1       6.565   4.351  14.561  0.00  0.00    +0.000 C 
ATOM     17  C   UNL     1       6.069   3.895  15.921  0.00  0.00    +0.000 C 
ENDBRANCH  15  17
ENDBRANCH   7  15
ENDBRANCH   1   7
BRANCH   4  18
ATOM     18  C   UNL     1       1.720   8.631  17.773  0.00  0.00    +0.000 C 
BRANCH  18  19
ATOM     19  C   UNL     1       1.601  10.052  18.260  0.00  0.00    +0.000 A 
ATOM     20  C   UNL     1       0.608  10.383  19.193  0.00  0.00    +0.000 A 
ATOM     21  C   UNL     1       0.430  11.701  19.621  0.00  0.00    +0.000 A 
ATOM     22  C   UNL     1       1.276  12.693  19.103  0.00  0.00    +0.000 A 
ATOM     23  C   UNL     1       1.408  14.092  19.242  0.00  0.00    +0.000 A 
ATOM     24  N   UNL     1       2.417  14.591  18.524  0.00  0.00    +0.000 NA
ATOM     25  N   UNL     1       2.934  13.507  17.920  0.00  0.00    +0.000 N 
ATOM     26  C   UNL     1       2.277  12.341  18.205  0.00  0.00    +0.000 A 
ATOM     27  C   UNL     1       2.471  11.034  17.759  0.00  0.00    +0.000 A 
ATOM     28  H   UNL     1       3.738  13.627  17.315  0.00  0.00    +0.000 HD
ENDBRANCH  18  19
ENDBRANCH   4  18
TORSDOF 6
ENDMDL
MODEL 7
REMARK VINA RESULT:      -7.0      2.597      4.139
REMARK  Name = 
REMARK  7 active torsions:
REMARK  status: ('A' for Active; 'I' for Inactive)
REMARK    1  A    between atoms: C_1  and  C_2
REMARK    2  A    between atoms: C_2  and  C_3
REMARK    3  A    between atoms: C_3  and  N_4
REMARK    4  A    between atoms: N_4  and  C_12
REMARK    5  A    between atoms: C_5  and  C_7
REMARK    6  A    between atoms: N_15  and  C_16
REMARK    7  A    between atoms: C_16  and  C_17
REMARK                            x       y       z     vdW  Elec       q    Type
REMARK                         _______ _______ _______ _____ _____    ______ ____
ROOT
ATOM      1  C   UNL     1       3.585   5.756  19.112  0.00  0.00    +0.000 C 
ATOM      2  C   UNL     1       2.821   6.445  20.251  0.00  0.00    +0.000 C 
ATOM      3  C   UNL     1       1.791   7.488  19.801  0.00  0.00    +0.000 C 
ATOM      4  N   UNL     1       2.267   8.421  18.770  0.00  0.00    +0.000 NA
ATOM      5  C   UNL     1       2.927   7.754  17.650  0.00  0.00    +0.000 C 
ATOM      6  C   UNL     1       4.024   6.814  18.088  0.00  0.00    +0.000 C 
ENDROOT
BRANCH   1   7
ATOM      7  N   UNL     1       2.961   4.565  18.473  0.00  0.00    +0.000 N 
ATOM      8  C   UNL     1       3.604   3.874  17.394  0.00  0.00    +0.000 C 
ATOM      9  O   UNL     1       2.949   3.059  16.741  0.00  0.00    +0.000 OA
BRANCH   8  10
ATOM     10  C   UNL     1       5.027   4.108  17.061  0.00  0.00    +0.000 A 
ATOM     11  C   UNL     1       6.198   4.188  17.802  0.00  0.00    +0.000 A 
ATOM     12  C   UNL     1       7.356   4.534  17.053  0.00  0.00    +0.000 A 
ATOM     13  C   UNL     1       7.062   4.705  15.727  0.00  0.00    +0.000 A 
ATOM     14  S   UNL     1       5.402   4.455  15.401  0.00  0.00    +0.000 S 
ENDBRANCH   8  10
BRANCH   7  15
ATOM     15  C   UNL     1       1.510   4.371  18.694  0.00  0.00    +0.000 C 
BRANCH  15  17
ATOM     16  C   UNL     1       1.272   3.187  20.950  0.00  0.00    +0.000 C 
ATOM     17  C   UNL     1       0.937   3.180  19.470  0.00  0.00    +0.000 C 
ENDBRANCH  15  17
ENDBRANCH   7  15
ENDBRANCH   1   7
BRANCH   4  18
ATOM     18  C   UNL     1       1.140   9.187  18.197  0.00  0.00    +0.000 C 
BRANCH  18  19
ATOM     19  C   UNL     1       1.202  10.670  18.455  0.00  0.00    +0.000 A 
ATOM     20  C   UNL     1       0.141  11.303  19.118  0.00  0.00    +0.000 A 
ATOM     21  C   UNL     1       0.138  12.686  19.319  0.00  0.00    +0.000 A 
ATOM     22  C   UNL     1       1.229  13.433  18.851  0.00  0.00    +0.000 A 
ATOM     23  C   UNL     1       1.591  14.797  18.824  0.00  0.00    +0.000 A 
ATOM     24  N   UNL     1       2.784  15.006  18.262  0.00  0.00    +0.000 NA
ATOM     25  N   UNL     1       3.189  13.769  17.924  0.00  0.00    +0.000 N 
ATOM     26  C   UNL     1       2.288  12.784  18.228  0.00  0.00    +0.000 A 
ATOM     27  C   UNL     1       2.312  11.407  18.009  0.00  0.00    +0.000 A 
ATOM     28  H   UNL     1       4.093  13.659  17.482  0.00  0.00    +0.000 HD
ENDBRANCH  18  19
ENDBRANCH   4  18
TORSDOF 6
ENDMDL
MODEL 8
REMARK VINA RESULT:      -7.0      2.834      4.683
REMARK  Name = 
REMARK  7 active torsions:
REMARK  status: ('A' for Active; 'I' for Inactive)
REMARK    1  A    between atoms: C_1  and  C_2
REMARK    2  A    between atoms: C_2  and  C_3
REMARK    3  A    between atoms: C_3  and  N_4
REMARK    4  A    between atoms: N_4  and  C_12
REMARK    5  A    between atoms: C_5  and  C_7
REMARK    6  A    between atoms: N_15  and  C_16
REMARK    7  A    between atoms: C_16  and  C_17
REMARK                            x       y       z     vdW  Elec       q    Type
REMARK                         _______ _______ _______ _____ _____    ______ ____
ROOT
ATOM      1  C   UNL     1       4.213   5.496  18.566  0.00  0.00    +0.000 C 
ATOM      2  C   UNL     1       3.120   5.990  19.524  0.00  0.00    +0.000 C 
ATOM      3  C   UNL     1       2.179   7.049  18.940  0.00  0.00    +0.000 C 
ATOM      4  N   UNL     1       2.848   8.136  18.211  0.00  0.00    +0.000 NA
ATOM      5  C   UNL     1       3.835   7.658  17.246  0.00  0.00    +0.000 C 
ATOM      6  C   UNL     1       4.837   6.704  17.849  0.00  0.00    +0.000 C 
ENDROOT
BRANCH   1   7
ATOM      7  N   UNL     1       3.874   4.388  17.632  0.00  0.00    +0.000 N 
ATOM      8  C   UNL     1       3.328   3.151  18.109  0.00  0.00    +0.000 C 
ATOM      9  O   UNL     1       3.295   2.185  17.343  0.00  0.00    +0.000 OA
BRANCH   8  10
ATOM     10  C   UNL     1       2.795   3.016  19.484  0.00  0.00    +0.000 A 
ATOM     11  C   UNL     1       3.354   2.709  20.716  0.00  0.00    +0.000 A 
ATOM     12  C   UNL     1       2.421   2.594  21.783  0.00  0.00    +0.000 A 
ATOM     13  C   UNL     1       1.141   2.828  21.356  0.00  0.00    +0.000 A 
ATOM     14  S   UNL     1       1.078   3.177  19.683  0.00  0.00    +0.000 S 
ENDBRANCH   8  10
BRANCH   7  15
ATOM     15  C   UNL     1       4.488   4.436  16.286  0.00  0.00    +0.000 C 
BRANCH  15  17
ATOM     16  C   UNL     1       6.946   4.705  15.628  0.00  0.00    +0.000 C 
ATOM     17  C   UNL     1       5.814   3.746  15.949  0.00  0.00    +0.000 C 
ENDBRANCH  15  17
ENDBRANCH   7  15
ENDBRANCH   1   7
BRANCH   4  18
ATOM     18  C   UNL     1       1.867   8.936  17.449  0.00  0.00    +0.000 C 
BRANCH  18  19
ATOM     19  C   UNL     1       0.887   9.696  18.304  0.00  0.00    +0.000 A 
ATOM     20  C   UNL     1      -0.468   9.728  17.942  0.00  0.00    +0.000 A 
ATOM     21  C   UNL     1      -1.394  10.472  18.678  0.00  0.00    +0.000 A 
ATOM     22  C   UNL     1      -0.941  11.185  19.798  0.00  0.00    +0.000 A 
ATOM     23  C   UNL     1      -1.517  12.048  20.756  0.00  0.00    +0.000 A 
ATOM     24  N   UNL     1      -0.638  12.470  21.668  0.00  0.00    +0.000 NA
ATOM     25  N   UNL     1       0.508  11.876  21.292  0.00  0.00    +0.000 N 
ATOM     26  C   UNL     1       0.398  11.113  20.162  0.00  0.00    +0.000 A 
ATOM     27  C   UNL     1       1.343  10.382  19.441  0.00  0.00    +0.000 A 
ATOM     28  H   UNL     1       1.340  12.035  21.847  0.00  0.00    +0.000 HD
ENDBRANCH  18  19
ENDBRANCH   4  18
TORSDOF 6
ENDMDL
MODEL 9
REMARK VINA RESULT:      -7.0      4.302      9.623
REMARK  Name = 
REMARK  7 active torsions:
REMARK  status: ('A' for Active; 'I' for Inactive)
REMARK    1  A    between atoms: C_1  and  C_2
REMARK    2  A    between atoms: C_2  and  C_3
REMARK    3  A    between atoms: C_3  and  N_4
REMARK    4  A    between atoms: N_4  and  C_12
REMARK    5  A    between atoms: C_5  and  C_7
REMARK    6  A    between atoms: N_15  and  C_16
REMARK    7  A    between atoms: C_16  and  C_17
REMARK                            x       y       z     vdW  Elec       q    Type
REMARK                         _______ _______ _______ _____ _____    ______ ____
ROOT
ATOM      1  C   UNL     1       0.856  11.072  19.508  0.00  0.00    +0.000 C 
ATOM      2  C   UNL     1       1.740  10.824  18.278  0.00  0.00    +0.000 C 
ATOM      3  C   UNL     1       1.874   9.355  17.863  0.00  0.00    +0.000 C 
ATOM      4  N   UNL     1       2.139   8.422  18.967  0.00  0.00    +0.000 NA
ATOM      5  C   UNL     1       1.245   8.612  20.107  0.00  0.00    +0.000 C 
ATOM      6  C   UNL     1       1.203  10.040  20.593  0.00  0.00    +0.000 C 
ENDROOT
BRANCH   1   7
ATOM      7  N   UNL     1      -0.611  11.209  19.297  0.00  0.00    +0.000 N 
ATOM      8  C   UNL     1      -1.375  12.203  19.993  0.00  0.00    +0.000 C 
ATOM      9  O   UNL     1      -2.605  12.121  19.977  0.00  0.00    +0.000 OA
BRANCH   8  10
ATOM     10  C   UNL     1      -0.723  13.322  20.711  0.00  0.00    +0.000 A 
ATOM     11  C   UNL     1      -0.361  13.549  22.032  0.00  0.00    +0.000 A 
ATOM     12  C   UNL     1       0.168  14.842  22.292  0.00  0.00    +0.000 A 
ATOM     13  C   UNL     1       0.220  15.600  21.153  0.00  0.00    +0.000 A 
ATOM     14  S   UNL     1      -0.373  14.752  19.791  0.00  0.00    +0.000 S 
ENDBRANCH   8  10
BRANCH   7  15
ATOM     15  C   UNL     1      -1.310  10.056  18.687  0.00  0.00    +0.000 C 
BRANCH  15  17
ATOM     16  C   UNL     1      -3.299  10.161  17.079  0.00  0.00    +0.000 C 
ATOM     17  C   UNL     1      -1.793  10.049  17.232  0.00  0.00    +0.000 C 
ENDBRANCH  15  17
ENDBRANCH   7  15
ENDBRANCH   1   7
BRANCH   4  18
ATOM     18  C   UNL     1       1.964   7.023  18.524  0.00  0.00    +0.000 C 
BRANCH  18  19
ATOM     19  C   UNL     1       3.237   6.346  18.089  0.00  0.00    +0.000 A 
ATOM     20  C   UNL     1       3.479   5.017  18.467  0.00  0.00    +0.000 A 
ATOM     21  C   UNL     1       4.676   4.378  18.133  0.00  0.00    +0.000 A 
ATOM     22  C   UNL     1       5.634   5.092  17.399  0.00  0.00    +0.000 A 
ATOM     23  C   UNL     1       6.932   4.840  16.904  0.00  0.00    +0.000 A 
ATOM     24  N   UNL     1       7.439   5.874  16.227  0.00  0.00    +0.000 NA
ATOM     25  N   UNL     1       6.461   6.795  16.291  0.00  0.00    +0.000 N 
ATOM     26  C   UNL     1       5.363   6.396  17.003  0.00  0.00    +0.000 A 
ATOM     27  C   UNL     1       4.179   7.058  17.329  0.00  0.00    +0.000 A 
ATOM     28  H   UNL     1       6.605   7.686  15.830  0.00  0.00    +0.000 HD
ENDBRANCH  18  19
ENDBRANCH   4  18
TORSDOF 6
ENDMDL
