MODEL 1
REMARK VINA RESULT:      -6.2      0.000      0.000
REMARK  Name = 
REMARK  8 active torsions:
REMARK  status: ('A' for Active; 'I' for Inactive)
REMARK    1  A    between atoms: C_1  and  C_2
REMARK    2  A    between atoms: C_6  and  C_7
REMARK    3  A    between atoms: C_8  and  O_9
REMARK    4  A    between atoms: O_9  and  C_10
REMARK    5  A    between atoms: C_13  and  O_14
REMARK    6  A    between atoms: C_15  and  O_16
REMARK    7  A    between atoms: C_17  and  O_18
REMARK    8  A    between atoms: C_22  and  C_23
REMARK                            x       y       z     vdW  Elec       q    Type
REMARK                         _______ _______ _______ _____ _____    ______ ____
ROOT
ATOM      1  C   UNL     1       5.512  14.845  17.788  0.00  0.00    +0.000 C 
ATOM      2  C   UNL     1       6.483  14.922  18.971  0.00  0.00    +0.000 C 
ATOM      3  C   UNL     1       6.387  16.306  19.608  0.00  0.00    +0.000 C 
ATOM      4  C   UNL     1       7.214  16.392  20.882  0.00  0.00    +0.000 C 
ATOM      5  C   UNL     1       8.674  15.953  20.717  0.00  0.00    +0.000 C 
ATOM      6  C   UNL     1       9.411  15.819  22.088  0.00  0.00    +0.000 C 
ATOM      7  C   UNL     1       9.089  16.941  23.077  0.00  0.00    +0.000 C 
ATOM      8  C   UNL     1       9.326  14.419  22.744  0.00  0.00    +0.000 C 
ATOM      9  O   UNL     1       9.712  13.440  21.800  0.00  0.00    +0.000 OA
ATOM     10  C   UNL     1       8.879  13.388  20.648  0.00  0.00    +0.000 C 
ATOM     11  O   UNL     1       9.289  12.233  19.905  0.00  0.00    +0.000 OA
ATOM     12  C   UNL     1      10.252  12.592  18.914  0.00  0.00    +0.000 C 
ATOM     13  C   UNL     1      11.246  11.441  18.767  0.00  0.00    +0.000 C 
ATOM     14  C   UNL     1       9.524  12.830  17.578  0.00  0.00    +0.000 C 
ATOM     15  C   UNL     1       8.091  13.347  17.757  0.00  0.00    +0.000 C 
ATOM     16  C   UNL     1       7.954  14.650  18.577  0.00  0.00    +0.000 C 
ATOM     17  C   UNL     1       8.907  14.703  19.814  0.00  0.00    +0.000 C 
ATOM     18  O   UNL     1      10.216  14.927  19.215  0.00  0.00    +0.000 OA
ATOM     19  O   UNL     1      11.028  13.721  19.330  0.00  0.00    +0.000 OA
ENDROOT
BRANCH   8  20
ATOM     20  O   UNL     1       8.083  14.098  23.413  0.00  0.00    +0.000 OA
BRANCH  20  21
ATOM     21  C   UNL     1       8.369  13.434  24.672  0.00  0.00    +0.000 C 
ATOM     22  O   UNL     1       7.910  14.179  25.799  0.00  0.00    +0.000 OA
ATOM     23  C   UNL     1       6.498  14.171  25.947  0.00  0.00    +0.000 C 
ATOM     24  C   UNL     1       6.015  12.770  26.288  0.00  0.00    +0.000 C 
ATOM     25  C   UNL     1       6.400  11.807  25.157  0.00  0.00    +0.000 C 
ATOM     26  C   UNL     1       7.878  11.960  24.745  0.00  0.00    +0.000 C 
BRANCH  24  27
ATOM     27  O   UNL     1       4.610  12.777  26.533  0.00  0.00    +0.000 OA
ATOM     28  H   UNL     1       4.351  13.654  26.865  0.00  0.00    +0.000 HD
ENDBRANCH  24  27
BRANCH  25  29
ATOM     29  O   UNL     1       6.151  10.450  25.585  0.00  0.00    +0.000 OA
ATOM     30  H   UNL     1       6.870  10.174  26.169  0.00  0.00    +0.000 HD
ENDBRANCH  25  29
BRANCH  26  31
ATOM     31  O   UNL     1       8.156  11.249  23.531  0.00  0.00    +0.000 OA
ATOM     32  H   UNL     1       7.523  11.567  22.863  0.00  0.00    +0.000 HD
ENDBRANCH  26  31
ENDBRANCH  20  21
ENDBRANCH   8  20
TORSDOF 5
ENDMDL
MODEL 2
REMARK VINA RESULT:      -6.0      8.711     10.565
REMARK  Name = 
REMARK  8 active torsions:
REMARK  status: ('A' for Active; 'I' for Inactive)
REMARK    1  A    between atoms: C_1  and  C_2
REMARK    2  A    between atoms: C_6  and  C_7
REMARK    3  A    between atoms: C_8  and  O_9
REMARK    4  A    between atoms: O_9  and  C_10
REMARK    5  A    between atoms: C_13  and  O_14
REMARK    6  A    between atoms: C_15  and  O_16
REMARK    7  A    between atoms: C_17  and  O_18
REMARK    8  A    between atoms: C_22  and  C_23
REMARK                            x       y       z     vdW  Elec       q    Type
REMARK                         _______ _______ _______ _____ _____    ______ ____
ROOT
ATOM      1  C   UNL     1       1.349  16.492  18.350  0.00  0.00    +0.000 C 
ATOM      2  C   UNL     1       0.626  15.642  19.401  0.00  0.00    +0.000 C 
ATOM      3  C   UNL     1       0.553  16.423  20.710  0.00  0.00    +0.000 C 
ATOM      4  C   UNL     1      -0.289  15.695  21.747  0.00  0.00    +0.000 C 
ATOM      5  C   UNL     1       0.125  14.239  21.987  0.00  0.00    +0.000 C 
ATOM      6  C   UNL     1      -0.911  13.463  22.862  0.00  0.00    +0.000 C 
ATOM      7  C   UNL     1      -1.459  14.274  24.039  0.00  0.00    +0.000 C 
ATOM      8  C   UNL     1      -2.035  12.751  22.071  0.00  0.00    +0.000 C 
ATOM      9  O   UNL     1      -1.454  11.959  21.053  0.00  0.00    +0.000 OA
ATOM     10  C   UNL     1      -0.709  12.703  20.097  0.00  0.00    +0.000 C 
ATOM     11  O   UNL     1      -0.363  11.786  19.051  0.00  0.00    +0.000 OA
ATOM     12  C   UNL     1       0.928  11.223  19.285  0.00  0.00    +0.000 C 
ATOM     13  C   UNL     1       0.923   9.779  18.785  0.00  0.00    +0.000 C 
ATOM     14  C   UNL     1       1.975  12.044  18.510  0.00  0.00    +0.000 C 
ATOM     15  C   UNL     1       1.585  13.518  18.348  0.00  0.00    +0.000 C 
ATOM     16  C   UNL     1       1.308  14.279  19.665  0.00  0.00    +0.000 C 
ATOM     17  C   UNL     1       0.523  13.429  20.715  0.00  0.00    +0.000 C 
ATOM     18  O   UNL     1       1.522  12.479  21.186  0.00  0.00    +0.000 OA
ATOM     19  O   UNL     1       1.213  11.144  20.687  0.00  0.00    +0.000 OA
ENDROOT
BRANCH   8  20
ATOM     20  O   UNL     1      -3.111  13.589  21.588  0.00  0.00    +0.000 OA
BRANCH  20  21
ATOM     21  C   UNL     1      -4.346  12.825  21.564  0.00  0.00    +0.000 C 
ATOM     22  O   UNL     1      -4.679  12.286  22.843  0.00  0.00    +0.000 OA
ATOM     23  C   UNL     1      -5.131  13.263  23.769  0.00  0.00    +0.000 C 
ATOM     24  C   UNL     1      -6.465  13.835  23.319  0.00  0.00    +0.000 C 
ATOM     25  C   UNL     1      -6.302  14.495  21.943  0.00  0.00    +0.000 C 
ATOM     26  C   UNL     1      -5.556  13.582  20.949  0.00  0.00    +0.000 C 
BRANCH  24  27
ATOM     27  O   UNL     1      -6.968  14.746  24.295  0.00  0.00    +0.000 OA
ATOM     28  H   UNL     1      -6.410  15.541  24.302  0.00  0.00    +0.000 HD
ENDBRANCH  24  27
BRANCH  25  29
ATOM     29  O   UNL     1      -7.606  14.827  21.418  0.00  0.00    +0.000 OA
ATOM     30  H   UNL     1      -7.658  15.786  21.309  0.00  0.00    +0.000 HD
ENDBRANCH  25  29
BRANCH  26  31
ATOM     31  O   UNL     1      -5.185  14.298  19.762  0.00  0.00    +0.000 OA
ATOM     32  H   UNL     1      -4.225  14.453  19.812  0.00  0.00    +0.000 HD
ENDBRANCH  26  31
ENDBRANCH  20  21
ENDBRANCH   8  20
TORSDOF 5
ENDMDL
MODEL 3
REMARK VINA RESULT:      -5.9      7.629      9.654
REMARK  Name = 
REMARK  8 active torsions:
REMARK  status: ('A' for Active; 'I' for Inactive)
REMARK    1  A    between atoms: C_1  and  C_2
REMARK    2  A    between atoms: C_6  and  C_7
REMARK    3  A    between atoms: C_8  and  O_9
REMARK    4  A    between atoms: O_9  and  C_10
REMARK    5  A    between atoms: C_13  and  O_14
REMARK    6  A    between atoms: C_15  and  O_16
REMARK    7  A    between atoms: C_17  and  O_18
REMARK    8  A    between atoms: C_22  and  C_23
REMARK                            x       y       z     vdW  Elec       q    Type
REMARK                         _______ _______ _______ _____ _____    ______ ____
ROOT
ATOM      1  C   UNL     1       0.406  18.631  16.143  0.00  0.00    +0.000 C 
ATOM      2  C   UNL     1       0.126  17.717  17.342  0.00  0.00    +0.000 C 
ATOM      3  C   UNL     1      -1.048  18.282  18.137  0.00  0.00    +0.000 C 
ATOM      4  C   UNL     1      -1.472  17.337  19.251  0.00  0.00    +0.000 C 
ATOM      5  C   UNL     1      -0.330  16.899  20.176  0.00  0.00    +0.000 C 
ATOM      6  C   UNL     1      -0.757  15.745  21.139  0.00  0.00    +0.000 C 
ATOM      7  C   UNL     1      -2.157  15.921  21.734  0.00  0.00    +0.000 C 
ATOM      8  C   UNL     1      -0.529  14.315  20.592  0.00  0.00    +0.000 C 
ATOM      9  O   UNL     1       0.804  14.201  20.134  0.00  0.00    +0.000 OA
ATOM     10  C   UNL     1       1.127  15.087  19.070  0.00  0.00    +0.000 C 
ATOM     11  O   UNL     1       2.429  14.707  18.609  0.00  0.00    +0.000 OA
ATOM     12  C   UNL     1       3.437  15.482  19.259  0.00  0.00    +0.000 C 
ATOM     13  C   UNL     1       4.668  14.601  19.462  0.00  0.00    +0.000 C 
ATOM     14  C   UNL     1       3.793  16.684  18.365  0.00  0.00    +0.000 C 
ATOM     15  C   UNL     1       2.617  17.164  17.504  0.00  0.00    +0.000 C 
ATOM     16  C   UNL     1       1.341  17.552  18.285  0.00  0.00    +0.000 C 
ATOM     17  C   UNL     1       1.028  16.588  19.474  0.00  0.00    +0.000 C 
ATOM     18  O   UNL     1       2.037  16.943  20.463  0.00  0.00    +0.000 OA
ATOM     19  O   UNL     1       3.022  15.874  20.573  0.00  0.00    +0.000 OA
ENDROOT
BRANCH   8  20
ATOM     20  O   UNL     1      -1.498  13.834  19.632  0.00  0.00    +0.000 OA
BRANCH  20  21
ATOM     21  C   UNL     1      -1.653  12.397  19.779  0.00  0.00    +0.000 C 
ATOM     22  O   UNL     1      -2.981  12.027  20.149  0.00  0.00    +0.000 OA
ATOM     23  C   UNL     1      -3.922  12.167  19.095  0.00  0.00    +0.000 C 
ATOM     24  C   UNL     1      -3.622  11.169  17.988  0.00  0.00    +0.000 C 
ATOM     25  C   UNL     1      -2.215  11.429  17.433  0.00  0.00    +0.000 C 
ATOM     26  C   UNL     1      -1.167  11.571  18.555  0.00  0.00    +0.000 C 
BRANCH  24  27
ATOM     27  O   UNL     1      -4.621  11.241  16.973  0.00  0.00    +0.000 OA
ATOM     28  H   UNL     1      -4.898  10.339  16.737  0.00  0.00    +0.000 HD
ENDBRANCH  24  27
BRANCH  25  29
ATOM     29  O   UNL     1      -1.845  10.346  16.553  0.00  0.00    +0.000 OA
ATOM     30  H   UNL     1      -0.897  10.406  16.372  0.00  0.00    +0.000 HD
ENDBRANCH  25  29
BRANCH  26  31
ATOM     31  O   UNL     1       0.080  12.064  18.045  0.00  0.00    +0.000 OA
ATOM     32  H   UNL     1       0.075  13.030  18.167  0.00  0.00    +0.000 HD
ENDBRANCH  26  31
ENDBRANCH  20  21
ENDBRANCH   8  20
TORSDOF 5
ENDMDL
MODEL 4
REMARK VINA RESULT:      -5.8      3.282      5.146
REMARK  Name = 
REMARK  8 active torsions:
REMARK  status: ('A' for Active; 'I' for Inactive)
REMARK    1  A    between atoms: C_1  and  C_2
REMARK    2  A    between atoms: C_6  and  C_7
REMARK    3  A    between atoms: C_8  and  O_9
REMARK    4  A    between atoms: O_9  and  C_10
REMARK    5  A    between atoms: C_13  and  O_14
REMARK    6  A    between atoms: C_15  and  O_16
REMARK    7  A    between atoms: C_17  and  O_18
REMARK    8  A    between atoms: C_22  and  C_23
REMARK                            x       y       z     vdW  Elec       q    Type
REMARK                         _______ _______ _______ _____ _____    ______ ____
ROOT
ATOM      1  C   UNL     1      11.518  18.420  17.429  0.00  0.00    +0.000 C 
ATOM      2  C   UNL     1      10.658  17.587  18.387  0.00  0.00    +0.000 C 
ATOM      3  C   UNL     1      10.479  18.355  19.694  0.00  0.00    +0.000 C 
ATOM      4  C   UNL     1       9.507  17.648  20.626  0.00  0.00    +0.000 C 
ATOM      5  C   UNL     1       9.839  16.174  20.886  0.00  0.00    +0.000 C 
ATOM      6  C   UNL     1       8.689  15.430  21.637  0.00  0.00    +0.000 C 
ATOM      7  C   UNL     1       8.054  16.248  22.764  0.00  0.00    +0.000 C 
ATOM      8  C   UNL     1       7.627  14.771  20.722  0.00  0.00    +0.000 C 
ATOM      9  O   UNL     1       8.279  13.969  19.757  0.00  0.00    +0.000 OA
ATOM     10  C   UNL     1       9.147  14.694  18.896  0.00  0.00    +0.000 C 
ATOM     11  O   UNL     1       9.564  13.777  17.876  0.00  0.00    +0.000 OA
ATOM     12  C   UNL     1      10.802  13.161  18.233  0.00  0.00    +0.000 C 
ATOM     13  C   UNL     1      10.794  11.725  17.712  0.00  0.00    +0.000 C 
ATOM     14  C   UNL     1      11.953  13.948  17.583  0.00  0.00    +0.000 C 
ATOM     15  C   UNL     1      11.639  15.439  17.404  0.00  0.00    +0.000 C 
ATOM     16  C   UNL     1      11.256  16.195  18.698  0.00  0.00    +0.000 C 
ATOM     17  C   UNL     1      10.335  15.364  19.648  0.00  0.00    +0.000 C 
ATOM     18  O   UNL     1      11.244  14.370  20.204  0.00  0.00    +0.000 OA
ATOM     19  O   UNL     1      10.937  13.054  19.655  0.00  0.00    +0.000 OA
ENDROOT
BRANCH   8  20
ATOM     20  O   UNL     1       6.639  15.657  20.145  0.00  0.00    +0.000 OA
BRANCH  20  21
ATOM     21  C   UNL     1       5.375  14.954  20.017  0.00  0.00    +0.000 C 
ATOM     22  O   UNL     1       4.339  15.548  20.799  0.00  0.00    +0.000 OA
ATOM     23  C   UNL     1       3.872  16.783  20.277  0.00  0.00    +0.000 C 
ATOM     24  C   UNL     1       3.165  16.557  18.950  0.00  0.00    +0.000 C 
ATOM     25  C   UNL     1       4.145  15.934  17.947  0.00  0.00    +0.000 C 
ATOM     26  C   UNL     1       4.908  14.737  18.550  0.00  0.00    +0.000 C 
BRANCH  24  27
ATOM     27  O   UNL     1       2.611  17.780  18.470  0.00  0.00    +0.000 OA
ATOM     28  H   UNL     1       3.330  18.419  18.329  0.00  0.00    +0.000 HD
ENDBRANCH  24  27
BRANCH  25  29
ATOM     29  O   UNL     1       3.417  15.509  16.774  0.00  0.00    +0.000 OA
ATOM     30  H   UNL     1       2.706  16.142  16.608  0.00  0.00    +0.000 HD
ENDBRANCH  25  29
BRANCH  26  31
ATOM     31  O   UNL     1       5.992  14.330  17.704  0.00  0.00    +0.000 OA
ATOM     32  H   UNL     1       5.953  14.885  16.905  0.00  0.00    +0.000 HD
ENDBRANCH  26  31
ENDBRANCH  20  21
ENDBRANCH   8  20
TORSDOF 5
ENDMDL
MODEL 5
REMARK VINA RESULT:      -5.8      8.910     10.864
REMARK  Name = 
REMARK  8 active torsions:
REMARK  status: ('A' for Active; 'I' for Inactive)
REMARK    1  A    between atoms: C_1  and  C_2
REMARK    2  A    between atoms: C_6  and  C_7
REMARK    3  A    between atoms: C_8  and  O_9
REMARK    4  A    between atoms: O_9  and  C_10
REMARK    5  A    between atoms: C_13  and  O_14
REMARK    6  A    between atoms: C_15  and  O_16
REMARK    7  A    between atoms: C_17  and  O_18
REMARK    8  A    between atoms: C_22  and  C_23
REMARK                            x       y       z     vdW  Elec       q    Type
REMARK                         _______ _______ _______ _____ _____    ______ ____
ROOT
ATOM      1  C   UNL     1       1.525  16.377  18.599  0.00  0.00    +0.000 C 
ATOM      2  C   UNL     1       0.699  15.460  19.509  0.00  0.00    +0.000 C 
ATOM      3  C   UNL     1       0.532  16.129  20.871  0.00  0.00    +0.000 C 
ATOM      4  C   UNL     1      -0.408  15.337  21.768  0.00  0.00    +0.000 C 
ATOM      5  C   UNL     1      -0.043  13.855  21.914  0.00  0.00    +0.000 C 
ATOM      6  C   UNL     1      -1.164  13.036  22.630  0.00  0.00    +0.000 C 
ATOM      7  C   UNL     1      -1.792  13.758  23.825  0.00  0.00    +0.000 C 
ATOM      8  C   UNL     1      -2.232  12.424  21.690  0.00  0.00    +0.000 C 
ATOM      9  O   UNL     1      -1.583  11.707  20.658  0.00  0.00    +0.000 OA
ATOM     10  C   UNL     1      -0.746  12.509  19.835  0.00  0.00    +0.000 C 
ATOM     11  O   UNL     1      -0.332  11.676  18.745  0.00  0.00    +0.000 OA
ATOM     12  C   UNL     1       0.924  11.061  19.034  0.00  0.00    +0.000 C 
ATOM     13  C   UNL     1       0.933   9.666  18.411  0.00  0.00    +0.000 C 
ATOM     14  C   UNL     1       2.047  11.916  18.421  0.00  0.00    +0.000 C 
ATOM     15  C   UNL     1       1.701  13.409  18.357  0.00  0.00    +0.000 C 
ATOM     16  C   UNL     1       1.330  14.062  19.708  0.00  0.00    +0.000 C 
ATOM     17  C   UNL     1       0.444  13.147  20.612  0.00  0.00    +0.000 C 
ATOM     18  O   UNL     1       1.381  12.134  21.079  0.00  0.00    +0.000 OA
ATOM     19  O   UNL     1       1.089  10.855  20.442  0.00  0.00    +0.000 OA
ENDROOT
BRANCH   8  20
ATOM     20  O   UNL     1      -3.247  13.328  21.197  0.00  0.00    +0.000 OA
BRANCH  20  21
ATOM     21  C   UNL     1      -4.518  12.631  21.114  0.00  0.00    +0.000 C 
ATOM     22  O   UNL     1      -5.476  13.131  22.047  0.00  0.00    +0.000 OA
ATOM     23  C   UNL     1      -5.989  14.409  21.701  0.00  0.00    +0.000 C 
ATOM     24  C   UNL     1      -6.817  14.315  20.430  0.00  0.00    +0.000 C 
ATOM     25  C   UNL     1      -5.935  13.808  19.281  0.00  0.00    +0.000 C 
ATOM     26  C   UNL     1      -5.120  12.563  19.683  0.00  0.00    +0.000 C 
BRANCH  24  27
ATOM     27  O   UNL     1      -7.413  15.577  20.134  0.00  0.00    +0.000 OA
ATOM     28  H   UNL     1      -8.337  15.434  19.867  0.00  0.00    +0.000 HD
ENDBRANCH  24  27
BRANCH  25  29
ATOM     29  O   UNL     1      -6.769  13.501  18.143  0.00  0.00    +0.000 OA
ATOM     30  H   UNL     1      -7.585  14.014  18.212  0.00  0.00    +0.000 HD
ENDBRANCH  25  29
BRANCH  26  31
ATOM     31  O   UNL     1      -4.119  12.256  18.702  0.00  0.00    +0.000 OA
ATOM     32  H   UNL     1      -3.269  12.570  19.055  0.00  0.00    +0.000 HD
ENDBRANCH  26  31
ENDBRANCH  20  21
ENDBRANCH   8  20
TORSDOF 5
ENDMDL
MODEL 6
REMARK VINA RESULT:      -5.8      0.957      1.054
REMARK  Name = 
REMARK  8 active torsions:
REMARK  status: ('A' for Active; 'I' for Inactive)
REMARK    1  A    between atoms: C_1  and  C_2
REMARK    2  A    between atoms: C_6  and  C_7
REMARK    3  A    between atoms: C_8  and  O_9
REMARK    4  A    between atoms: O_9  and  C_10
REMARK    5  A    between atoms: C_13  and  O_14
REMARK    6  A    between atoms: C_15  and  O_16
REMARK    7  A    between atoms: C_17  and  O_18
REMARK    8  A    between atoms: C_22  and  C_23
REMARK                            x       y       z     vdW  Elec       q    Type
REMARK                         _______ _______ _______ _____ _____    ______ ____
ROOT
ATOM      1  C   UNL     1       5.647  14.925  17.820  0.00  0.00    +0.000 C 
ATOM      2  C   UNL     1       6.485  14.877  19.103  0.00  0.00    +0.000 C 
ATOM      3  C   UNL     1       6.283  16.175  19.880  0.00  0.00    +0.000 C 
ATOM      4  C   UNL     1       6.968  16.124  21.238  0.00  0.00    +0.000 C 
ATOM      5  C   UNL     1       8.448  15.730  21.184  0.00  0.00    +0.000 C 
ATOM      6  C   UNL     1       9.039  15.447  22.602  0.00  0.00    +0.000 C 
ATOM      7  C   UNL     1       8.583  16.441  23.673  0.00  0.00    +0.000 C 
ATOM      8  C   UNL     1       8.923  13.979  23.080  0.00  0.00    +0.000 C 
ATOM      9  O   UNL     1       9.434  13.123  22.077  0.00  0.00    +0.000 OA
ATOM     10  C   UNL     1       8.730  13.194  20.844  0.00  0.00    +0.000 C 
ATOM     11  O   UNL     1       9.248  12.140  20.021  0.00  0.00    +0.000 OA
ATOM     12  C   UNL     1      10.301  12.627  19.189  0.00  0.00    +0.000 C 
ATOM     13  C   UNL     1      11.336  11.516  19.020  0.00  0.00    +0.000 C 
ATOM     14  C   UNL     1       9.713  13.009  17.818  0.00  0.00    +0.000 C 
ATOM     15  C   UNL     1       8.255  13.480  17.898  0.00  0.00    +0.000 C 
ATOM     16  C   UNL     1       7.996  14.675  18.843  0.00  0.00    +0.000 C 
ATOM     17  C   UNL     1       8.810  14.597  20.174  0.00  0.00    +0.000 C 
ATOM     18  O   UNL     1      10.169  14.910  19.750  0.00  0.00    +0.000 OA
ATOM     19  O   UNL     1      10.997  13.711  19.814  0.00  0.00    +0.000 OA
ENDROOT
BRANCH   8  20
ATOM     20  O   UNL     1       7.626  13.563  23.568  0.00  0.00    +0.000 OA
BRANCH  20  21
ATOM     21  C   UNL     1       7.767  12.338  24.335  0.00  0.00    +0.000 C 
ATOM     22  O   UNL     1       8.545  12.521  25.517  0.00  0.00    +0.000 OA
ATOM     23  C   UNL     1       7.871  13.250  26.532  0.00  0.00    +0.000 C 
ATOM     24  C   UNL     1       6.693  12.447  27.060  0.00  0.00    +0.000 C 
ATOM     25  C   UNL     1       5.710  12.167  25.915  0.00  0.00    +0.000 C 
ATOM     26  C   UNL     1       6.423  11.627  24.660  0.00  0.00    +0.000 C 
BRANCH  24  27
ATOM     27  O   UNL     1       6.073  13.134  28.145  0.00  0.00    +0.000 OA
ATOM     28  H   UNL     1       5.218  13.488  27.847  0.00  0.00    +0.000 HD
ENDBRANCH  24  27
BRANCH  25  29
ATOM     29  O   UNL     1       4.720  11.216  26.363  0.00  0.00    +0.000 OA
ATOM     30  H   UNL     1       4.321  11.548  27.178  0.00  0.00    +0.000 HD
ENDBRANCH  25  29
BRANCH  26  31
ATOM     31  O   UNL     1       5.544  11.614  23.526  0.00  0.00    +0.000 OA
ATOM     32  H   UNL     1       5.968  11.064  22.844  0.00  0.00    +0.000 HD
ENDBRANCH  26  31
ENDBRANCH  20  21
ENDBRANCH   8  20
TORSDOF 5
ENDMDL
MODEL 7
REMARK VINA RESULT:      -5.7      3.638      6.329
REMARK  Name = 
REMARK  8 active torsions:
REMARK  status: ('A' for Active; 'I' for Inactive)
REMARK    1  A    between atoms: C_1  and  C_2
REMARK    2  A    between atoms: C_6  and  C_7
REMARK    3  A    between atoms: C_8  and  O_9
REMARK    4  A    between atoms: O_9  and  C_10
REMARK    5  A    between atoms: C_13  and  O_14
REMARK    6  A    between atoms: C_15  and  O_16
REMARK    7  A    between atoms: C_17  and  O_18
REMARK    8  A    between atoms: C_22  and  C_23
REMARK                            x       y       z     vdW  Elec       q    Type
REMARK                         _______ _______ _______ _____ _____    ______ ____
ROOT
ATOM      1  C   UNL     1       5.517  15.881  23.835  0.00  0.00    +0.000 C 
ATOM      2  C   UNL     1       6.273  16.169  22.533  0.00  0.00    +0.000 C 
ATOM      3  C   UNL     1       7.356  17.210  22.805  0.00  0.00    +0.000 C 
ATOM      4  C   UNL     1       8.241  17.425  21.587  0.00  0.00    +0.000 C 
ATOM      5  C   UNL     1       7.475  17.739  20.297  0.00  0.00    +0.000 C 
ATOM      6  C   UNL     1       8.396  17.702  19.035  0.00  0.00    +0.000 C 
ATOM      7  C   UNL     1       9.767  18.348  19.250  0.00  0.00    +0.000 C 
ATOM      8  C   UNL     1       8.502  16.323  18.341  0.00  0.00    +0.000 C 
ATOM      9  O   UNL     1       7.200  15.824  18.101  0.00  0.00    +0.000 OA
ATOM     10  C   UNL     1       6.436  15.614  19.282  0.00  0.00    +0.000 C 
ATOM     11  O   UNL     1       5.242  14.935  18.875  0.00  0.00    +0.000 OA
ATOM     12  C   UNL     1       4.191  15.871  18.633  0.00  0.00    +0.000 C 
ATOM     13  C   UNL     1       3.336  15.350  17.480  0.00  0.00    +0.000 C 
ATOM     14  C   UNL     1       3.335  15.996  19.907  0.00  0.00    +0.000 C 
ATOM     15  C   UNL     1       4.133  15.759  21.195  0.00  0.00    +0.000 C 
ATOM     16  C   UNL     1       5.361  16.677  21.392  0.00  0.00    +0.000 C 
ATOM     17  C   UNL     1       6.162  16.926  20.074  0.00  0.00    +0.000 C 
ATOM     18  O   UNL     1       5.297  17.830  19.326  0.00  0.00    +0.000 OA
ATOM     19  O   UNL     1       4.711  17.130  18.190  0.00  0.00    +0.000 OA
ENDROOT
BRANCH   8  20
ATOM     20  O   UNL     1       9.371  15.353  18.970  0.00  0.00    +0.000 OA
BRANCH  20  21
ATOM     21  C   UNL     1      10.208  14.727  17.961  0.00  0.00    +0.000 C 
ATOM     22  O   UNL     1      11.592  14.749  18.310  0.00  0.00    +0.000 OA
ATOM     23  C   UNL     1      11.927  13.848  19.355  0.00  0.00    +0.000 C 
ATOM     24  C   UNL     1      11.750  12.413  18.886  0.00  0.00    +0.000 C 
ATOM     25  C   UNL     1      10.287  12.182  18.483  0.00  0.00    +0.000 C 
ATOM     26  C   UNL     1       9.761  13.295  17.555  0.00  0.00    +0.000 C 
BRANCH  24  27
ATOM     27  O   UNL     1      12.177  11.505  19.900  0.00  0.00    +0.000 OA
ATOM     28  H   UNL     1      13.129  11.339  19.795  0.00  0.00    +0.000 HD
ENDBRANCH  24  27
BRANCH  25  29
ATOM     29  O   UNL     1      10.173  10.902  17.825  0.00  0.00    +0.000 OA
ATOM     30  H   UNL     1      10.160  10.209  18.499  0.00  0.00    +0.000 HD
ENDBRANCH  25  29
BRANCH  26  31
ATOM     31  O   UNL     1       8.338  13.210  17.395  0.00  0.00    +0.000 OA
ATOM     32  H   UNL     1       7.962  13.038  18.276  0.00  0.00    +0.000 HD
ENDBRANCH  26  31
ENDBRANCH  20  21
ENDBRANCH   8  20
TORSDOF 5
ENDMDL
MODEL 8
REMARK VINA RESULT:      -5.6      2.623      3.565
REMARK  Name = 
REMARK  8 active torsions:
REMARK  status: ('A' for Active; 'I' for Inactive)
REMARK    1  A    between atoms: C_1  and  C_2
REMARK    2  A    between atoms: C_6  and  C_7
REMARK    3  A    between atoms: C_8  and  O_9
REMARK    4  A    between atoms: O_9  and  C_10
REMARK    5  A    between atoms: C_13  and  O_14
REMARK    6  A    between atoms: C_15  and  O_16
REMARK    7  A    between atoms: C_17  and  O_18
REMARK    8  A    between atoms: C_22  and  C_23
REMARK                            x       y       z     vdW  Elec       q    Type
REMARK                         _______ _______ _______ _____ _____    ______ ____
ROOT
ATOM      1  C   UNL     1      10.786  16.254  16.842  0.00  0.00    +0.000 C 
ATOM      2  C   UNL     1      10.339  15.829  18.246  0.00  0.00    +0.000 C 
ATOM      3  C   UNL     1      10.882  16.827  19.266  0.00  0.00    +0.000 C 
ATOM      4  C   UNL     1      10.343  16.546  20.660  0.00  0.00    +0.000 C 
ATOM      5  C   UNL     1      10.540  15.101  21.134  0.00  0.00    +0.000 C 
ATOM      6  C   UNL     1       9.757  14.797  22.452  0.00  0.00    +0.000 C 
ATOM      7  C   UNL     1       9.824  15.923  23.486  0.00  0.00    +0.000 C 
ATOM      8  C   UNL     1       8.315  14.272  22.251  0.00  0.00    +0.000 C 
ATOM      9  O   UNL     1       8.339  13.184  21.348  0.00  0.00    +0.000 OA
ATOM     10  C   UNL     1       8.820  13.520  20.053  0.00  0.00    +0.000 C 
ATOM     11  O   UNL     1       8.596  12.370  19.227  0.00  0.00    +0.000 OA
ATOM     12  C   UNL     1       9.758  11.541  19.197  0.00  0.00    +0.000 C 
ATOM     13  C   UNL     1       9.309  10.083  19.115  0.00  0.00    +0.000 C 
ATOM     14  C   UNL     1      10.594  11.903  17.956  0.00  0.00    +0.000 C 
ATOM     15  C   UNL     1      10.451  13.373  17.542  0.00  0.00    +0.000 C 
ATOM     16  C   UNL     1      10.806  14.407  18.636  0.00  0.00    +0.000 C 
ATOM     17  C   UNL     1      10.303  13.998  20.057  0.00  0.00    +0.000 C 
ATOM     18  O   UNL     1      11.210  12.922  20.433  0.00  0.00    +0.000 OA
ATOM     19  O   UNL     1      10.503  11.647  20.417  0.00  0.00    +0.000 OA
ENDROOT
BRANCH   8  20
ATOM     20  O   UNL     1       7.312  15.260  21.917  0.00  0.00    +0.000 OA
BRANCH  20  21
ATOM     21  C   UNL     1       6.433  15.461  23.055  0.00  0.00    +0.000 C 
ATOM     22  O   UNL     1       6.192  16.842  23.321  0.00  0.00    +0.000 OA
ATOM     23  C   UNL     1       5.342  17.463  22.369  0.00  0.00    +0.000 C 
ATOM     24  C   UNL     1       3.940  16.884  22.462  0.00  0.00    +0.000 C 
ATOM     25  C   UNL     1       3.988  15.377  22.174  0.00  0.00    +0.000 C 
ATOM     26  C   UNL     1       5.096  14.670  22.979  0.00  0.00    +0.000 C 
BRANCH  24  27
ATOM     27  O   UNL     1       3.060  17.572  21.574  0.00  0.00    +0.000 OA
ATOM     28  H   UNL     1       2.409  16.941  21.222  0.00  0.00    +0.000 HD
ENDBRANCH  24  27
BRANCH  25  29
ATOM     29  O   UNL     1       2.706  14.792  22.488  0.00  0.00    +0.000 OA
ATOM     30  H   UNL     1       2.074  15.506  22.650  0.00  0.00    +0.000 HD
ENDBRANCH  25  29
BRANCH  26  31
ATOM     31  O   UNL     1       5.301  13.328  22.517  0.00  0.00    +0.000 OA
ATOM     32  H   UNL     1       6.224  13.270  22.210  0.00  0.00    +0.000 HD
ENDBRANCH  26  31
ENDBRANCH  20  21
ENDBRANCH   8  20
TORSDOF 5
ENDMDL
MODEL 9
REMARK VINA RESULT:      -5.5     10.310     13.015
REMARK  Name = 
REMARK  8 active torsions:
REMARK  status: ('A' for Active; 'I' for Inactive)
REMARK    1  A    between atoms: C_1  and  C_2
REMARK    2  A    between atoms: C_6  and  C_7
REMARK    3  A    between atoms: C_8  and  O_9
REMARK    4  A    between atoms: O_9  and  C_10
REMARK    5  A    between atoms: C_13  and  O_14
REMARK    6  A    between atoms: C_15  and  O_16
REMARK    7  A    between atoms: C_17  and  O_18
REMARK    8  A    between atoms: C_22  and  C_23
REMARK                            x       y       z     vdW  Elec       q    Type
REMARK                         _______ _______ _______ _____ _____    ______ ____
ROOT
ATOM      1  C   UNL     1      -7.253  12.425  23.810  0.00  0.00    +0.000 C 
ATOM      2  C   UNL     1      -5.924  13.009  23.318  0.00  0.00    +0.000 C 
ATOM      3  C   UNL     1      -4.811  12.594  24.276  0.00  0.00    +0.000 C 
ATOM      4  C   UNL     1      -3.444  13.014  23.758  0.00  0.00    +0.000 C 
ATOM      5  C   UNL     1      -3.337  14.497  23.387  0.00  0.00    +0.000 C 
ATOM      6  C   UNL     1      -2.010  14.826  22.630  0.00  0.00    +0.000 C 
ATOM      7  C   UNL     1      -0.778  14.124  23.206  0.00  0.00    +0.000 C 
ATOM      8  C   UNL     1      -2.086  14.703  21.089  0.00  0.00    +0.000 C 
ATOM      9  O   UNL     1      -3.198  15.440  20.620  0.00  0.00    +0.000 OA
ATOM     10  C   UNL     1      -4.448  14.977  21.115  0.00  0.00    +0.000 C 
ATOM     11  O   UNL     1      -5.459  15.697  20.398  0.00  0.00    +0.000 OA
ATOM     12  C   UNL     1      -5.857  16.859  21.125  0.00  0.00    +0.000 C 
ATOM     13  C   UNL     1      -6.184  17.967  20.125  0.00  0.00    +0.000 C 
ATOM     14  C   UNL     1      -7.106  16.519  21.958  0.00  0.00    +0.000 C 
ATOM     15  C   UNL     1      -7.159  15.048  22.392  0.00  0.00    +0.000 C 
ATOM     16  C   UNL     1      -5.936  14.551  23.198  0.00  0.00    +0.000 C 
ATOM     17  C   UNL     1      -4.578  15.104  22.661  0.00  0.00    +0.000 C 
ATOM     18  O   UNL     1      -4.598  16.499  23.082  0.00  0.00    +0.000 OA
ATOM     19  O   UNL     1      -4.781  17.365  21.923  0.00  0.00    +0.000 OA
ENDROOT
BRANCH   8  20
ATOM     20  O   UNL     1      -2.029  13.362  20.549  0.00  0.00    +0.000 OA
BRANCH  20  21
ATOM     21  C   UNL     1      -1.015  13.302  19.511  0.00  0.00    +0.000 C 
ATOM     22  O   UNL     1       0.297  13.117  20.040  0.00  0.00    +0.000 OA
ATOM     23  C   UNL     1       0.527  11.810  20.543  0.00  0.00    +0.000 C 
ATOM     24  C   UNL     1       0.509  10.800  19.407  0.00  0.00    +0.000 C 
ATOM     25  C   UNL     1      -0.862  10.831  18.716  0.00  0.00    +0.000 C 
ATOM     26  C   UNL     1      -1.310  12.269  18.386  0.00  0.00    +0.000 C 
BRANCH  24  27
ATOM     27  O   UNL     1       0.834   9.500  19.895  0.00  0.00    +0.000 OA
ATOM     28  H   UNL     1       1.798   9.379  19.854  0.00  0.00    +0.000 HD
ENDBRANCH  24  27
BRANCH  25  29
ATOM     29  O   UNL     1      -0.799  10.049  17.504  0.00  0.00    +0.000 OA
ATOM     30  H   UNL     1      -0.126   9.364  17.614  0.00  0.00    +0.000 HD
ENDBRANCH  25  29
BRANCH  26  31
ATOM     31  O   UNL     1      -2.686  12.306  17.982  0.00  0.00    +0.000 OA
ATOM     32  H   UNL     1      -2.695  12.454  17.020  0.00  0.00    +0.000 HD
ENDBRANCH  26  31
ENDBRANCH  20  21
ENDBRANCH   8  20
TORSDOF 5
ENDMDL
