MODEL 1
REMARK VINA RESULT:      -8.0      0.000      0.000
REMARK  Name = 
REMARK  7 active torsions:
REMARK  status: ('A' for Active; 'I' for Inactive)
REMARK    1  A    between atoms: C_1  and  O_2
REMARK    2  A    between atoms: O_2  and  C_3
REMARK    3  A    between atoms: C_5  and  O_6
REMARK    4  A    between atoms: C_7  and  C_8
REMARK    5  A    between atoms: C_8  and  C_9
REMARK    6  A    between atoms: C_12  and  O_13
REMARK    7  A    between atoms: C_21  and  O_22
REMARK                            x       y       z     vdW  Elec       q    Type
REMARK                         _______ _______ _______ _____ _____    ______ ____
ROOT
ATOM      1  C   UNL     1       1.041  10.439  18.690  0.00  0.00    +0.000 A 
ATOM      2  C   UNL     1       1.854   9.704  17.814  0.00  0.00    +0.000 A 
ATOM      3  C   UNL     1       2.403   8.496  18.203  0.00  0.00    +0.000 A 
ATOM      4  C   UNL     1       2.184   7.989  19.484  0.00  0.00    +0.000 A 
ATOM      5  C   UNL     1       1.322   8.708  20.374  0.00  0.00    +0.000 A 
ATOM      6  C   UNL     1       0.719   9.951  19.996  0.00  0.00    +0.000 A 
ATOM      7  C   UNL     1      -0.210  10.649  20.966  0.00  0.00    +0.000 A 
ATOM      8  C   UNL     1      -0.908  11.846  20.680  0.00  0.00    +0.000 A 
ATOM      9  C   UNL     1      -1.777  12.474  21.585  0.00  0.00    +0.000 A 
ATOM     10  C   UNL     1      -1.997  11.902  22.821  0.00  0.00    +0.000 A 
ATOM     11  C   UNL     1      -1.352  10.727  23.153  0.00  0.00    +0.000 A 
ATOM     12  C   UNL     1      -0.471  10.100  22.238  0.00  0.00    +0.000 A 
ATOM     13  C   UNL     1       0.139   8.814  22.699  0.00  0.00    +0.000 C 
ATOM     14  C   UNL     1       1.096   8.119  21.748  0.00  0.00    +0.000 C 
ENDROOT
BRANCH   1  16
ATOM     15  C   UNL     1       1.557  12.758  18.350  0.00  0.00    +0.000 C 
ATOM     16  O   UNL     1       0.615  11.693  18.325  0.00  0.00    +0.000 OA
ENDBRANCH   1  16
BRANCH   3  17
ATOM     17  O   UNL     1       3.175   7.792  17.323  0.00  0.00    +0.000 OA
ATOM     18  H   UNL     1       3.538   8.392  16.654  0.00  0.00    +0.000 HD
ENDBRANCH   3  17
BRANCH  10  19
ATOM     19  O   UNL     1      -2.840  12.458  23.734  0.00  0.00    +0.000 OA
ATOM     20  H   UNL     1      -3.729  12.096  23.590  0.00  0.00    +0.000 HD
ENDBRANCH  10  19
BRANCH   4  21
ATOM     21  C   UNL     1       2.864   6.678  19.870  0.00  0.00    +0.000 C 
BRANCH  21  22
ATOM     22  C   UNL     1       2.105   5.417  19.510  0.00  0.00    +0.000 A 
ATOM     23  C   UNL     1       1.384   4.690  20.469  0.00  0.00    +0.000 A 
ATOM     24  C   UNL     1       0.762   3.487  20.133  0.00  0.00    +0.000 A 
ATOM     25  C   UNL     1       0.835   3.025  18.824  0.00  0.00    +0.000 A 
ATOM     26  C   UNL     1       1.467   3.773  17.839  0.00  0.00    +0.000 A 
ATOM     27  C   UNL     1       2.097   4.970  18.180  0.00  0.00    +0.000 A 
BRANCH  25  28
ATOM     28  O   UNL     1       0.303   1.820  18.472  0.00  0.00    +0.000 OA
ATOM     29  H   UNL     1       0.042   1.872  17.538  0.00  0.00    +0.000 HD
ENDBRANCH  25  28
ENDBRANCH  21  22
ENDBRANCH   4  21
TORSDOF 6
ENDMDL
MODEL 2
REMARK VINA RESULT:      -7.8      0.514      1.078
REMARK  Name = 
REMARK  7 active torsions:
REMARK  status: ('A' for Active; 'I' for Inactive)
REMARK    1  A    between atoms: C_1  and  O_2
REMARK    2  A    between atoms: O_2  and  C_3
REMARK    3  A    between atoms: C_5  and  O_6
REMARK    4  A    between atoms: C_7  and  C_8
REMARK    5  A    between atoms: C_8  and  C_9
REMARK    6  A    between atoms: C_12  and  O_13
REMARK    7  A    between atoms: C_21  and  O_22
REMARK                            x       y       z     vdW  Elec       q    Type
REMARK                         _______ _______ _______ _____ _____    ______ ____
ROOT
ATOM      1  C   UNL     1       0.441  10.672  18.678  0.00  0.00    +0.000 A 
ATOM      2  C   UNL     1       1.244  10.002  17.743  0.00  0.00    +0.000 A 
ATOM      3  C   UNL     1       1.963   8.877  18.105  0.00  0.00    +0.000 A 
ATOM      4  C   UNL     1       1.928   8.394  19.413  0.00  0.00    +0.000 A 
ATOM      5  C   UNL     1       1.081   9.044  20.367  0.00  0.00    +0.000 A 
ATOM      6  C   UNL     1       0.306  10.198  20.021  0.00  0.00    +0.000 A 
ATOM      7  C   UNL     1      -0.599  10.823  21.062  0.00  0.00    +0.000 A 
ATOM      8  C   UNL     1      -1.454  11.923  20.818  0.00  0.00    +0.000 A 
ATOM      9  C   UNL     1      -2.298  12.482  21.790  0.00  0.00    +0.000 A 
ATOM     10  C   UNL     1      -2.330  11.934  23.056  0.00  0.00    +0.000 A 
ATOM     11  C   UNL     1      -1.525  10.850  23.350  0.00  0.00    +0.000 A 
ATOM     12  C   UNL     1      -0.671  10.294  22.367  0.00  0.00    +0.000 A 
ATOM     13  C   UNL     1       0.124   9.100  22.796  0.00  0.00    +0.000 C 
ATOM     14  C   UNL     1       1.057   8.483  21.771  0.00  0.00    +0.000 C 
ENDROOT
BRANCH   1  16
ATOM     15  C   UNL     1       0.628  13.040  18.340  0.00  0.00    +0.000 C 
ATOM     16  O   UNL     1      -0.159  11.856  18.327  0.00  0.00    +0.000 OA
ENDBRANCH   1  16
BRANCH   3  17
ATOM     17  O   UNL     1       2.722   8.232  17.169  0.00  0.00    +0.000 OA
ATOM     18  H   UNL     1       3.164   7.470  17.576  0.00  0.00    +0.000 HD
ENDBRANCH   3  17
BRANCH  10  19
ATOM     19  O   UNL     1      -3.138  12.424  24.034  0.00  0.00    +0.000 OA
ATOM     20  H   UNL     1      -2.616  12.513  24.848  0.00  0.00    +0.000 HD
ENDBRANCH  10  19
BRANCH   4  21
ATOM     21  C   UNL     1       2.789   7.183  19.761  0.00  0.00    +0.000 C 
BRANCH  21  22
ATOM     22  C   UNL     1       2.179   5.834  19.439  0.00  0.00    +0.000 A 
ATOM     23  C   UNL     1       2.239   5.285  18.149  0.00  0.00    +0.000 A 
ATOM     24  C   UNL     1       1.597   4.081  17.855  0.00  0.00    +0.000 A 
ATOM     25  C   UNL     1       0.919   3.408  18.863  0.00  0.00    +0.000 A 
ATOM     26  C   UNL     1       0.922   3.885  20.167  0.00  0.00    +0.000 A 
ATOM     27  C   UNL     1       1.555   5.095  20.456  0.00  0.00    +0.000 A 
BRANCH  25  28
ATOM     28  O   UNL     1       0.219   2.267  18.600  0.00  0.00    +0.000 OA
ATOM     29  H   UNL     1      -0.669   2.369  18.980  0.00  0.00    +0.000 HD
ENDBRANCH  25  28
ENDBRANCH  21  22
ENDBRANCH   4  21
TORSDOF 6
ENDMDL
MODEL 3
REMARK VINA RESULT:      -7.5      2.597      7.841
REMARK  Name = 
REMARK  7 active torsions:
REMARK  status: ('A' for Active; 'I' for Inactive)
REMARK    1  A    between atoms: C_1  and  O_2
REMARK    2  A    between atoms: O_2  and  C_3
REMARK    3  A    between atoms: C_5  and  O_6
REMARK    4  A    between atoms: C_7  and  C_8
REMARK    5  A    between atoms: C_8  and  C_9
REMARK    6  A    between atoms: C_12  and  O_13
REMARK    7  A    between atoms: C_21  and  O_22
REMARK                            x       y       z     vdW  Elec       q    Type
REMARK                         _______ _______ _______ _____ _____    ______ ____
ROOT
ATOM      1  C   UNL     1       1.864   6.013  20.466  0.00  0.00    +0.000 A 
ATOM      2  C   UNL     1       1.001   6.846  21.194  0.00  0.00    +0.000 A 
ATOM      3  C   UNL     1       0.808   8.164  20.821  0.00  0.00    +0.000 A 
ATOM      4  C   UNL     1       1.482   8.705  19.727  0.00  0.00    +0.000 A 
ATOM      5  C   UNL     1       2.333   7.855  18.950  0.00  0.00    +0.000 A 
ATOM      6  C   UNL     1       2.539   6.480  19.295  0.00  0.00    +0.000 A 
ATOM      7  C   UNL     1       3.423   5.620  18.416  0.00  0.00    +0.000 A 
ATOM      8  C   UNL     1       3.649   4.239  18.621  0.00  0.00    +0.000 A 
ATOM      9  C   UNL     1       4.460   3.452  17.790  0.00  0.00    +0.000 A 
ATOM     10  C   UNL     1       5.064   4.028  16.691  0.00  0.00    +0.000 A 
ATOM     11  C   UNL     1       4.870   5.371  16.432  0.00  0.00    +0.000 A 
ATOM     12  C   UNL     1       4.056   6.162  17.278  0.00  0.00    +0.000 A 
ATOM     13  C   UNL     1       3.894   7.593  16.873  0.00  0.00    +0.000 C 
ATOM     14  C   UNL     1       3.035   8.473  17.762  0.00  0.00    +0.000 C 
ENDROOT
BRANCH   1  16
ATOM     15  C   UNL     1       1.127   3.755  20.808  0.00  0.00    +0.000 C 
ATOM     16  O   UNL     1       2.136   4.750  20.931  0.00  0.00    +0.000 OA
ENDBRANCH   1  16
BRANCH   3  17
ATOM     17  O   UNL     1      -0.052   8.948  21.537  0.00  0.00    +0.000 OA
ATOM     18  H   UNL     1       0.449   9.504  22.154  0.00  0.00    +0.000 HD
ENDBRANCH   3  17
BRANCH  10  19
ATOM     19  O   UNL     1       5.849   3.311  15.841  0.00  0.00    +0.000 OA
ATOM     20  H   UNL     1       5.281   2.904  15.168  0.00  0.00    +0.000 HD
ENDBRANCH  10  19
BRANCH   4  21
ATOM     21  C   UNL     1       1.268  10.182  19.402  0.00  0.00    +0.000 C 
BRANCH  21  22
ATOM     22  C   UNL     1      -0.073  10.527  18.788  0.00  0.00    +0.000 A 
ATOM     23  C   UNL     1      -0.633   9.758  17.756  0.00  0.00    +0.000 A 
ATOM     24  C   UNL     1      -1.829  10.142  17.148  0.00  0.00    +0.000 A 
ATOM     25  C   UNL     1      -2.484  11.283  17.595  0.00  0.00    +0.000 A 
ATOM     26  C   UNL     1      -1.996  12.009  18.674  0.00  0.00    +0.000 A 
ATOM     27  C   UNL     1      -0.795  11.628  19.273  0.00  0.00    +0.000 A 
BRANCH  25  28
ATOM     28  O   UNL     1      -3.616  11.732  16.981  0.00  0.00    +0.000 OA
ATOM     29  H   UNL     1      -4.368  11.239  17.347  0.00  0.00    +0.000 HD
ENDBRANCH  25  28
ENDBRANCH  21  22
ENDBRANCH   4  21
TORSDOF 6
ENDMDL
MODEL 4
REMARK VINA RESULT:      -7.3      3.663      6.079
REMARK  Name = 
REMARK  7 active torsions:
REMARK  status: ('A' for Active; 'I' for Inactive)
REMARK    1  A    between atoms: C_1  and  O_2
REMARK    2  A    between atoms: O_2  and  C_3
REMARK    3  A    between atoms: C_5  and  O_6
REMARK    4  A    between atoms: C_7  and  C_8
REMARK    5  A    between atoms: C_8  and  C_9
REMARK    6  A    between atoms: C_12  and  O_13
REMARK    7  A    between atoms: C_21  and  O_22
REMARK                            x       y       z     vdW  Elec       q    Type
REMARK                         _______ _______ _______ _____ _____    ______ ____
ROOT
ATOM      1  C   UNL     1      -5.011  11.784  18.575  0.00  0.00    +0.000 A 
ATOM      2  C   UNL     1      -4.103  11.477  17.551  0.00  0.00    +0.000 A 
ATOM      3  C   UNL     1      -2.741  11.603  17.751  0.00  0.00    +0.000 A 
ATOM      4  C   UNL     1      -2.235  12.061  18.967  0.00  0.00    +0.000 A 
ATOM      5  C   UNL     1      -3.148  12.338  20.035  0.00  0.00    +0.000 A 
ATOM      6  C   UNL     1      -4.564  12.198  19.869  0.00  0.00    +0.000 A 
ATOM      7  C   UNL     1      -5.479  12.471  21.043  0.00  0.00    +0.000 A 
ATOM      8  C   UNL     1      -6.884  12.306  21.016  0.00  0.00    +0.000 A 
ATOM      9  C   UNL     1      -7.717  12.551  22.118  0.00  0.00    +0.000 A 
ATOM     10  C   UNL     1      -7.159  12.955  23.313  0.00  0.00    +0.000 A 
ATOM     11  C   UNL     1      -5.791  13.122  23.404  0.00  0.00    +0.000 A 
ATOM     12  C   UNL     1      -4.955  12.880  22.287  0.00  0.00    +0.000 A 
ATOM     13  C   UNL     1      -3.488  13.061  22.522  0.00  0.00    +0.000 C 
ATOM     14  C   UNL     1      -2.562  12.818  21.344  0.00  0.00    +0.000 C 
ENDROOT
BRANCH   1  16
ATOM     15  C   UNL     1      -6.853  12.642  17.298  0.00  0.00    +0.000 C 
ATOM     16  O   UNL     1      -6.359  11.773  18.309  0.00  0.00    +0.000 OA
ENDBRANCH   1  16
BRANCH   3  17
ATOM     17  O   UNL     1      -1.877  11.279  16.742  0.00  0.00    +0.000 OA
ATOM     18  H   UNL     1      -0.963  11.337  17.063  0.00  0.00    +0.000 HD
ENDBRANCH   3  17
BRANCH  10  19
ATOM     19  O   UNL     1      -7.916  13.193  24.419  0.00  0.00    +0.000 OA
ATOM     20  H   UNL     1      -8.758  13.584  24.136  0.00  0.00    +0.000 HD
ENDBRANCH  10  19
BRANCH   4  21
ATOM     21  C   UNL     1      -0.724  12.233  19.106  0.00  0.00    +0.000 C 
BRANCH  21  22
ATOM     22  C   UNL     1       0.036  10.996  19.539  0.00  0.00    +0.000 A 
ATOM     23  C   UNL     1       0.819  10.257  18.640  0.00  0.00    +0.000 A 
ATOM     24  C   UNL     1       1.442   9.075  19.040  0.00  0.00    +0.000 A 
ATOM     25  C   UNL     1       1.307   8.645  20.355  0.00  0.00    +0.000 A 
ATOM     26  C   UNL     1       0.612   9.407  21.286  0.00  0.00    +0.000 A 
ATOM     27  C   UNL     1      -0.019  10.583  20.880  0.00  0.00    +0.000 A 
BRANCH  25  28
ATOM     28  O   UNL     1       1.840   7.460  20.767  0.00  0.00    +0.000 OA
ATOM     29  H   UNL     1       2.799   7.581  20.862  0.00  0.00    +0.000 HD
ENDBRANCH  25  28
ENDBRANCH  21  22
ENDBRANCH   4  21
TORSDOF 6
ENDMDL
MODEL 5
REMARK VINA RESULT:      -7.3      3.446      5.729
REMARK  Name = 
REMARK  7 active torsions:
REMARK  status: ('A' for Active; 'I' for Inactive)
REMARK    1  A    between atoms: C_1  and  O_2
REMARK    2  A    between atoms: O_2  and  C_3
REMARK    3  A    between atoms: C_5  and  O_6
REMARK    4  A    between atoms: C_7  and  C_8
REMARK    5  A    between atoms: C_8  and  C_9
REMARK    6  A    between atoms: C_12  and  O_13
REMARK    7  A    between atoms: C_21  and  O_22
REMARK                            x       y       z     vdW  Elec       q    Type
REMARK                         _______ _______ _______ _____ _____    ______ ____
ROOT
ATOM      1  C   UNL     1      -4.869  11.844  18.608  0.00  0.00    +0.000 A 
ATOM      2  C   UNL     1      -4.071  11.439  17.527  0.00  0.00    +0.000 A 
ATOM      3  C   UNL     1      -2.691  11.458  17.621  0.00  0.00    +0.000 A 
ATOM      4  C   UNL     1      -2.057  11.903  18.780  0.00  0.00    +0.000 A 
ATOM      5  C   UNL     1      -2.860  12.279  19.905  0.00  0.00    +0.000 A 
ATOM      6  C   UNL     1      -4.291  12.251  19.851  0.00  0.00    +0.000 A 
ATOM      7  C   UNL     1      -5.087  12.627  21.083  0.00  0.00    +0.000 A 
ATOM      8  C   UNL     1      -6.498  12.577  21.166  0.00  0.00    +0.000 A 
ATOM      9  C   UNL     1      -7.221  12.915  22.320  0.00  0.00    +0.000 A 
ATOM     10  C   UNL     1      -6.541  13.301  23.457  0.00  0.00    +0.000 A 
ATOM     11  C   UNL     1      -5.161  13.358  23.439  0.00  0.00    +0.000 A 
ATOM     12  C   UNL     1      -4.436  13.021  22.270  0.00  0.00    +0.000 A 
ATOM     13  C   UNL     1      -2.946  13.086  22.387  0.00  0.00    +0.000 C 
ATOM     14  C   UNL     1      -2.137  12.741  21.151  0.00  0.00    +0.000 C 
ENDROOT
BRANCH   1  16
ATOM     15  C   UNL     1      -6.727  12.722  17.368  0.00  0.00    +0.000 C 
ATOM     16  O   UNL     1      -6.230  11.937  18.445  0.00  0.00    +0.000 OA
ENDBRANCH   1  16
BRANCH   3  17
ATOM     17  O   UNL     1      -1.938  11.041  16.559  0.00  0.00    +0.000 OA
ATOM     18  H   UNL     1      -1.330  10.340  16.845  0.00  0.00    +0.000 HD
ENDBRANCH   3  17
BRANCH  10  19
ATOM     19  O   UNL     1      -7.188  13.627  24.609  0.00  0.00    +0.000 OA
ATOM     20  H   UNL     1      -6.970  12.962  25.282  0.00  0.00    +0.000 HD
ENDBRANCH  10  19
BRANCH   4  21
ATOM     21  C   UNL     1      -0.531  11.953  18.799  0.00  0.00    +0.000 C 
BRANCH  21  22
ATOM     22  C   UNL     1       0.159  10.667  19.207  0.00  0.00    +0.000 A 
ATOM     23  C   UNL     1      -0.016  10.107  20.481  0.00  0.00    +0.000 A 
ATOM     24  C   UNL     1       0.694   8.968  20.864  0.00  0.00    +0.000 A 
ATOM     25  C   UNL     1       1.560   8.369  19.957  0.00  0.00    +0.000 A 
ATOM     26  C   UNL     1       1.681   8.853  18.661  0.00  0.00    +0.000 A 
ATOM     27  C   UNL     1       0.978   9.998  18.284  0.00  0.00    +0.000 A 
BRANCH  25  28
ATOM     28  O   UNL     1       2.326   7.300  20.316  0.00  0.00    +0.000 OA
ATOM     29  H   UNL     1       3.204   7.632  20.562  0.00  0.00    +0.000 HD
ENDBRANCH  25  28
ENDBRANCH  21  22
ENDBRANCH   4  21
TORSDOF 6
ENDMDL
MODEL 6
REMARK VINA RESULT:      -7.1      2.720      7.894
REMARK  Name = 
REMARK  7 active torsions:
REMARK  status: ('A' for Active; 'I' for Inactive)
REMARK    1  A    between atoms: C_1  and  O_2
REMARK    2  A    between atoms: O_2  and  C_3
REMARK    3  A    between atoms: C_5  and  O_6
REMARK    4  A    between atoms: C_7  and  C_8
REMARK    5  A    between atoms: C_8  and  C_9
REMARK    6  A    between atoms: C_12  and  O_13
REMARK    7  A    between atoms: C_21  and  O_22
REMARK                            x       y       z     vdW  Elec       q    Type
REMARK                         _______ _______ _______ _____ _____    ______ ____
ROOT
ATOM      1  C   UNL     1       2.191   5.469  20.091  0.00  0.00    +0.000 A 
ATOM      2  C   UNL     1       1.328   6.185  20.933  0.00  0.00    +0.000 A 
ATOM      3  C   UNL     1       1.098   7.534  20.730  0.00  0.00    +0.000 A 
ATOM      4  C   UNL     1       1.736   8.222  19.699  0.00  0.00    +0.000 A 
ATOM      5  C   UNL     1       2.588   7.494  18.806  0.00  0.00    +0.000 A 
ATOM      6  C   UNL     1       2.831   6.093  18.974  0.00  0.00    +0.000 A 
ATOM      7  C   UNL     1       3.712   5.369  17.978  0.00  0.00    +0.000 A 
ATOM      8  C   UNL     1       3.972   3.979  18.006  0.00  0.00    +0.000 A 
ATOM      9  C   UNL     1       4.781   3.320  17.068  0.00  0.00    +0.000 A 
ATOM     10  C   UNL     1       5.348   4.041  16.038  0.00  0.00    +0.000 A 
ATOM     11  C   UNL     1       5.120   5.401  15.951  0.00  0.00    +0.000 A 
ATOM     12  C   UNL     1       4.309   6.062  16.905  0.00  0.00    +0.000 A 
ATOM     13  C   UNL     1       4.108   7.529  16.683  0.00  0.00    +0.000 C 
ATOM     14  C   UNL     1       3.250   8.271  17.691  0.00  0.00    +0.000 C 
ENDROOT
BRANCH   1  16
ATOM     15  C   UNL     1       1.672   3.473  21.317  0.00  0.00    +0.000 C 
ATOM     16  O   UNL     1       2.499   4.164  20.391  0.00  0.00    +0.000 OA
ENDBRANCH   1  16
BRANCH   3  17
ATOM     17  O   UNL     1       0.238   8.203  21.555  0.00  0.00    +0.000 OA
ATOM     18  H   UNL     1      -0.434   7.590  21.893  0.00  0.00    +0.000 HD
ENDBRANCH   3  17
BRANCH  10  19
ATOM     19  O   UNL     1       6.129   3.454  15.090  0.00  0.00    +0.000 OA
ATOM     20  H   UNL     1       5.805   2.551  14.942  0.00  0.00    +0.000 HD
ENDBRANCH  10  19
BRANCH   4  21
ATOM     21  C   UNL     1       1.485   9.722  19.564  0.00  0.00    +0.000 C 
BRANCH  21  22
ATOM     22  C   UNL     1       0.140  10.108  18.981  0.00  0.00    +0.000 A 
ATOM     23  C   UNL     1      -0.702  11.033  19.617  0.00  0.00    +0.000 A 
ATOM     24  C   UNL     1      -1.971  11.310  19.106  0.00  0.00    +0.000 A 
ATOM     25  C   UNL     1      -2.387  10.683  17.939  0.00  0.00    +0.000 A 
ATOM     26  C   UNL     1      -1.537   9.833  17.244  0.00  0.00    +0.000 A 
ATOM     27  C   UNL     1      -0.272   9.549  17.762  0.00  0.00    +0.000 A 
BRANCH  25  28
ATOM     28  O   UNL     1      -3.645  10.871  17.448  0.00  0.00    +0.000 OA
ATOM     29  H   UNL     1      -4.224  10.201  17.846  0.00  0.00    +0.000 HD
ENDBRANCH  25  28
ENDBRANCH  21  22
ENDBRANCH   4  21
TORSDOF 6
ENDMDL
MODEL 7
REMARK VINA RESULT:      -7.0      2.531      4.539
REMARK  Name = 
REMARK  7 active torsions:
REMARK  status: ('A' for Active; 'I' for Inactive)
REMARK    1  A    between atoms: C_1  and  O_2
REMARK    2  A    between atoms: O_2  and  C_3
REMARK    3  A    between atoms: C_5  and  O_6
REMARK    4  A    between atoms: C_7  and  C_8
REMARK    5  A    between atoms: C_8  and  C_9
REMARK    6  A    between atoms: C_12  and  O_13
REMARK    7  A    between atoms: C_21  and  O_22
REMARK                            x       y       z     vdW  Elec       q    Type
REMARK                         _______ _______ _______ _____ _____    ______ ____
ROOT
ATOM      1  C   UNL     1      -3.516  11.909  19.324  0.00  0.00    +0.000 A 
ATOM      2  C   UNL     1      -3.107  11.201  18.184  0.00  0.00    +0.000 A 
ATOM      3  C   UNL     1      -1.771  10.923  17.965  0.00  0.00    +0.000 A 
ATOM      4  C   UNL     1      -0.792  11.360  18.857  0.00  0.00    +0.000 A 
ATOM      5  C   UNL     1      -1.198  12.048  20.046  0.00  0.00    +0.000 A 
ATOM      6  C   UNL     1      -2.576  12.333  20.316  0.00  0.00    +0.000 A 
ATOM      7  C   UNL     1      -2.949  13.033  21.605  0.00  0.00    +0.000 A 
ATOM      8  C   UNL     1      -4.277  13.310  22.007  0.00  0.00    +0.000 A 
ATOM      9  C   UNL     1      -4.608  13.947  23.212  0.00  0.00    +0.000 A 
ATOM     10  C   UNL     1      -3.602  14.315  24.082  0.00  0.00    +0.000 A 
ATOM     11  C   UNL     1      -2.286  14.059  23.750  0.00  0.00    +0.000 A 
ATOM     12  C   UNL     1      -1.957  13.421  22.529  0.00  0.00    +0.000 A 
ATOM     13  C   UNL     1      -0.500  13.167  22.300  0.00  0.00    +0.000 C 
ATOM     14  C   UNL     1      -0.111  12.493  20.997  0.00  0.00    +0.000 C 
ENDROOT
BRANCH   1  16
ATOM     15  C   UNL     1      -5.743  11.897  18.432  0.00  0.00    +0.000 C 
ATOM     16  O   UNL     1      -4.832  12.281  19.453  0.00  0.00    +0.000 OA
ENDBRANCH   1  16
BRANCH   3  17
ATOM     17  O   UNL     1      -1.402  10.214  16.856  0.00  0.00    +0.000 OA
ATOM     18  H   UNL     1      -1.531  10.758  16.063  0.00  0.00    +0.000 HD
ENDBRANCH   3  17
BRANCH  10  19
ATOM     19  O   UNL     1      -3.863  14.922  25.272  0.00  0.00    +0.000 OA
ATOM     20  H   UNL     1      -4.719  15.375  25.204  0.00  0.00    +0.000 HD
ENDBRANCH  10  19
BRANCH   4  21
ATOM     21  C   UNL     1       0.671  11.071  18.528  0.00  0.00    +0.000 C 
BRANCH  21  22
ATOM     22  C   UNL     1       1.178   9.708  18.954  0.00  0.00    +0.000 A 
ATOM     23  C   UNL     1       0.946   9.203  20.243  0.00  0.00    +0.000 A 
ATOM     24  C   UNL     1       1.494   7.983  20.640  0.00  0.00    +0.000 A 
ATOM     25  C   UNL     1       2.250   7.249  19.735  0.00  0.00    +0.000 A 
ATOM     26  C   UNL     1       2.417   7.685  18.427  0.00  0.00    +0.000 A 
ATOM     27  C   UNL     1       1.878   8.910  18.035  0.00  0.00    +0.000 A 
BRANCH  25  28
ATOM     28  O   UNL     1       2.862   6.088  20.107  0.00  0.00    +0.000 OA
ATOM     29  H   UNL     1       3.308   5.724  19.325  0.00  0.00    +0.000 HD
ENDBRANCH  25  28
ENDBRANCH  21  22
ENDBRANCH   4  21
TORSDOF 6
ENDMDL
MODEL 8
REMARK VINA RESULT:      -7.0      3.119      4.882
REMARK  Name = 
REMARK  7 active torsions:
REMARK  status: ('A' for Active; 'I' for Inactive)
REMARK    1  A    between atoms: C_1  and  O_2
REMARK    2  A    between atoms: O_2  and  C_3
REMARK    3  A    between atoms: C_5  and  O_6
REMARK    4  A    between atoms: C_7  and  C_8
REMARK    5  A    between atoms: C_8  and  C_9
REMARK    6  A    between atoms: C_12  and  O_13
REMARK    7  A    between atoms: C_21  and  O_22
REMARK                            x       y       z     vdW  Elec       q    Type
REMARK                         _______ _______ _______ _____ _____    ______ ____
ROOT
ATOM      1  C   UNL     1      -1.766  12.183  20.985  0.00  0.00    +0.000 A 
ATOM      2  C   UNL     1      -0.466  12.122  21.509  0.00  0.00    +0.000 A 
ATOM      3  C   UNL     1       0.571  11.583  20.770  0.00  0.00    +0.000 A 
ATOM      4  C   UNL     1       0.348  11.063  19.495  0.00  0.00    +0.000 A 
ATOM      5  C   UNL     1      -0.966  11.157  18.931  0.00  0.00    +0.000 A 
ATOM      6  C   UNL     1      -2.058  11.730  19.660  0.00  0.00    +0.000 A 
ATOM      7  C   UNL     1      -3.416  11.833  19.000  0.00  0.00    +0.000 A 
ATOM      8  C   UNL     1      -4.549  12.434  19.597  0.00  0.00    +0.000 A 
ATOM      9  C   UNL     1      -5.799  12.535  18.966  0.00  0.00    +0.000 A 
ATOM     10  C   UNL     1      -5.952  12.049  17.684  0.00  0.00    +0.000 A 
ATOM     11  C   UNL     1      -4.877  11.462  17.045  0.00  0.00    +0.000 A 
ATOM     12  C   UNL     1      -3.620  11.357  17.688  0.00  0.00    +0.000 A 
ATOM     13  C   UNL     1      -2.525  10.735  16.879  0.00  0.00    +0.000 C 
ATOM     14  C   UNL     1      -1.166  10.598  17.540  0.00  0.00    +0.000 C 
ENDROOT
BRANCH   1  16
ATOM     15  C   UNL     1      -2.743  12.298  23.173  0.00  0.00    +0.000 C 
ATOM     16  O   UNL     1      -2.798  12.605  21.786  0.00  0.00    +0.000 OA
ENDBRANCH   1  16
BRANCH   3  17
ATOM     17  O   UNL     1       1.832  11.553  21.297  0.00  0.00    +0.000 OA
ATOM     18  H   UNL     1       2.129  10.633  21.381  0.00  0.00    +0.000 HD
ENDBRANCH   3  17
BRANCH  10  19
ATOM     19  O   UNL     1      -7.135  12.132  17.017  0.00  0.00    +0.000 OA
ATOM     20  H   UNL     1      -6.951  12.128  16.064  0.00  0.00    +0.000 HD
ENDBRANCH  10  19
BRANCH   4  21
ATOM     21  C   UNL     1       1.523  10.430  18.754  0.00  0.00    +0.000 C 
BRANCH  21  22
ATOM     22  C   UNL     1       1.751   8.958  19.030  0.00  0.00    +0.000 A 
ATOM     23  C   UNL     1       1.395   8.373  20.255  0.00  0.00    +0.000 A 
ATOM     24  C   UNL     1       1.691   7.035  20.518  0.00  0.00    +0.000 A 
ATOM     25  C   UNL     1       2.318   6.271  19.542  0.00  0.00    +0.000 A 
ATOM     26  C   UNL     1       2.599   6.804  18.291  0.00  0.00    +0.000 A 
ATOM     27  C   UNL     1       2.311   8.145  18.033  0.00  0.00    +0.000 A 
BRANCH  25  28
ATOM     28  O   UNL     1       2.689   4.982  19.787  0.00  0.00    +0.000 OA
ATOM     29  H   UNL     1       1.901   4.495  20.078  0.00  0.00    +0.000 HD
ENDBRANCH  25  28
ENDBRANCH  21  22
ENDBRANCH   4  21
TORSDOF 6
ENDMDL
MODEL 9
REMARK VINA RESULT:      -7.0      3.113      8.557
REMARK  Name = 
REMARK  7 active torsions:
REMARK  status: ('A' for Active; 'I' for Inactive)
REMARK    1  A    between atoms: C_1  and  O_2
REMARK    2  A    between atoms: O_2  and  C_3
REMARK    3  A    between atoms: C_5  and  O_6
REMARK    4  A    between atoms: C_7  and  C_8
REMARK    5  A    between atoms: C_8  and  C_9
REMARK    6  A    between atoms: C_12  and  O_13
REMARK    7  A    between atoms: C_21  and  O_22
REMARK                            x       y       z     vdW  Elec       q    Type
REMARK                         _______ _______ _______ _____ _____    ______ ____
ROOT
ATOM      1  C   UNL     1       2.950   3.605  17.985  0.00  0.00    +0.000 A 
ATOM      2  C   UNL     1       1.967   3.691  18.982  0.00  0.00    +0.000 A 
ATOM      3  C   UNL     1       1.785   4.860  19.698  0.00  0.00    +0.000 A 
ATOM      4  C   UNL     1       2.590   5.975  19.467  0.00  0.00    +0.000 A 
ATOM      5  C   UNL     1       3.569   5.915  18.424  0.00  0.00    +0.000 A 
ATOM      6  C   UNL     1       3.770   4.728  17.647  0.00  0.00    +0.000 A 
ATOM      7  C   UNL     1       4.796   4.735  16.535  0.00  0.00    +0.000 A 
ATOM      8  C   UNL     1       5.037   3.645  15.665  0.00  0.00    +0.000 A 
ATOM      9  C   UNL     1       5.982   3.672  14.629  0.00  0.00    +0.000 A 
ATOM     10  C   UNL     1       6.717   4.819  14.411  0.00  0.00    +0.000 A 
ATOM     11  C   UNL     1       6.518   5.920  15.222  0.00  0.00    +0.000 A 
ATOM     12  C   UNL     1       5.567   5.886  16.270  0.00  0.00    +0.000 A 
ATOM     13  C   UNL     1       5.417   7.152  17.054  0.00  0.00    +0.000 C 
ATOM     14  C   UNL     1       4.413   7.149  18.191  0.00  0.00    +0.000 C 
ENDROOT
BRANCH   1  16
ATOM     15  C   UNL     1       3.625   1.312  18.190  0.00  0.00    +0.000 C 
ATOM     16  O   UNL     1       3.195   2.397  17.379  0.00  0.00    +0.000 OA
ENDBRANCH   1  16
BRANCH   3  17
ATOM     17  O   UNL     1       0.807   4.922  20.651  0.00  0.00    +0.000 OA
ATOM     18  H   UNL     1       1.211   4.992  21.530  0.00  0.00    +0.000 HD
ENDBRANCH   3  17
BRANCH  10  19
ATOM     19  O   UNL     1       7.638   4.908  13.413  0.00  0.00    +0.000 OA
ATOM     20  H   UNL     1       8.523   4.925  13.812  0.00  0.00    +0.000 HD
ENDBRANCH  10  19
BRANCH   4  21
ATOM     21  C   UNL     1       2.376   7.215  20.331  0.00  0.00    +0.000 C 
BRANCH  21  22
ATOM     22  C   UNL     1       1.526   8.305  19.709  0.00  0.00    +0.000 A 
ATOM     23  C   UNL     1       1.599   8.608  18.341  0.00  0.00    +0.000 A 
ATOM     24  C   UNL     1       0.869   9.671  17.807  0.00  0.00    +0.000 A 
ATOM     25  C   UNL     1       0.039  10.413  18.637  0.00  0.00    +0.000 A 
ATOM     26  C   UNL     1      -0.118  10.075  19.975  0.00  0.00    +0.000 A 
ATOM     27  C   UNL     1       0.621   9.019  20.510  0.00  0.00    +0.000 A 
BRANCH  25  28
ATOM     28  O   UNL     1      -0.634  11.503  18.169  0.00  0.00    +0.000 OA
ATOM     29  H   UNL     1      -1.167  11.219  17.409  0.00  0.00    +0.000 HD
ENDBRANCH  25  28
ENDBRANCH  21  22
ENDBRANCH   4  21
TORSDOF 6
ENDMDL
