MODEL 1
REMARK VINA RESULT:      -7.6      0.000      0.000
REMARK  Name = 
REMARK  6 active torsions:
REMARK  status: ('A' for Active; 'I' for Inactive)
REMARK    1  A    between atoms: C_2  and  C_3
REMARK    2  A    between atoms: C_5  and  C_6
REMARK    3  A    between atoms: C_7  and  C_8
REMARK    4  A    between atoms: C_27  and  O_28
REMARK    5  A    between atoms: C_29  and  C_30
REMARK    6  A    between atoms: C_30  and  O_31
REMARK                            x       y       z     vdW  Elec       q    Type
REMARK                         _______ _______ _______ _____ _____    ______ ____
ROOT
ATOM      1  C   UNL     1       3.442   5.526  18.422  0.00  0.00    +0.000 A 
ATOM      2  C   UNL     1       4.819   5.299  18.348  0.00  0.00    +0.000 A 
ATOM      3  N   UNL     1       4.963   3.925  18.362  0.00  0.00    +0.000 N 
ATOM      4  C   UNL     1       3.755   3.287  18.452  0.00  0.00    +0.000 A 
ATOM      5  C   UNL     1       3.474   1.919  18.479  0.00  0.00    +0.000 A 
ATOM      6  F   UNL     1       4.460   1.015  18.429  0.00  0.00    +0.000 F 
ATOM      7  C   UNL     1       2.152   1.499  18.548  0.00  0.00    +0.000 A 
ATOM      8  C   UNL     1       1.148   2.448  18.577  0.00  0.00    +0.000 A 
ATOM      9  F   UNL     1      -0.133   2.047  18.633  0.00  0.00    +0.000 F 
ATOM     10  C   UNL     1       1.424   3.818  18.539  0.00  0.00    +0.000 A 
ATOM     11  C   UNL     1       2.765   4.265  18.489  0.00  0.00    +0.000 A 
ATOM     12  H   UNL     1       5.844   3.436  18.279  0.00  0.00    +0.000 HD
ENDROOT
BRANCH   2  13
ATOM     13  C   UNL     1       6.008   6.170  18.250  0.00  0.00    +0.000 A 
ATOM     14  C   UNL     1       6.010   7.275  17.377  0.00  0.00    +0.000 A 
ATOM     15  C   UNL     1       7.108   8.139  17.299  0.00  0.00    +0.000 A 
ATOM     16  C   UNL     1       8.228   7.894  18.079  0.00  0.00    +0.000 A 
ATOM     17  F   UNL     1       9.283   8.715  18.004  0.00  0.00    +0.000 F 
ATOM     18  C   UNL     1       8.262   6.809  18.942  0.00  0.00    +0.000 A 
ATOM     19  C   UNL     1       7.150   5.964  19.038  0.00  0.00    +0.000 A 
ENDBRANCH   2  13
BRANCH   1  22
ATOM     20  C   UNL     1       1.192   8.236  18.819  0.00  0.00    +0.000 C 
ATOM     21  C   UNL     1       1.382   7.104  17.773  0.00  0.00    +0.000 C 
ATOM     22  C   UNL     1       2.787   6.896  18.364  0.00  0.00    +0.000 C 
ATOM     23  C   UNL     1       2.203   7.434  19.697  0.00  0.00    +0.000 C 
BRANCH  20  25
ATOM     24  O   UNL     1       2.259   9.908  17.364  0.00  0.00    +0.000 OA
ATOM     25  C   UNL     1       1.611   9.673  18.392  0.00  0.00    +0.000 C 
ATOM     26  N   UNL     1       1.194  10.714  19.197  0.00  0.00    +0.000 N 
ATOM     27  C   UNL     1       0.489  10.654  20.466  0.00  0.00    +0.000 C 
ATOM     28  C   UNL     1      -0.420  11.878  20.379  0.00  0.00    +0.000 C 
ATOM     29  C   UNL     1       0.400  12.912  19.574  0.00  0.00    +0.000 C 
ATOM     30  C   UNL     1       1.479  12.095  18.858  0.00  0.00    +0.000 C 
BRANCH  28  31
ATOM     31  O   UNL     1      -1.629  11.528  19.696  0.00  0.00    +0.000 OA
ATOM     32  H   UNL     1      -2.182  12.331  19.660  0.00  0.00    +0.000 HD
ENDBRANCH  28  31
BRANCH  29  33
ATOM     33  C   UNL     1      -0.414  13.733  18.580  0.00  0.00    +0.000 C 
BRANCH  33  34
ATOM     34  O   UNL     1      -0.855  12.917  17.505  0.00  0.00    +0.000 OA
ATOM     35  H   UNL     1      -1.247  12.118  17.914  0.00  0.00    +0.000 HD
ENDBRANCH  33  34
ENDBRANCH  29  33
ENDBRANCH  20  25
ENDBRANCH   1  22
TORSDOF 6
ENDMDL
MODEL 2
REMARK VINA RESULT:      -7.6      4.428      9.992
REMARK  Name = 
REMARK  6 active torsions:
REMARK  status: ('A' for Active; 'I' for Inactive)
REMARK    1  A    between atoms: C_2  and  C_3
REMARK    2  A    between atoms: C_5  and  C_6
REMARK    3  A    between atoms: C_7  and  C_8
REMARK    4  A    between atoms: C_27  and  O_28
REMARK    5  A    between atoms: C_29  and  C_30
REMARK    6  A    between atoms: C_30  and  O_31
REMARK                            x       y       z     vdW  Elec       q    Type
REMARK                         _______ _______ _______ _____ _____    ______ ____
ROOT
ATOM      1  C   UNL     1       0.653  12.234  18.856  0.00  0.00    +0.000 A 
ATOM      2  C   UNL     1      -0.615  12.730  18.545  0.00  0.00    +0.000 A 
ATOM      3  N   UNL     1      -0.454  14.097  18.426  0.00  0.00    +0.000 N 
ATOM      4  C   UNL     1       0.841  14.478  18.658  0.00  0.00    +0.000 A 
ATOM      5  C   UNL     1       1.410  15.754  18.622  0.00  0.00    +0.000 A 
ATOM      6  F   UNL     1       0.664  16.829  18.343  0.00  0.00    +0.000 F 
ATOM      7  C   UNL     1       2.769  15.897  18.869  0.00  0.00    +0.000 A 
ATOM      8  C   UNL     1       3.525  14.772  19.134  0.00  0.00    +0.000 A 
ATOM      9  F   UNL     1       4.841  14.904  19.363  0.00  0.00    +0.000 F 
ATOM     10  C   UNL     1       2.962  13.493  19.161  0.00  0.00    +0.000 A 
ATOM     11  C   UNL     1       1.576  13.328  18.931  0.00  0.00    +0.000 A 
ATOM     12  H   UNL     1      -1.185  14.744  18.165  0.00  0.00    +0.000 HD
ENDROOT
BRANCH   2  13
ATOM     13  C   UNL     1      -1.942  12.117  18.327  0.00  0.00    +0.000 A 
ATOM     14  C   UNL     1      -2.944  12.223  19.312  0.00  0.00    +0.000 A 
ATOM     15  C   UNL     1      -4.222  11.689  19.109  0.00  0.00    +0.000 A 
ATOM     16  C   UNL     1      -4.505  11.022  17.927  0.00  0.00    +0.000 A 
ATOM     17  F   UNL     1      -5.724  10.505  17.730  0.00  0.00    +0.000 F 
ATOM     18  C   UNL     1      -3.538  10.892  16.942  0.00  0.00    +0.000 A 
ATOM     19  C   UNL     1      -2.270  11.453  17.136  0.00  0.00    +0.000 A 
ENDBRANCH   2  13
BRANCH   1  22
ATOM     20  C   UNL     1       1.518   8.859  18.205  0.00  0.00    +0.000 C 
ATOM     21  C   UNL     1       0.190   9.659  18.297  0.00  0.00    +0.000 C 
ATOM     22  C   UNL     1       0.991  10.760  19.013  0.00  0.00    +0.000 C 
ATOM     23  C   UNL     1       2.222  10.251  18.216  0.00  0.00    +0.000 C 
BRANCH  20  25
ATOM     24  O   UNL     1       1.572   8.148  20.560  0.00  0.00    +0.000 OA
ATOM     25  C   UNL     1       1.844   7.891  19.380  0.00  0.00    +0.000 C 
ATOM     26  N   UNL     1       2.430   6.684  19.054  0.00  0.00    +0.000 N 
ATOM     27  C   UNL     1       2.886   6.216  17.757  0.00  0.00    +0.000 C 
ATOM     28  C   UNL     1       2.558   4.727  17.826  0.00  0.00    +0.000 C 
ATOM     29  C   UNL     1       2.762   4.354  19.313  0.00  0.00    +0.000 C 
ATOM     30  C   UNL     1       2.722   5.686  20.067  0.00  0.00    +0.000 C 
BRANCH  28  31
ATOM     31  O   UNL     1       1.200   4.518  17.420  0.00  0.00    +0.000 OA
ATOM     32  H   UNL     1       0.982   3.587  17.615  0.00  0.00    +0.000 HD
ENDBRANCH  28  31
BRANCH  29  33
ATOM     33  C   UNL     1       1.732   3.379  19.871  0.00  0.00    +0.000 C 
BRANCH  33  34
ATOM     34  O   UNL     1       0.579   4.075  20.319  0.00  0.00    +0.000 OA
ATOM     35  H   UNL     1      -0.054   4.060  19.573  0.00  0.00    +0.000 HD
ENDBRANCH  33  34
ENDBRANCH  29  33
ENDBRANCH  20  25
ENDBRANCH   1  22
TORSDOF 6
ENDMDL
MODEL 3
REMARK VINA RESULT:      -7.4      4.751      9.133
REMARK  Name = 
REMARK  6 active torsions:
REMARK  status: ('A' for Active; 'I' for Inactive)
REMARK    1  A    between atoms: C_2  and  C_3
REMARK    2  A    between atoms: C_5  and  C_6
REMARK    3  A    between atoms: C_7  and  C_8
REMARK    4  A    between atoms: C_27  and  O_28
REMARK    5  A    between atoms: C_29  and  C_30
REMARK    6  A    between atoms: C_30  and  O_31
REMARK                            x       y       z     vdW  Elec       q    Type
REMARK                         _______ _______ _______ _____ _____    ______ ____
ROOT
ATOM      1  C   UNL     1      -1.562  10.677  18.660  0.00  0.00    +0.000 A 
ATOM      2  C   UNL     1      -2.090  11.727  19.415  0.00  0.00    +0.000 A 
ATOM      3  N   UNL     1      -3.145  12.218  18.671  0.00  0.00    +0.000 N 
ATOM      4  C   UNL     1      -3.294  11.540  17.490  0.00  0.00    +0.000 A 
ATOM      5  C   UNL     1      -4.240  11.718  16.477  0.00  0.00    +0.000 A 
ATOM      6  F   UNL     1      -5.172  12.673  16.571  0.00  0.00    +0.000 F 
ATOM      7  C   UNL     1      -4.212  10.883  15.369  0.00  0.00    +0.000 A 
ATOM      8  C   UNL     1      -3.254   9.889  15.302  0.00  0.00    +0.000 A 
ATOM      9  F   UNL     1      -3.229   9.072  14.237  0.00  0.00    +0.000 F 
ATOM     10  C   UNL     1      -2.313   9.700  16.317  0.00  0.00    +0.000 A 
ATOM     11  C   UNL     1      -2.313  10.553  17.445  0.00  0.00    +0.000 A 
ATOM     12  H   UNL     1      -3.763  12.962  18.965  0.00  0.00    +0.000 HD
ENDROOT
BRANCH   2  13
ATOM     13  C   UNL     1      -1.768  12.323  20.728  0.00  0.00    +0.000 A 
ATOM     14  C   UNL     1      -0.915  13.442  20.811  0.00  0.00    +0.000 A 
ATOM     15  C   UNL     1      -0.630  14.050  22.039  0.00  0.00    +0.000 A 
ATOM     16  C   UNL     1      -1.177  13.531  23.202  0.00  0.00    +0.000 A 
ATOM     17  F   UNL     1      -0.904  14.107  24.380  0.00  0.00    +0.000 F 
ATOM     18  C   UNL     1      -2.013  12.426  23.157  0.00  0.00    +0.000 A 
ATOM     19  C   UNL     1      -2.319  11.838  21.923  0.00  0.00    +0.000 A 
ENDBRANCH   2  13
BRANCH   1  22
ATOM     20  C   UNL     1       1.643   9.249  19.159  0.00  0.00    +0.000 C 
ATOM     21  C   UNL     1       0.517   9.089  18.101  0.00  0.00    +0.000 C 
ATOM     22  C   UNL     1      -0.421   9.778  19.108  0.00  0.00    +0.000 C 
ATOM     23  C   UNL     1       0.842  10.494  19.653  0.00  0.00    +0.000 C 
BRANCH  20  25
ATOM     24  O   UNL     1       1.429   8.132  21.341  0.00  0.00    +0.000 OA
ATOM     25  C   UNL     1       1.834   8.082  20.173  0.00  0.00    +0.000 C 
ATOM     26  N   UNL     1       2.452   6.940  19.704  0.00  0.00    +0.000 N 
ATOM     27  C   UNL     1       3.053   6.700  18.403  0.00  0.00    +0.000 C 
ATOM     28  C   UNL     1       2.718   5.229  18.169  0.00  0.00    +0.000 C 
ATOM     29  C   UNL     1       2.752   4.595  19.579  0.00  0.00    +0.000 C 
ATOM     30  C   UNL     1       2.626   5.773  20.549  0.00  0.00    +0.000 C 
BRANCH  28  31
ATOM     31  O   UNL     1       1.416   5.123  17.583  0.00  0.00    +0.000 OA
ATOM     32  H   UNL     1       1.376   4.263  17.123  0.00  0.00    +0.000 HD
ENDBRANCH  28  31
BRANCH  29  33
ATOM     33  C   UNL     1       1.665   3.557  19.835  0.00  0.00    +0.000 C 
BRANCH  33  34
ATOM     34  O   UNL     1       0.517   4.169  20.402  0.00  0.00    +0.000 OA
ATOM     35  H   UNL     1       0.336   4.963  19.859  0.00  0.00    +0.000 HD
ENDBRANCH  33  34
ENDBRANCH  29  33
ENDBRANCH  20  25
ENDBRANCH   1  22
TORSDOF 6
ENDMDL
MODEL 4
REMARK VINA RESULT:      -7.1      7.190     10.040
REMARK  Name = 
REMARK  6 active torsions:
REMARK  status: ('A' for Active; 'I' for Inactive)
REMARK    1  A    between atoms: C_2  and  C_3
REMARK    2  A    between atoms: C_5  and  C_6
REMARK    3  A    between atoms: C_7  and  C_8
REMARK    4  A    between atoms: C_27  and  O_28
REMARK    5  A    between atoms: C_29  and  C_30
REMARK    6  A    between atoms: C_30  and  O_31
REMARK                            x       y       z     vdW  Elec       q    Type
REMARK                         _______ _______ _______ _____ _____    ______ ____
ROOT
ATOM      1  C   UNL     1      -3.358  12.260  19.985  0.00  0.00    +0.000 A 
ATOM      2  C   UNL     1      -4.057  11.688  18.920  0.00  0.00    +0.000 A 
ATOM      3  N   UNL     1      -5.386  11.727  19.292  0.00  0.00    +0.000 N 
ATOM      4  C   UNL     1      -5.551  12.280  20.535  0.00  0.00    +0.000 A 
ATOM      5  C   UNL     1      -6.726  12.509  21.255  0.00  0.00    +0.000 A 
ATOM      6  F   UNL     1      -7.916  12.162  20.753  0.00  0.00    +0.000 F 
ATOM      7  C   UNL     1      -6.649  13.115  22.502  0.00  0.00    +0.000 A 
ATOM      8  C   UNL     1      -5.412  13.485  22.993  0.00  0.00    +0.000 A 
ATOM      9  F   UNL     1      -5.333  14.082  24.193  0.00  0.00    +0.000 F 
ATOM     10  C   UNL     1      -4.235  13.268  22.271  0.00  0.00    +0.000 A 
ATOM     11  C   UNL     1      -4.290  12.634  21.008  0.00  0.00    +0.000 A 
ATOM     12  H   UNL     1      -6.157  11.422  18.714  0.00  0.00    +0.000 HD
ENDROOT
BRANCH   2  13
ATOM     13  C   UNL     1      -3.670  11.132  17.607  0.00  0.00    +0.000 A 
ATOM     14  C   UNL     1      -4.354  11.523  16.439  0.00  0.00    +0.000 A 
ATOM     15  C   UNL     1      -3.977  11.042  15.180  0.00  0.00    +0.000 A 
ATOM     16  C   UNL     1      -2.925  10.146  15.077  0.00  0.00    +0.000 A 
ATOM     17  F   UNL     1      -2.563   9.681  13.875  0.00  0.00    +0.000 F 
ATOM     18  C   UNL     1      -2.236   9.734  16.207  0.00  0.00    +0.000 A 
ATOM     19  C   UNL     1      -2.597  10.240  17.462  0.00  0.00    +0.000 A 
ENDBRANCH   2  13
BRANCH   1  22
ATOM     20  C   UNL     1      -0.025  12.853  21.038  0.00  0.00    +0.000 C 
ATOM     21  C   UNL     1      -1.242  13.747  20.671  0.00  0.00    +0.000 C 
ATOM     22  C   UNL     1      -1.858  12.504  20.005  0.00  0.00    +0.000 C 
ATOM     23  C   UNL     1      -1.040  11.668  21.025  0.00  0.00    +0.000 C 
BRANCH  20  25
ATOM     24  O   UNL     1       1.277  11.876  19.193  0.00  0.00    +0.000 OA
ATOM     25  C   UNL     1       1.144  12.795  20.011  0.00  0.00    +0.000 C 
ATOM     26  N   UNL     1       2.035  13.849  20.015  0.00  0.00    +0.000 N 
ATOM     27  C   UNL     1       2.099  14.982  20.922  0.00  0.00    +0.000 C 
ATOM     28  C   UNL     1       2.549  16.105  19.992  0.00  0.00    +0.000 C 
ATOM     29  C   UNL     1       3.472  15.411  18.964  0.00  0.00    +0.000 C 
ATOM     30  C   UNL     1       3.126  13.922  19.061  0.00  0.00    +0.000 C 
BRANCH  28  31
ATOM     31  O   UNL     1       1.405  16.685  19.355  0.00  0.00    +0.000 OA
ATOM     32  H   UNL     1       1.665  17.576  19.052  0.00  0.00    +0.000 HD
ENDBRANCH  28  31
BRANCH  29  33
ATOM     33  C   UNL     1       3.322  15.915  17.534  0.00  0.00    +0.000 C 
BRANCH  33  34
ATOM     34  O   UNL     1       3.319  17.333  17.503  0.00  0.00    +0.000 OA
ATOM     35  H   UNL     1       3.976  17.621  18.170  0.00  0.00    +0.000 HD
ENDBRANCH  33  34
ENDBRANCH  29  33
ENDBRANCH  20  25
ENDBRANCH   1  22
TORSDOF 6
ENDMDL
MODEL 5
REMARK VINA RESULT:      -7.1      7.192      9.873
REMARK  Name = 
REMARK  6 active torsions:
REMARK  status: ('A' for Active; 'I' for Inactive)
REMARK    1  A    between atoms: C_2  and  C_3
REMARK    2  A    between atoms: C_5  and  C_6
REMARK    3  A    between atoms: C_7  and  C_8
REMARK    4  A    between atoms: C_27  and  O_28
REMARK    5  A    between atoms: C_29  and  C_30
REMARK    6  A    between atoms: C_30  and  O_31
REMARK                            x       y       z     vdW  Elec       q    Type
REMARK                         _______ _______ _______ _____ _____    ______ ____
ROOT
ATOM      1  C   UNL     1      -1.949  12.410  19.320  0.00  0.00    +0.000 A 
ATOM      2  C   UNL     1      -2.946  12.630  20.272  0.00  0.00    +0.000 A 
ATOM      3  N   UNL     1      -4.115  12.184  19.687  0.00  0.00    +0.000 N 
ATOM      4  C   UNL     1      -3.901  11.709  18.420  0.00  0.00    +0.000 A 
ATOM      5  C   UNL     1      -4.812  11.163  17.512  0.00  0.00    +0.000 A 
ATOM      6  F   UNL     1      -6.109  11.055  17.823  0.00  0.00    +0.000 F 
ATOM      7  C   UNL     1      -4.355  10.719  16.278  0.00  0.00    +0.000 A 
ATOM      8  C   UNL     1      -3.008  10.820  15.986  0.00  0.00    +0.000 A 
ATOM      9  F   UNL     1      -2.560  10.382  14.798  0.00  0.00    +0.000 F 
ATOM     10  C   UNL     1      -2.092  11.356  16.896  0.00  0.00    +0.000 A 
ATOM     11  C   UNL     1      -2.541  11.831  18.149  0.00  0.00    +0.000 A 
ATOM     12  H   UNL     1      -5.019  12.169  20.141  0.00  0.00    +0.000 HD
ENDROOT
BRANCH   2  13
ATOM     13  C   UNL     1      -2.965  13.177  21.645  0.00  0.00    +0.000 A 
ATOM     14  C   UNL     1      -2.566  14.507  21.886  0.00  0.00    +0.000 A 
ATOM     15  C   UNL     1      -2.617  15.059  23.171  0.00  0.00    +0.000 A 
ATOM     16  C   UNL     1      -3.045  14.280  24.234  0.00  0.00    +0.000 A 
ATOM     17  F   UNL     1      -3.091  14.803  25.466  0.00  0.00    +0.000 F 
ATOM     18  C   UNL     1      -3.436  12.965  24.032  0.00  0.00    +0.000 A 
ATOM     19  C   UNL     1      -3.411  12.425  22.741  0.00  0.00    +0.000 A 
ENDBRANCH   2  13
BRANCH   1  22
ATOM     20  C   UNL     1       1.550  12.736  18.854  0.00  0.00    +0.000 C 
ATOM     21  C   UNL     1       0.599  11.595  19.309  0.00  0.00    +0.000 C 
ATOM     22  C   UNL     1      -0.469  12.678  19.538  0.00  0.00    +0.000 C 
ATOM     23  C   UNL     1       0.252  13.490  18.429  0.00  0.00    +0.000 C 
BRANCH  20  25
ATOM     24  O   UNL     1       2.419  13.044  21.136  0.00  0.00    +0.000 OA
ATOM     25  C   UNL     1       2.429  13.405  19.952  0.00  0.00    +0.000 C 
ATOM     26  N   UNL     1       3.274  14.419  19.547  0.00  0.00    +0.000 N 
ATOM     27  C   UNL     1       3.395  15.032  18.236  0.00  0.00    +0.000 C 
ATOM     28  C   UNL     1       4.893  15.311  18.155  0.00  0.00    +0.000 C 
ATOM     29  C   UNL     1       5.306  15.633  19.610  0.00  0.00    +0.000 C 
ATOM     30  C   UNL     1       4.177  15.069  20.478  0.00  0.00    +0.000 C 
BRANCH  28  31
ATOM     31  O   UNL     1       5.571  14.147  17.669  0.00  0.00    +0.000 OA
ATOM     32  H   UNL     1       6.135  14.432  16.925  0.00  0.00    +0.000 HD
ENDBRANCH  28  31
BRANCH  29  33
ATOM     33  C   UNL     1       6.655  15.061  20.029  0.00  0.00    +0.000 C 
BRANCH  33  34
ATOM     34  O   UNL     1       7.679  15.509  19.154  0.00  0.00    +0.000 OA
ATOM     35  H   UNL     1       7.292  16.245  18.638  0.00  0.00    +0.000 HD
ENDBRANCH  33  34
ENDBRANCH  29  33
ENDBRANCH  20  25
ENDBRANCH   1  22
TORSDOF 6
ENDMDL
MODEL 6
REMARK VINA RESULT:      -7.0      4.375      9.930
REMARK  Name = 
REMARK  6 active torsions:
REMARK  status: ('A' for Active; 'I' for Inactive)
REMARK    1  A    between atoms: C_2  and  C_3
REMARK    2  A    between atoms: C_5  and  C_6
REMARK    3  A    between atoms: C_7  and  C_8
REMARK    4  A    between atoms: C_27  and  O_28
REMARK    5  A    between atoms: C_29  and  C_30
REMARK    6  A    between atoms: C_30  and  O_31
REMARK                            x       y       z     vdW  Elec       q    Type
REMARK                         _______ _______ _______ _____ _____    ______ ____
ROOT
ATOM      1  C   UNL     1       1.077  12.384  18.786  0.00  0.00    +0.000 A 
ATOM      2  C   UNL     1      -0.161  13.026  18.701  0.00  0.00    +0.000 A 
ATOM      3  N   UNL     1       0.133  14.353  18.456  0.00  0.00    +0.000 N 
ATOM      4  C   UNL     1       1.483  14.574  18.397  0.00  0.00    +0.000 A 
ATOM      5  C   UNL     1       2.179  15.761  18.158  0.00  0.00    +0.000 A 
ATOM      6  F   UNL     1       1.523  16.911  17.959  0.00  0.00    +0.000 F 
ATOM      7  C   UNL     1       3.566  15.738  18.117  0.00  0.00    +0.000 A 
ATOM      8  C   UNL     1       4.223  14.537  18.305  0.00  0.00    +0.000 A 
ATOM      9  F   UNL     1       5.564  14.507  18.255  0.00  0.00    +0.000 F 
ATOM     10  C   UNL     1       3.531  13.344  18.533  0.00  0.00    +0.000 A 
ATOM     11  C   UNL     1       2.118  13.351  18.598  0.00  0.00    +0.000 A 
ATOM     12  H   UNL     1      -0.556  15.078  18.302  0.00  0.00    +0.000 HD
ENDROOT
BRANCH   2  13
ATOM     13  C   UNL     1      -1.567  12.581  18.796  0.00  0.00    +0.000 A 
ATOM     14  C   UNL     1      -2.140  11.811  17.764  0.00  0.00    +0.000 A 
ATOM     15  C   UNL     1      -3.456  11.342  17.852  0.00  0.00    +0.000 A 
ATOM     16  C   UNL     1      -4.221  11.658  18.963  0.00  0.00    +0.000 A 
ATOM     17  F   UNL     1      -5.482  11.215  19.050  0.00  0.00    +0.000 F 
ATOM     18  C   UNL     1      -3.690  12.421  19.992  0.00  0.00    +0.000 A 
ATOM     19  C   UNL     1      -2.365  12.864  19.914  0.00  0.00    +0.000 A 
ENDBRANCH   2  13
BRANCH   1  22
ATOM     20  C   UNL     1       1.494   8.912  18.205  0.00  0.00    +0.000 C 
ATOM     21  C   UNL     1       0.278   9.862  18.387  0.00  0.00    +0.000 C 
ATOM     22  C   UNL     1       1.264  10.887  18.974  0.00  0.00    +0.000 C 
ATOM     23  C   UNL     1       2.345  10.214  18.088  0.00  0.00    +0.000 C 
BRANCH  20  25
ATOM     24  O   UNL     1       1.545   8.211  20.563  0.00  0.00    +0.000 OA
ATOM     25  C   UNL     1       1.826   7.953  19.386  0.00  0.00    +0.000 C 
ATOM     26  N   UNL     1       2.429   6.752  19.067  0.00  0.00    +0.000 N 
ATOM     27  C   UNL     1       2.897   6.285  17.774  0.00  0.00    +0.000 C 
ATOM     28  C   UNL     1       2.587   4.792  17.848  0.00  0.00    +0.000 C 
ATOM     29  C   UNL     1       2.789   4.427  19.336  0.00  0.00    +0.000 C 
ATOM     30  C   UNL     1       2.728   5.762  20.085  0.00  0.00    +0.000 C 
BRANCH  28  31
ATOM     31  O   UNL     1       1.234   4.564  17.436  0.00  0.00    +0.000 OA
ATOM     32  H   UNL     1       1.257   4.330  16.488  0.00  0.00    +0.000 HD
ENDBRANCH  28  31
BRANCH  29  33
ATOM     33  C   UNL     1       1.768   3.441  19.893  0.00  0.00    +0.000 C 
BRANCH  33  34
ATOM     34  O   UNL     1       0.569   4.113  20.248  0.00  0.00    +0.000 OA
ATOM     35  H   UNL     1       0.281   3.723  21.098  0.00  0.00    +0.000 HD
ENDBRANCH  33  34
ENDBRANCH  29  33
ENDBRANCH  20  25
ENDBRANCH   1  22
TORSDOF 6
ENDMDL
MODEL 7
REMARK VINA RESULT:      -6.9      7.310     10.205
REMARK  Name = 
REMARK  6 active torsions:
REMARK  status: ('A' for Active; 'I' for Inactive)
REMARK    1  A    between atoms: C_2  and  C_3
REMARK    2  A    between atoms: C_5  and  C_6
REMARK    3  A    between atoms: C_7  and  C_8
REMARK    4  A    between atoms: C_27  and  O_28
REMARK    5  A    between atoms: C_29  and  C_30
REMARK    6  A    between atoms: C_30  and  O_31
REMARK                            x       y       z     vdW  Elec       q    Type
REMARK                         _______ _______ _______ _____ _____    ______ ____
ROOT
ATOM      1  C   UNL     1      -2.751  12.737  20.070  0.00  0.00    +0.000 A 
ATOM      2  C   UNL     1      -3.553  11.974  19.218  0.00  0.00    +0.000 A 
ATOM      3  N   UNL     1      -4.793  11.930  19.826  0.00  0.00    +0.000 N 
ATOM      4  C   UNL     1      -4.802  12.612  21.013  0.00  0.00    +0.000 A 
ATOM      5  C   UNL     1      -5.852  12.814  21.913  0.00  0.00    +0.000 A 
ATOM      6  F   UNL     1      -7.063  12.294  21.680  0.00  0.00    +0.000 F 
ATOM      7  C   UNL     1      -5.630  13.573  23.054  0.00  0.00    +0.000 A 
ATOM      8  C   UNL     1      -4.378  14.117  23.265  0.00  0.00    +0.000 A 
ATOM      9  F   UNL     1      -4.162  14.861  24.362  0.00  0.00    +0.000 F 
ATOM     10  C   UNL     1      -3.328  13.928  22.362  0.00  0.00    +0.000 A 
ATOM     11  C   UNL     1      -3.529  13.142  21.204  0.00  0.00    +0.000 A 
ATOM     12  H   UNL     1      -5.612  11.483  19.436  0.00  0.00    +0.000 HD
ENDROOT
BRANCH   2  13
ATOM     13  C   UNL     1      -3.338  11.300  17.920  0.00  0.00    +0.000 A 
ATOM     14  C   UNL     1      -4.134  11.634  16.806  0.00  0.00    +0.000 A 
ATOM     15  C   UNL     1      -3.920  11.041  15.557  0.00  0.00    +0.000 A 
ATOM     16  C   UNL     1      -2.922  10.090  15.412  0.00  0.00    +0.000 A 
ATOM     17  F   UNL     1      -2.717   9.517  14.220  0.00  0.00    +0.000 F 
ATOM     18  C   UNL     1      -2.127   9.733  16.491  0.00  0.00    +0.000 A 
ATOM     19  C   UNL     1      -2.325  10.350  17.732  0.00  0.00    +0.000 A 
ENDBRANCH   2  13
BRANCH   1  22
ATOM     20  C   UNL     1       0.153  14.442  18.964  0.00  0.00    +0.000 C 
ATOM     21  C   UNL     1      -0.803  13.381  18.353  0.00  0.00    +0.000 C 
ATOM     22  C   UNL     1      -1.309  13.125  19.783  0.00  0.00    +0.000 C 
ATOM     23  C   UNL     1      -0.923  14.597  20.083  0.00  0.00    +0.000 C 
BRANCH  20  25
ATOM     24  O   UNL     1       1.869  12.757  19.485  0.00  0.00    +0.000 OA
ATOM     25  C   UNL     1       1.565  13.954  19.404  0.00  0.00    +0.000 C 
ATOM     26  N   UNL     1       2.509  14.926  19.672  0.00  0.00    +0.000 N 
ATOM     27  C   UNL     1       2.345  16.369  19.700  0.00  0.00    +0.000 C 
ATOM     28  C   UNL     1       3.685  16.848  19.148  0.00  0.00    +0.000 C 
ATOM     29  C   UNL     1       4.708  15.804  19.652  0.00  0.00    +0.000 C 
ATOM     30  C   UNL     1       3.871  14.578  20.032  0.00  0.00    +0.000 C 
BRANCH  28  31
ATOM     31  O   UNL     1       3.631  16.874  17.717  0.00  0.00    +0.000 OA
ATOM     32  H   UNL     1       4.413  16.390  17.391  0.00  0.00    +0.000 HD
ENDBRANCH  28  31
BRANCH  29  33
ATOM     33  C   UNL     1       5.789  15.435  18.643  0.00  0.00    +0.000 C 
BRANCH  33  34
ATOM     34  O   UNL     1       5.258  14.598  17.628  0.00  0.00    +0.000 OA
ATOM     35  H   UNL     1       5.501  13.683  17.875  0.00  0.00    +0.000 HD
ENDBRANCH  33  34
ENDBRANCH  29  33
ENDBRANCH  20  25
ENDBRANCH   1  22
TORSDOF 6
ENDMDL
MODEL 8
REMARK VINA RESULT:      -6.8      4.521      8.432
REMARK  Name = 
REMARK  6 active torsions:
REMARK  status: ('A' for Active; 'I' for Inactive)
REMARK    1  A    between atoms: C_2  and  C_3
REMARK    2  A    between atoms: C_5  and  C_6
REMARK    3  A    between atoms: C_7  and  C_8
REMARK    4  A    between atoms: C_27  and  O_28
REMARK    5  A    between atoms: C_29  and  C_30
REMARK    6  A    between atoms: C_30  and  O_31
REMARK                            x       y       z     vdW  Elec       q    Type
REMARK                         _______ _______ _______ _____ _____    ______ ____
ROOT
ATOM      1  C   UNL     1       0.012  11.919  18.687  0.00  0.00    +0.000 A 
ATOM      2  C   UNL     1       1.162  11.194  19.013  0.00  0.00    +0.000 A 
ATOM      3  N   UNL     1       2.118  12.144  19.314  0.00  0.00    +0.000 N 
ATOM      4  C   UNL     1       1.631  13.417  19.182  0.00  0.00    +0.000 A 
ATOM      5  C   UNL     1       2.270  14.639  19.405  0.00  0.00    +0.000 A 
ATOM      6  F   UNL     1       3.550  14.683  19.794  0.00  0.00    +0.000 F 
ATOM      7  C   UNL     1       1.558  15.819  19.230  0.00  0.00    +0.000 A 
ATOM      8  C   UNL     1       0.232  15.751  18.849  0.00  0.00    +0.000 A 
ATOM      9  F   UNL     1      -0.464  16.888  18.689  0.00  0.00    +0.000 F 
ATOM     10  C   UNL     1      -0.414  14.530  18.635  0.00  0.00    +0.000 A 
ATOM     11  C   UNL     1       0.299  13.319  18.790  0.00  0.00    +0.000 A 
ATOM     12  H   UNL     1       3.057  11.939  19.630  0.00  0.00    +0.000 HD
ENDROOT
BRANCH   2  13
ATOM     13  C   UNL     1       1.490   9.756  19.100  0.00  0.00    +0.000 A 
ATOM     14  C   UNL     1       2.091   9.097  18.010  0.00  0.00    +0.000 A 
ATOM     15  C   UNL     1       2.451   7.747  18.085  0.00  0.00    +0.000 A 
ATOM     16  C   UNL     1       2.192   7.034  19.245  0.00  0.00    +0.000 A 
ATOM     17  F   UNL     1       2.530   5.740  19.320  0.00  0.00    +0.000 F 
ATOM     18  C   UNL     1       1.593   7.650  20.333  0.00  0.00    +0.000 A 
ATOM     19  C   UNL     1       1.261   9.008  20.264  0.00  0.00    +0.000 A 
ENDBRANCH   2  13
BRANCH   1  22
ATOM     20  C   UNL     1      -2.711  10.426  16.978  0.00  0.00    +0.000 C 
ATOM     21  C   UNL     1      -2.253  11.883  17.265  0.00  0.00    +0.000 C 
ATOM     22  C   UNL     1      -1.335  11.299  18.353  0.00  0.00    +0.000 C 
ATOM     23  C   UNL     1      -1.301  10.005  17.497  0.00  0.00    +0.000 C 
BRANCH  20  25
ATOM     24  O   UNL     1      -3.934   8.838  18.404  0.00  0.00    +0.000 OA
ATOM     25  C   UNL     1      -3.943   9.901  17.771  0.00  0.00    +0.000 C 
ATOM     26  N   UNL     1      -5.069  10.701  17.781  0.00  0.00    +0.000 N 
ATOM     27  C   UNL     1      -5.310  11.940  17.062  0.00  0.00    +0.000 C 
ATOM     28  C   UNL     1      -6.147  12.728  18.066  0.00  0.00    +0.000 C 
ATOM     29  C   UNL     1      -6.979  11.655  18.805  0.00  0.00    +0.000 C 
ATOM     30  C   UNL     1      -6.251  10.334  18.538  0.00  0.00    +0.000 C 
BRANCH  28  31
ATOM     31  O   UNL     1      -5.280  13.425  18.969  0.00  0.00    +0.000 OA
ATOM     32  H   UNL     1      -5.554  14.362  18.965  0.00  0.00    +0.000 HD
ENDBRANCH  28  31
BRANCH  29  33
ATOM     33  C   UNL     1      -7.143  11.896  20.301  0.00  0.00    +0.000 C 
BRANCH  33  34
ATOM     34  O   UNL     1      -7.049  10.673  21.015  0.00  0.00    +0.000 OA
ATOM     35  H   UNL     1      -7.596  10.785  21.819  0.00  0.00    +0.000 HD
ENDBRANCH  33  34
ENDBRANCH  29  33
ENDBRANCH  20  25
ENDBRANCH   1  22
TORSDOF 6
ENDMDL
MODEL 9
REMARK VINA RESULT:      -6.8      5.441      9.513
REMARK  Name = 
REMARK  6 active torsions:
REMARK  status: ('A' for Active; 'I' for Inactive)
REMARK    1  A    between atoms: C_2  and  C_3
REMARK    2  A    between atoms: C_5  and  C_6
REMARK    3  A    between atoms: C_7  and  C_8
REMARK    4  A    between atoms: C_27  and  O_28
REMARK    5  A    between atoms: C_29  and  C_30
REMARK    6  A    between atoms: C_30  and  O_31
REMARK                            x       y       z     vdW  Elec       q    Type
REMARK                         _______ _______ _______ _____ _____    ______ ____
ROOT
ATOM      1  C   UNL     1      -0.014  13.763  19.283  0.00  0.00    +0.000 A 
ATOM      2  C   UNL     1       0.971  12.785  19.445  0.00  0.00    +0.000 A 
ATOM      3  N   UNL     1       2.160  13.406  19.113  0.00  0.00    +0.000 N 
ATOM      4  C   UNL     1       1.967  14.710  18.742  0.00  0.00    +0.000 A 
ATOM      5  C   UNL     1       2.904  15.670  18.353  0.00  0.00    +0.000 A 
ATOM      6  F   UNL     1       4.206  15.369  18.287  0.00  0.00    +0.000 F 
ATOM      7  C   UNL     1       2.472  16.953  18.044  0.00  0.00    +0.000 A 
ATOM      8  C   UNL     1       1.127  17.249  18.139  0.00  0.00    +0.000 A 
ATOM      9  F   UNL     1       0.705  18.491  17.851  0.00  0.00    +0.000 F 
ATOM     10  C   UNL     1       0.186  16.295  18.538  0.00  0.00    +0.000 A 
ATOM     11  C   UNL     1       0.604  14.978  18.839  0.00  0.00    +0.000 A 
ATOM     12  H   UNL     1       3.072  12.974  19.168  0.00  0.00    +0.000 HD
ENDROOT
BRANCH   2  13
ATOM     13  C   UNL     1       0.967  11.373  19.878  0.00  0.00    +0.000 A 
ATOM     14  C   UNL     1       1.193  10.343  18.944  0.00  0.00    +0.000 A 
ATOM     15  C   UNL     1       1.238   9.000  19.338  0.00  0.00    +0.000 A 
ATOM     16  C   UNL     1       1.033   8.671  20.669  0.00  0.00    +0.000 A 
ATOM     17  F   UNL     1       1.070   7.389  21.050  0.00  0.00    +0.000 F 
ATOM     18  C   UNL     1       0.799   9.661  21.612  0.00  0.00    +0.000 A 
ATOM     19  C   UNL     1       0.784  11.004  21.219  0.00  0.00    +0.000 A 
ENDBRANCH   2  13
BRANCH   1  22
ATOM     20  C   UNL     1      -3.084  12.484  20.508  0.00  0.00    +0.000 C 
ATOM     21  C   UNL     1      -2.241  12.283  19.219  0.00  0.00    +0.000 C 
ATOM     22  C   UNL     1      -1.487  13.568  19.602  0.00  0.00    +0.000 C 
ATOM     23  C   UNL     1      -1.828  13.217  21.074  0.00  0.00    +0.000 C 
BRANCH  20  25
ATOM     24  O   UNL     1      -4.493  14.482  20.791  0.00  0.00    +0.000 OA
ATOM     25  C   UNL     1      -4.391  13.320  20.376  0.00  0.00    +0.000 C 
ATOM     26  N   UNL     1      -5.454  12.723  19.728  0.00  0.00    +0.000 N 
ATOM     27  C   UNL     1      -5.566  11.364  19.227  0.00  0.00    +0.000 C 
ATOM     28  C   UNL     1      -6.394  11.563  17.960  0.00  0.00    +0.000 C 
ATOM     29  C   UNL     1      -7.339  12.739  18.295  0.00  0.00    +0.000 C 
ATOM     30  C   UNL     1      -6.698  13.435  19.499  0.00  0.00    +0.000 C 
BRANCH  28  31
ATOM     31  O   UNL     1      -5.526  11.889  16.868  0.00  0.00    +0.000 OA
ATOM     32  H   UNL     1      -4.628  11.597  17.117  0.00  0.00    +0.000 HD
ENDBRANCH  28  31
BRANCH  29  33
ATOM     33  C   UNL     1      -7.562  13.722  17.151  0.00  0.00    +0.000 C 
BRANCH  33  34
ATOM     34  O   UNL     1      -6.498  14.659  17.085  0.00  0.00    +0.000 OA
ATOM     35  H   UNL     1      -6.456  14.956  16.154  0.00  0.00    +0.000 HD
ENDBRANCH  33  34
ENDBRANCH  29  33
ENDBRANCH  20  25
ENDBRANCH   1  22
TORSDOF 6
ENDMDL
