MODEL 1
REMARK VINA RESULT:      -6.0      0.000      0.000
REMARK  Name = 
REMARK  9 active torsions:
REMARK  status: ('A' for Active; 'I' for Inactive)
REMARK    1  A    between atoms: C_1  and  C_2
REMARK    2  A    between atoms: C_2  and  C_3
REMARK    3  A    between atoms: C_2  and  C_4
REMARK    4  A    between atoms: C_4  and  C_5
REMARK    5  A    between atoms: C_4  and  N_7
REMARK    6  A    between atoms: C_8  and  C_10
REMARK    7  A    between atoms: C_10  and  N_11
REMARK    8  A    between atoms: C_10  and  C_12
REMARK    9  A    between atoms: C_12  and  C_13
REMARK                            x       y       z     vdW  Elec       q    Type
REMARK                         _______ _______ _______ _____ _____    ______ ____
ROOT
ATOM      1  N   UNL     1       5.349   4.425  16.926  0.00  0.00    +0.000 N 
ATOM      2  C   UNL     1       3.992   4.642  17.080  0.00  0.00    +0.000 C 
ATOM      3  O   UNL     1       3.524   5.771  17.220  0.00  0.00    +0.000 OA
ATOM      4  H   UNL     1       5.651   3.513  16.604  0.00  0.00    +0.000 HD
ENDROOT
BRANCH   1   5
ATOM      5  C   UNL     1       6.287   5.550  16.805  0.00  0.00    +0.000 C 
BRANCH   5   7
ATOM      6  C   UNL     1       7.894   7.021  18.127  0.00  0.00    +0.000 C 
ATOM      7  C   UNL     1       7.233   5.637  18.026  0.00  0.00    +0.000 C 
ATOM      8  C   UNL     1       6.485   5.354  19.336  0.00  0.00    +0.000 C 
ENDBRANCH   5   7
BRANCH   5   9
ATOM      9  C   UNL     1       7.087   5.435  15.518  0.00  0.00    +0.000 C 
ATOM     10  N   UNL     1       7.751   5.339  14.451  0.00  0.00    +0.000 NA
ENDBRANCH   5   9
ENDBRANCH   1   5
BRANCH   2  11
ATOM     11  C   UNL     1       3.144   3.351  17.224  0.00  0.00    +0.000 C 
BRANCH  11  12
ATOM     12  N   UNL     1       3.956   2.370  17.984  0.00  0.00    +0.000 NA
ATOM     13  H   UNL     1       4.367   1.707  17.324  0.00  0.00    +0.000 HD
ATOM     14  H   UNL     1       3.352   1.821  18.593  0.00  0.00    +0.000 HD
ENDBRANCH  11  12
BRANCH  11  15
ATOM     15  C   UNL     1       1.806   3.689  17.916  0.00  0.00    +0.000 C 
BRANCH  15  16
ATOM     16  C   UNL     1       1.812   3.496  19.413  0.00  0.00    +0.000 A 
ATOM     17  C   UNL     1       1.289   2.440  20.134  0.00  0.00    +0.000 A 
ATOM     18  C   UNL     1       1.494   2.572  21.538  0.00  0.00    +0.000 A 
ATOM     19  C   UNL     1       2.181   3.725  21.844  0.00  0.00    +0.000 A 
ATOM     20  S   UNL     1       2.579   4.630  20.446  0.00  0.00    +0.000 S 
ENDBRANCH  15  16
ENDBRANCH  11  15
ENDBRANCH   2  11
TORSDOF 7
ENDMDL
MODEL 2
REMARK VINA RESULT:      -5.9      1.201      1.459
REMARK  Name = 
REMARK  9 active torsions:
REMARK  status: ('A' for Active; 'I' for Inactive)
REMARK    1  A    between atoms: C_1  and  C_2
REMARK    2  A    between atoms: C_2  and  C_3
REMARK    3  A    between atoms: C_2  and  C_4
REMARK    4  A    between atoms: C_4  and  C_5
REMARK    5  A    between atoms: C_4  and  N_7
REMARK    6  A    between atoms: C_8  and  C_10
REMARK    7  A    between atoms: C_10  and  N_11
REMARK    8  A    between atoms: C_10  and  C_12
REMARK    9  A    between atoms: C_12  and  C_13
REMARK                            x       y       z     vdW  Elec       q    Type
REMARK                         _______ _______ _______ _____ _____    ______ ____
ROOT
ATOM      1  N   UNL     1       5.724   4.325  17.724  0.00  0.00    +0.000 N 
ATOM      2  C   UNL     1       4.647   3.633  17.201  0.00  0.00    +0.000 C 
ATOM      3  O   UNL     1       3.944   4.101  16.307  0.00  0.00    +0.000 OA
ATOM      4  H   UNL     1       6.386   3.812  18.296  0.00  0.00    +0.000 HD
ENDROOT
BRANCH   1   5
ATOM      5  C   UNL     1       6.151   5.608  17.151  0.00  0.00    +0.000 C 
BRANCH   5   7
ATOM      6  C   UNL     1       7.935   5.633  18.970  0.00  0.00    +0.000 C 
ATOM      7  C   UNL     1       6.912   6.470  18.186  0.00  0.00    +0.000 C 
ATOM      8  C   UNL     1       7.646   7.637  17.513  0.00  0.00    +0.000 C 
ENDBRANCH   5   7
BRANCH   5   9
ATOM      9  C   UNL     1       7.007   5.378  15.916  0.00  0.00    +0.000 C 
ATOM     10  N   UNL     1       7.716   5.187  14.892  0.00  0.00    +0.000 NA
ENDBRANCH   5   9
ENDBRANCH   1   5
BRANCH   2  11
ATOM     11  C   UNL     1       4.308   2.312  17.939  0.00  0.00    +0.000 C 
BRANCH  11  12
ATOM     12  N   UNL     1       4.924   2.386  19.286  0.00  0.00    +0.000 NA
ATOM     13  H   UNL     1       4.308   2.926  19.897  0.00  0.00    +0.000 HD
ATOM     14  H   UNL     1       5.797   2.908  19.237  0.00  0.00    +0.000 HD
ENDBRANCH  11  12
BRANCH  11  15
ATOM     15  C   UNL     1       2.776   2.128  17.987  0.00  0.00    +0.000 C 
BRANCH  15  16
ATOM     16  C   UNL     1       2.099   2.831  19.140  0.00  0.00    +0.000 A 
ATOM     17  C   UNL     1       1.707   2.291  20.350  0.00  0.00    +0.000 A 
ATOM     18  C   UNL     1       1.117   3.253  21.221  0.00  0.00    +0.000 A 
ATOM     19  C   UNL     1       1.088   4.505  20.648  0.00  0.00    +0.000 A 
ATOM     20  S   UNL     1       1.776   4.514  19.080  0.00  0.00    +0.000 S 
ENDBRANCH  15  16
ENDBRANCH  11  15
ENDBRANCH   2  11
TORSDOF 7
ENDMDL
MODEL 3
REMARK VINA RESULT:      -5.9      2.493      6.134
REMARK  Name = 
REMARK  9 active torsions:
REMARK  status: ('A' for Active; 'I' for Inactive)
REMARK    1  A    between atoms: C_1  and  C_2
REMARK    2  A    between atoms: C_2  and  C_3
REMARK    3  A    between atoms: C_2  and  C_4
REMARK    4  A    between atoms: C_4  and  C_5
REMARK    5  A    between atoms: C_4  and  N_7
REMARK    6  A    between atoms: C_8  and  C_10
REMARK    7  A    between atoms: C_10  and  N_11
REMARK    8  A    between atoms: C_10  and  C_12
REMARK    9  A    between atoms: C_12  and  C_13
REMARK                            x       y       z     vdW  Elec       q    Type
REMARK                         _______ _______ _______ _____ _____    ______ ____
ROOT
ATOM      1  N   UNL     1       3.673   4.264  19.557  0.00  0.00    +0.000 N 
ATOM      2  C   UNL     1       4.193   5.490  19.186  0.00  0.00    +0.000 C 
ATOM      3  O   UNL     1       3.472   6.444  18.898  0.00  0.00    +0.000 OA
ATOM      4  H   UNL     1       4.301   3.592  19.985  0.00  0.00    +0.000 HD
ENDROOT
BRANCH   1   5
ATOM      5  C   UNL     1       2.227   4.078  19.739  0.00  0.00    +0.000 C 
BRANCH   5   7
ATOM      6  C   UNL     1       2.629   2.773  17.587  0.00  0.00    +0.000 C 
ATOM      7  C   UNL     1       1.576   3.427  18.495  0.00  0.00    +0.000 C 
ATOM      8  C   UNL     1       0.544   2.365  18.894  0.00  0.00    +0.000 C 
ENDBRANCH   5   7
BRANCH   5   9
ATOM      9  C   UNL     1       1.952   3.247  20.981  0.00  0.00    +0.000 C 
ATOM     10  N   UNL     1       1.725   2.557  22.012  0.00  0.00    +0.000 NA
ENDBRANCH   5   9
ENDBRANCH   1   5
BRANCH   2  11
ATOM     11  C   UNL     1       5.734   5.511  19.007  0.00  0.00    +0.000 C 
BRANCH  11  12
ATOM     12  N   UNL     1       6.195   4.102  18.973  0.00  0.00    +0.000 NA
ATOM     13  H   UNL     1       5.954   3.659  19.862  0.00  0.00    +0.000 HD
ATOM     14  H   UNL     1       7.212   4.074  18.914  0.00  0.00    +0.000 HD
ENDBRANCH  11  12
BRANCH  11  15
ATOM     15  C   UNL     1       6.093   6.294  17.726  0.00  0.00    +0.000 C 
BRANCH  15  16
ATOM     16  C   UNL     1       6.007   5.482  16.455  0.00  0.00    +0.000 A 
ATOM     17  C   UNL     1       4.880   5.186  15.713  0.00  0.00    +0.000 A 
ATOM     18  C   UNL     1       5.170   4.413  14.551  0.00  0.00    +0.000 A 
ATOM     19  C   UNL     1       6.517   4.152  14.438  0.00  0.00    +0.000 A 
ATOM     20  S   UNL     1       7.418   4.844  15.719  0.00  0.00    +0.000 S 
ENDBRANCH  15  16
ENDBRANCH  11  15
ENDBRANCH   2  11
TORSDOF 7
ENDMDL
MODEL 4
REMARK VINA RESULT:      -5.9      3.050      4.003
REMARK  Name = 
REMARK  9 active torsions:
REMARK  status: ('A' for Active; 'I' for Inactive)
REMARK    1  A    between atoms: C_1  and  C_2
REMARK    2  A    between atoms: C_2  and  C_3
REMARK    3  A    between atoms: C_2  and  C_4
REMARK    4  A    between atoms: C_4  and  C_5
REMARK    5  A    between atoms: C_4  and  N_7
REMARK    6  A    between atoms: C_8  and  C_10
REMARK    7  A    between atoms: C_10  and  N_11
REMARK    8  A    between atoms: C_10  and  C_12
REMARK    9  A    between atoms: C_12  and  C_13
REMARK                            x       y       z     vdW  Elec       q    Type
REMARK                         _______ _______ _______ _____ _____    ______ ____
ROOT
ATOM      1  N   UNL     1       4.310   4.746  17.946  0.00  0.00    +0.000 N 
ATOM      2  C   UNL     1       3.040   4.198  17.944  0.00  0.00    +0.000 C 
ATOM      3  O   UNL     1       2.693   3.360  17.114  0.00  0.00    +0.000 OA
ATOM      4  H   UNL     1       4.604   5.261  18.769  0.00  0.00    +0.000 HD
ENDROOT
BRANCH   1   5
ATOM      5  C   UNL     1       5.346   4.260  17.024  0.00  0.00    +0.000 C 
BRANCH   5   7
ATOM      6  C   UNL     1       5.174   6.508  15.836  0.00  0.00    +0.000 C 
ATOM      7  C   UNL     1       5.278   4.985  15.659  0.00  0.00    +0.000 C 
ATOM      8  C   UNL     1       6.508   4.673  14.797  0.00  0.00    +0.000 C 
ENDBRANCH   5   7
BRANCH   5   9
ATOM      9  C   UNL     1       6.724   4.420  17.644  0.00  0.00    +0.000 C 
ATOM     10  N   UNL     1       7.868   4.552  18.158  0.00  0.00    +0.000 NA
ENDBRANCH   5   9
ENDBRANCH   1   5
BRANCH   2  11
ATOM     11  C   UNL     1       2.057   4.843  18.956  0.00  0.00    +0.000 C 
BRANCH  11  12
ATOM     12  N   UNL     1       1.623   3.778  19.892  0.00  0.00    +0.000 NA
ATOM     13  H   UNL     1       1.308   2.973  19.347  0.00  0.00    +0.000 HD
ATOM     14  H   UNL     1       0.811   4.093  20.420  0.00  0.00    +0.000 HD
ENDBRANCH  11  12
BRANCH  11  15
ATOM     15  C   UNL     1       2.752   6.024  19.668  0.00  0.00    +0.000 C 
BRANCH  15  16
ATOM     16  C   UNL     1       2.269   7.386  19.232  0.00  0.00    +0.000 A 
ATOM     17  C   UNL     1       2.383   7.966  17.983  0.00  0.00    +0.000 A 
ATOM     18  C   UNL     1       1.790   9.260  17.917  0.00  0.00    +0.000 A 
ATOM     19  C   UNL     1       1.230   9.624  19.121  0.00  0.00    +0.000 A 
ATOM     20  S   UNL     1       1.412   8.406  20.311  0.00  0.00    +0.000 S 
ENDBRANCH  15  16
ENDBRANCH  11  15
ENDBRANCH   2  11
TORSDOF 7
ENDMDL
MODEL 5
REMARK VINA RESULT:      -5.9      1.950      2.158
REMARK  Name = 
REMARK  9 active torsions:
REMARK  status: ('A' for Active; 'I' for Inactive)
REMARK    1  A    between atoms: C_1  and  C_2
REMARK    2  A    between atoms: C_2  and  C_3
REMARK    3  A    between atoms: C_2  and  C_4
REMARK    4  A    between atoms: C_4  and  C_5
REMARK    5  A    between atoms: C_4  and  N_7
REMARK    6  A    between atoms: C_8  and  C_10
REMARK    7  A    between atoms: C_10  and  N_11
REMARK    8  A    between atoms: C_10  and  C_12
REMARK    9  A    between atoms: C_12  and  C_13
REMARK                            x       y       z     vdW  Elec       q    Type
REMARK                         _______ _______ _______ _____ _____    ______ ____
ROOT
ATOM      1  N   UNL     1       5.045   5.910  17.741  0.00  0.00    +0.000 N 
ATOM      2  C   UNL     1       3.950   6.752  17.801  0.00  0.00    +0.000 C 
ATOM      3  O   UNL     1       3.841   7.734  17.069  0.00  0.00    +0.000 OA
ATOM      4  H   UNL     1       4.981   5.012  18.208  0.00  0.00    +0.000 HD
ENDROOT
BRANCH   1   5
ATOM      5  C   UNL     1       6.081   6.087  16.715  0.00  0.00    +0.000 C 
BRANCH   5   7
ATOM      6  C   UNL     1       7.603   7.974  17.498  0.00  0.00    +0.000 C 
ATOM      7  C   UNL     1       7.447   6.454  17.340  0.00  0.00    +0.000 C 
ATOM      8  C   UNL     1       7.629   5.796  18.714  0.00  0.00    +0.000 C 
ENDBRANCH   5   7
BRANCH   5   9
ATOM      9  C   UNL     1       6.203   4.833  15.865  0.00  0.00    +0.000 C 
ATOM     10  N   UNL     1       6.305   3.793  15.159  0.00  0.00    +0.000 NA
ENDBRANCH   5   9
ENDBRANCH   1   5
BRANCH   2  11
ATOM     11  C   UNL     1       2.966   6.450  18.961  0.00  0.00    +0.000 C 
BRANCH  11  12
ATOM     12  N   UNL     1       2.118   7.653  19.148  0.00  0.00    +0.000 NA
ATOM     13  H   UNL     1       2.208   8.246  18.321  0.00  0.00    +0.000 HD
ATOM     14  H   UNL     1       2.470   8.205  19.928  0.00  0.00    +0.000 HD
ENDBRANCH  11  12
BRANCH  11  15
ATOM     15  C   UNL     1       2.149   5.183  18.628  0.00  0.00    +0.000 C 
BRANCH  15  16
ATOM     16  C   UNL     1       2.107   4.159  19.736  0.00  0.00    +0.000 A 
ATOM     17  C   UNL     1       1.030   3.810  20.528  0.00  0.00    +0.000 A 
ATOM     18  C   UNL     1       1.340   2.782  21.465  0.00  0.00    +0.000 A 
ATOM     19  C   UNL     1       2.648   2.368  21.349  0.00  0.00    +0.000 A 
ATOM     20  S   UNL     1       3.485   3.210  20.114  0.00  0.00    +0.000 S 
ENDBRANCH  15  16
ENDBRANCH  11  15
ENDBRANCH   2  11
TORSDOF 7
ENDMDL
MODEL 6
REMARK VINA RESULT:      -5.8      2.021      2.737
REMARK  Name = 
REMARK  9 active torsions:
REMARK  status: ('A' for Active; 'I' for Inactive)
REMARK    1  A    between atoms: C_1  and  C_2
REMARK    2  A    between atoms: C_2  and  C_3
REMARK    3  A    between atoms: C_2  and  C_4
REMARK    4  A    between atoms: C_4  and  C_5
REMARK    5  A    between atoms: C_4  and  N_7
REMARK    6  A    between atoms: C_8  and  C_10
REMARK    7  A    between atoms: C_10  and  N_11
REMARK    8  A    between atoms: C_10  and  C_12
REMARK    9  A    between atoms: C_12  and  C_13
REMARK                            x       y       z     vdW  Elec       q    Type
REMARK                         _______ _______ _______ _____ _____    ______ ____
ROOT
ATOM      1  N   UNL     1       4.994   5.808  18.609  0.00  0.00    +0.000 N 
ATOM      2  C   UNL     1       3.669   6.203  18.595  0.00  0.00    +0.000 C 
ATOM      3  O   UNL     1       3.168   6.772  17.626  0.00  0.00    +0.000 OA
ATOM      4  H   UNL     1       5.290   5.163  19.333  0.00  0.00    +0.000 HD
ENDROOT
BRANCH   1   5
ATOM      5  C   UNL     1       5.838   5.946  17.415  0.00  0.00    +0.000 C 
BRANCH   5   7
ATOM      6  C   UNL     1       7.654   7.720  17.636  0.00  0.00    +0.000 C 
ATOM      7  C   UNL     1       7.312   6.230  17.789  0.00  0.00    +0.000 C 
ATOM      8  C   UNL     1       7.618   5.801  19.229  0.00  0.00    +0.000 C 
ENDBRANCH   5   7
BRANCH   5   9
ATOM      9  C   UNL     1       5.738   4.702  16.548  0.00  0.00    +0.000 C 
ATOM     10  N   UNL     1       5.654   3.669  15.830  0.00  0.00    +0.000 NA
ENDBRANCH   5   9
ENDBRANCH   1   5
BRANCH   2  11
ATOM     11  C   UNL     1       2.925   6.019  19.944  0.00  0.00    +0.000 C 
BRANCH  11  12
ATOM     12  N   UNL     1       2.324   7.327  20.300  0.00  0.00    +0.000 NA
ATOM     13  H   UNL     1       1.307   7.230  20.295  0.00  0.00    +0.000 HD
ATOM     14  H   UNL     1       2.543   8.014  19.581  0.00  0.00    +0.000 HD
ENDBRANCH  11  12
BRANCH  11  15
ATOM     15  C   UNL     1       1.879   4.893  19.806  0.00  0.00    +0.000 C 
BRANCH  15  16
ATOM     16  C   UNL     1       2.387   3.652  19.111  0.00  0.00    +0.000 A 
ATOM     17  C   UNL     1       2.088   3.212  17.835  0.00  0.00    +0.000 A 
ATOM     18  C   UNL     1       2.767   2.008  17.491  0.00  0.00    +0.000 A 
ATOM     19  C   UNL     1       3.577   1.571  18.516  0.00  0.00    +0.000 A 
ATOM     20  S   UNL     1       3.519   2.614  19.873  0.00  0.00    +0.000 S 
ENDBRANCH  15  16
ENDBRANCH  11  15
ENDBRANCH   2  11
TORSDOF 7
ENDMDL
MODEL 7
REMARK VINA RESULT:      -5.8      1.651      2.041
REMARK  Name = 
REMARK  9 active torsions:
REMARK  status: ('A' for Active; 'I' for Inactive)
REMARK    1  A    between atoms: C_1  and  C_2
REMARK    2  A    between atoms: C_2  and  C_3
REMARK    3  A    between atoms: C_2  and  C_4
REMARK    4  A    between atoms: C_4  and  C_5
REMARK    5  A    between atoms: C_4  and  N_7
REMARK    6  A    between atoms: C_8  and  C_10
REMARK    7  A    between atoms: C_10  and  N_11
REMARK    8  A    between atoms: C_10  and  C_12
REMARK    9  A    between atoms: C_12  and  C_13
REMARK                            x       y       z     vdW  Elec       q    Type
REMARK                         _______ _______ _______ _____ _____    ______ ____
ROOT
ATOM      1  N   UNL     1       4.651   3.477  17.551  0.00  0.00    +0.000 N 
ATOM      2  C   UNL     1       3.429   2.913  17.235  0.00  0.00    +0.000 C 
ATOM      3  O   UNL     1       2.609   3.491  16.523  0.00  0.00    +0.000 OA
ATOM      4  H   UNL     1       5.361   2.876  17.954  0.00  0.00    +0.000 HD
ENDROOT
BRANCH   1   5
ATOM      5  C   UNL     1       5.076   4.749  16.953  0.00  0.00    +0.000 C 
BRANCH   5   7
ATOM      6  C   UNL     1       3.588   6.662  17.740  0.00  0.00    +0.000 C 
ATOM      7  C   UNL     1       4.921   5.926  17.946  0.00  0.00    +0.000 C 
ATOM      8  C   UNL     1       4.997   5.445  19.401  0.00  0.00    +0.000 C 
ENDBRANCH   5   7
BRANCH   5   9
ATOM      9  C   UNL     1       6.511   4.651  16.463  0.00  0.00    +0.000 C 
ATOM     10  N   UNL     1       7.702   4.569  16.057  0.00  0.00    +0.000 NA
ENDBRANCH   5   9
ENDBRANCH   1   5
BRANCH   2  11
ATOM     11  C   UNL     1       3.119   1.585  17.974  0.00  0.00    +0.000 C 
BRANCH  11  12
ATOM     12  N   UNL     1       4.312   1.241  18.786  0.00  0.00    +0.000 NA
ATOM     13  H   UNL     1       4.030   0.586  19.518  0.00  0.00    +0.000 HD
ATOM     14  H   UNL     1       4.652   2.071  19.268  0.00  0.00    +0.000 HD
ENDBRANCH  11  12
BRANCH  11  15
ATOM     15  C   UNL     1       1.841   1.756  18.824  0.00  0.00    +0.000 C 
BRANCH  15  16
ATOM     16  C   UNL     1       1.874   2.933  19.769  0.00  0.00    +0.000 A 
ATOM     17  C   UNL     1       1.328   4.188  19.579  0.00  0.00    +0.000 A 
ATOM     18  C   UNL     1       1.526   5.053  20.694  0.00  0.00    +0.000 A 
ATOM     19  C   UNL     1       2.211   4.424  21.709  0.00  0.00    +0.000 A 
ATOM     20  S   UNL     1       2.600   2.802  21.317  0.00  0.00    +0.000 S 
ENDBRANCH  15  16
ENDBRANCH  11  15
ENDBRANCH   2  11
TORSDOF 7
ENDMDL
MODEL 8
REMARK VINA RESULT:      -5.8      1.643      2.284
REMARK  Name = 
REMARK  9 active torsions:
REMARK  status: ('A' for Active; 'I' for Inactive)
REMARK    1  A    between atoms: C_1  and  C_2
REMARK    2  A    between atoms: C_2  and  C_3
REMARK    3  A    between atoms: C_2  and  C_4
REMARK    4  A    between atoms: C_4  and  C_5
REMARK    5  A    between atoms: C_4  and  N_7
REMARK    6  A    between atoms: C_8  and  C_10
REMARK    7  A    between atoms: C_10  and  N_11
REMARK    8  A    between atoms: C_10  and  C_12
REMARK    9  A    between atoms: C_12  and  C_13
REMARK                            x       y       z     vdW  Elec       q    Type
REMARK                         _______ _______ _______ _____ _____    ______ ____
ROOT
ATOM      1  N   UNL     1       5.592   4.528  17.768  0.00  0.00    +0.000 N 
ATOM      2  C   UNL     1       5.172   3.694  16.748  0.00  0.00    +0.000 C 
ATOM      3  O   UNL     1       5.804   3.578  15.699  0.00  0.00    +0.000 OA
ATOM      4  H   UNL     1       5.156   4.422  18.678  0.00  0.00    +0.000 HD
ENDROOT
BRANCH   1   5
ATOM      5  C   UNL     1       6.881   5.228  17.693  0.00  0.00    +0.000 C 
BRANCH   5   7
ATOM      6  C   UNL     1       5.298   7.140  17.117  0.00  0.00    +0.000 C 
ATOM      7  C   UNL     1       6.739   6.614  17.020  0.00  0.00    +0.000 C 
ATOM      8  C   UNL     1       7.682   7.644  17.654  0.00  0.00    +0.000 C 
ENDBRANCH   5   7
BRANCH   5   9
ATOM      9  C   UNL     1       7.489   5.368  19.078  0.00  0.00    +0.000 C 
ATOM     10  N   UNL     1       7.993   5.483  20.228  0.00  0.00    +0.000 NA
ENDBRANCH   5   9
ENDBRANCH   1   5
BRANCH   2  11
ATOM     11  C   UNL     1       3.775   3.057  16.968  0.00  0.00    +0.000 C 
BRANCH  11  12
ATOM     12  N   UNL     1       3.942   1.947  17.937  0.00  0.00    +0.000 NA
ATOM     13  H   UNL     1       4.721   2.172  18.559  0.00  0.00    +0.000 HD
ATOM     14  H   UNL     1       4.214   1.097  17.444  0.00  0.00    +0.000 HD
ENDBRANCH  11  12
BRANCH  11  15
ATOM     15  C   UNL     1       2.786   4.138  17.455  0.00  0.00    +0.000 C 
BRANCH  15  16
ATOM     16  C   UNL     1       2.232   3.897  18.839  0.00  0.00    +0.000 A 
ATOM     17  C   UNL     1       1.171   3.089  19.199  0.00  0.00    +0.000 A 
ATOM     18  C   UNL     1       0.935   3.078  20.604  0.00  0.00    +0.000 A 
ATOM     19  C   UNL     1       1.836   3.873  21.277  0.00  0.00    +0.000 A 
ATOM     20  S   UNL     1       2.958   4.615  20.217  0.00  0.00    +0.000 S 
ENDBRANCH  15  16
ENDBRANCH  11  15
ENDBRANCH   2  11
TORSDOF 7
ENDMDL
MODEL 9
REMARK VINA RESULT:      -5.8      1.746      2.437
REMARK  Name = 
REMARK  9 active torsions:
REMARK  status: ('A' for Active; 'I' for Inactive)
REMARK    1  A    between atoms: C_1  and  C_2
REMARK    2  A    between atoms: C_2  and  C_3
REMARK    3  A    between atoms: C_2  and  C_4
REMARK    4  A    between atoms: C_4  and  C_5
REMARK    5  A    between atoms: C_4  and  N_7
REMARK    6  A    between atoms: C_8  and  C_10
REMARK    7  A    between atoms: C_10  and  N_11
REMARK    8  A    between atoms: C_10  and  C_12
REMARK    9  A    between atoms: C_12  and  C_13
REMARK                            x       y       z     vdW  Elec       q    Type
REMARK                         _______ _______ _______ _____ _____    ______ ____
ROOT
ATOM      1  N   UNL     1       5.582   4.347  17.877  0.00  0.00    +0.000 N 
ATOM      2  C   UNL     1       5.058   3.679  16.786  0.00  0.00    +0.000 C 
ATOM      3  O   UNL     1       5.563   3.759  15.667  0.00  0.00    +0.000 OA
ATOM      4  H   UNL     1       5.259   4.077  18.799  0.00  0.00    +0.000 HD
ENDROOT
BRANCH   1   5
ATOM      5  C   UNL     1       6.842   5.096  17.773  0.00  0.00    +0.000 C 
BRANCH   5   7
ATOM      6  C   UNL     1       5.211   6.988  17.271  0.00  0.00    +0.000 C 
ATOM      7  C   UNL     1       6.639   6.458  17.068  0.00  0.00    +0.000 C 
ATOM      8  C   UNL     1       7.631   7.509  17.582  0.00  0.00    +0.000 C 
ENDBRANCH   5   7
BRANCH   5   9
ATOM      9  C   UNL     1       7.455   5.294  19.150  0.00  0.00    +0.000 C 
ATOM     10  N   UNL     1       7.963   5.458  20.292  0.00  0.00    +0.000 NA
ENDBRANCH   5   9
ENDBRANCH   1   5
BRANCH   2  11
ATOM     11  C   UNL     1       3.708   2.964  17.054  0.00  0.00    +0.000 C 
BRANCH  11  12
ATOM     12  N   UNL     1       3.982   1.825  17.963  0.00  0.00    +0.000 NA
ATOM     13  H   UNL     1       3.603   2.046  18.886  0.00  0.00    +0.000 HD
ATOM     14  H   UNL     1       4.987   1.721  18.092  0.00  0.00    +0.000 HD
ENDBRANCH  11  12
BRANCH  11  15
ATOM     15  C   UNL     1       2.698   3.973  17.641  0.00  0.00    +0.000 C 
BRANCH  15  16
ATOM     16  C   UNL     1       2.284   3.685  19.064  0.00  0.00    +0.000 A 
ATOM     17  C   UNL     1       2.841   4.182  20.226  0.00  0.00    +0.000 A 
ATOM     18  C   UNL     1       2.181   3.717  21.400  0.00  0.00    +0.000 A 
ATOM     19  C   UNL     1       1.129   2.884  21.094  0.00  0.00    +0.000 A 
ATOM     20  S   UNL     1       0.939   2.677  19.405  0.00  0.00    +0.000 S 
ENDBRANCH  15  16
ENDBRANCH  11  15
ENDBRANCH   2  11
TORSDOF 7
ENDMDL
