MODEL 1
REMARK VINA RESULT:      -7.7      0.000      0.000
REMARK  Name = 
REMARK  9 active torsions:
REMARK  status: ('A' for Active; 'I' for Inactive)
REMARK    1  A    between atoms: C_1  and  N_2
REMARK    2  A    between atoms: N_2  and  C_3
REMARK    3  A    between atoms: N_2  and  C_4
REMARK    4  A    between atoms: C_4  and  C_5
REMARK    5  A    between atoms: C_5  and  C_6
REMARK    6  A    between atoms: C_6  and  N_7
REMARK    7  A    between atoms: C_9  and  C_10
REMARK    8  A    between atoms: C_11  and  C_12
REMARK    9  A    between atoms: N_14  and  C_15
REMARK                            x       y       z     vdW  Elec       q    Type
REMARK                         _______ _______ _______ _____ _____    ______ ____
ROOT
ATOM      1  C   UNL     1       0.040  13.809  21.830  0.00  0.00    +0.000 C 
ATOM      2  C   UNL     1      -0.502  12.588  21.748  0.00  0.00    +0.000 C 
ATOM      3  C   UNL     1      -1.383  12.422  22.927  0.00  0.00    +0.000 C 
ATOM      4  O   UNL     1      -2.064  11.451  23.195  0.00  0.00    +0.000 OA
ATOM      5  N   UNL     1      -1.302  13.561  23.646  0.00  0.00    +0.000 N 
ATOM      6  C   UNL     1      -0.467  14.446  23.058  0.00  0.00    +0.000 C 
ATOM      7  O   UNL     1      -0.208  15.560  23.468  0.00  0.00    +0.000 OA
ATOM      8  H   UNL     1      -1.803  13.735  24.499  0.00  0.00    +0.000 HD
ENDROOT
BRANCH   1  11
ATOM      9  N   UNL     1       2.732  15.043  19.982  0.00  0.00    +0.000 N 
ATOM     10  N   UNL     1       2.258  14.233  20.954  0.00  0.00    +0.000 NA
ATOM     11  C   UNL     1       0.939  14.455  20.948  0.00  0.00    +0.000 A 
ATOM     12  C   UNL     1       0.567  15.403  19.953  0.00  0.00    +0.000 A 
ATOM     13  C   UNL     1      -0.638  15.978  19.502  0.00  0.00    +0.000 A 
ATOM     14  C   UNL     1      -0.599  16.917  18.465  0.00  0.00    +0.000 A 
ATOM     15  C   UNL     1       0.612  17.282  17.880  0.00  0.00    +0.000 A 
ATOM     16  C   UNL     1       1.817  16.714  18.302  0.00  0.00    +0.000 A 
ATOM     17  C   UNL     1       1.763  15.778  19.345  0.00  0.00    +0.000 A 
BRANCH   9  18
ATOM     18  C   UNL     1       4.153  15.023  19.694  0.00  0.00    +0.000 C 
BRANCH  18  19
ATOM     19  C   UNL     1       4.458  14.527  18.280  0.00  0.00    +0.000 C 
BRANCH  19  20
ATOM     20  C   UNL     1       5.895  14.829  17.831  0.00  0.00    +0.000 C 
BRANCH  20  22
ATOM     21  C   UNL     1       7.864  14.416  19.202  0.00  0.00    +0.000 C 
ATOM     22  N   UNL     1       6.755  15.329  18.920  0.00  0.00    +0.000 NA
ATOM     23  C   UNL     1       7.285  16.652  18.570  0.00  0.00    +0.000 C 
ENDBRANCH  20  22
ENDBRANCH  19  20
ENDBRANCH  18  19
ENDBRANCH   9  18
ENDBRANCH   1  11
BRANCH   2  24
ATOM     24  C   UNL     1      -0.341  11.606  20.741  0.00  0.00    +0.000 A 
ATOM     25  C   UNL     1       0.648  10.652  20.734  0.00  0.00    +0.000 A 
ATOM     26  N   UNL     1       0.548   9.913  19.569  0.00  0.00    +0.000 N 
ATOM     27  C   UNL     1      -0.569  10.359  18.856  0.00  0.00    +0.000 A 
ATOM     28  C   UNL     1      -1.180   9.893  17.673  0.00  0.00    +0.000 A 
ATOM     29  C   UNL     1      -2.326  10.539  17.202  0.00  0.00    +0.000 A 
ATOM     30  C   UNL     1      -2.877  11.607  17.894  0.00  0.00    +0.000 A 
ATOM     31  C   UNL     1      -2.295  12.052  19.084  0.00  0.00    +0.000 A 
ATOM     32  C   UNL     1      -1.134  11.420  19.580  0.00  0.00    +0.000 A 
BRANCH  26  33
ATOM     33  C   UNL     1       1.458   8.883  19.206  0.00  0.00    +0.000 A 
ATOM     34  C   UNL     1       2.118   8.916  17.974  0.00  0.00    +0.000 A 
ATOM     35  C   UNL     1       3.003   7.891  17.646  0.00  0.00    +0.000 A 
ATOM     36  C   UNL     1       3.180   6.860  18.553  0.00  0.00    +0.000 A 
ATOM     37  N   UNL     1       2.545   6.787  19.741  0.00  0.00    +0.000 NA
ATOM     38  C   UNL     1       1.695   7.800  20.041  0.00  0.00    +0.000 A 
ENDBRANCH  26  33
ENDBRANCH   2  24
TORSDOF 7
ENDMDL
MODEL 2
REMARK VINA RESULT:      -7.5      0.960      6.570
REMARK  Name = 
REMARK  9 active torsions:
REMARK  status: ('A' for Active; 'I' for Inactive)
REMARK    1  A    between atoms: C_1  and  N_2
REMARK    2  A    between atoms: N_2  and  C_3
REMARK    3  A    between atoms: N_2  and  C_4
REMARK    4  A    between atoms: C_4  and  C_5
REMARK    5  A    between atoms: C_5  and  C_6
REMARK    6  A    between atoms: C_6  and  N_7
REMARK    7  A    between atoms: C_9  and  C_10
REMARK    8  A    between atoms: C_11  and  C_12
REMARK    9  A    between atoms: N_14  and  C_15
REMARK                            x       y       z     vdW  Elec       q    Type
REMARK                         _______ _______ _______ _____ _____    ______ ____
ROOT
ATOM      1  C   UNL     1      -0.263  12.749  21.141  0.00  0.00    +0.000 C 
ATOM      2  C   UNL     1       0.253  13.977  21.271  0.00  0.00    +0.000 C 
ATOM      3  C   UNL     1      -0.134  14.473  22.612  0.00  0.00    +0.000 C 
ATOM      4  O   UNL     1       0.163  15.544  23.105  0.00  0.00    +0.000 OA
ATOM      5  N   UNL     1      -0.868  13.504  23.197  0.00  0.00    +0.000 N 
ATOM      6  C   UNL     1      -0.995  12.434  22.380  0.00  0.00    +0.000 C 
ATOM      7  O   UNL     1      -1.589  11.406  22.641  0.00  0.00    +0.000 OA
ATOM      8  H   UNL     1      -1.260  13.562  24.120  0.00  0.00    +0.000 HD
ENDROOT
BRANCH   1  11
ATOM      9  N   UNL     1       0.621  10.484  18.638  0.00  0.00    +0.000 N 
ATOM     10  N   UNL     1       0.967  11.232  19.707  0.00  0.00    +0.000 NA
ATOM     11  C   UNL     1      -0.171  11.845  20.056  0.00  0.00    +0.000 A 
ATOM     12  C   UNL     1      -1.254  11.471  19.211  0.00  0.00    +0.000 A 
ATOM     13  C   UNL     1      -2.627  11.776  19.129  0.00  0.00    +0.000 A 
ATOM     14  C   UNL     1      -3.396  11.193  18.114  0.00  0.00    +0.000 A 
ATOM     15  C   UNL     1      -2.817  10.320  17.196  0.00  0.00    +0.000 A 
ATOM     16  C   UNL     1      -1.460   9.992  17.267  0.00  0.00    +0.000 A 
ATOM     17  C   UNL     1      -0.702  10.587  18.286  0.00  0.00    +0.000 A 
BRANCH   9  18
ATOM     18  C   UNL     1       1.633   9.647  18.021  0.00  0.00    +0.000 C 
BRANCH  18  19
ATOM     19  C   UNL     1       1.842   8.331  18.772  0.00  0.00    +0.000 C 
BRANCH  19  20
ATOM     20  C   UNL     1       2.885   7.418  18.109  0.00  0.00    +0.000 C 
BRANCH  20  22
ATOM     21  C   UNL     1       2.141   5.100  18.045  0.00  0.00    +0.000 C 
ATOM     22  N   UNL     1       2.977   6.085  18.734  0.00  0.00    +0.000 NA
ATOM     23  C   UNL     1       4.372   5.631  18.736  0.00  0.00    +0.000 C 
ENDBRANCH  20  22
ENDBRANCH  19  20
ENDBRANCH  18  19
ENDBRANCH   9  18
ENDBRANCH   1  11
BRANCH   2  24
ATOM     24  C   UNL     1       1.054  14.710  20.362  0.00  0.00    +0.000 A 
ATOM     25  C   UNL     1       2.407  14.534  20.197  0.00  0.00    +0.000 A 
ATOM     26  N   UNL     1       2.872  15.466  19.287  0.00  0.00    +0.000 N 
ATOM     27  C   UNL     1       1.782  16.202  18.811  0.00  0.00    +0.000 A 
ATOM     28  C   UNL     1       1.677  17.189  17.809  0.00  0.00    +0.000 A 
ATOM     29  C   UNL     1       0.423  17.740  17.529  0.00  0.00    +0.000 A 
ATOM     30  C   UNL     1      -0.710  17.310  18.203  0.00  0.00    +0.000 A 
ATOM     31  C   UNL     1      -0.617  16.308  19.172  0.00  0.00    +0.000 A 
ATOM     32  C   UNL     1       0.638  15.738  19.478  0.00  0.00    +0.000 A 
BRANCH  26  33
ATOM     33  C   UNL     1       4.240  15.610  18.932  0.00  0.00    +0.000 A 
ATOM     34  C   UNL     1       4.976  16.717  19.363  0.00  0.00    +0.000 A 
ATOM     35  C   UNL     1       6.316  16.830  18.997  0.00  0.00    +0.000 A 
ATOM     36  C   UNL     1       6.866  15.842  18.196  0.00  0.00    +0.000 A 
ATOM     37  N   UNL     1       6.178  14.771  17.748  0.00  0.00    +0.000 NA
ATOM     38  C   UNL     1       4.879  14.679  18.123  0.00  0.00    +0.000 A 
ENDBRANCH  26  33
ENDBRANCH   2  24
TORSDOF 7
ENDMDL
MODEL 3
REMARK VINA RESULT:      -7.5      2.868      7.063
REMARK  Name = 
REMARK  9 active torsions:
REMARK  status: ('A' for Active; 'I' for Inactive)
REMARK    1  A    between atoms: C_1  and  N_2
REMARK    2  A    between atoms: N_2  and  C_3
REMARK    3  A    between atoms: N_2  and  C_4
REMARK    4  A    between atoms: C_4  and  C_5
REMARK    5  A    between atoms: C_5  and  C_6
REMARK    6  A    between atoms: C_6  and  N_7
REMARK    7  A    between atoms: C_9  and  C_10
REMARK    8  A    between atoms: C_11  and  C_12
REMARK    9  A    between atoms: N_14  and  C_15
REMARK                            x       y       z     vdW  Elec       q    Type
REMARK                         _______ _______ _______ _____ _____    ______ ____
ROOT
ATOM      1  C   UNL     1       0.969  12.684  18.940  0.00  0.00    +0.000 C 
ATOM      2  C   UNL     1      -0.138  13.428  19.059  0.00  0.00    +0.000 C 
ATOM      3  C   UNL     1       0.256  14.837  18.833  0.00  0.00    +0.000 C 
ATOM      4  O   UNL     1      -0.477  15.808  18.840  0.00  0.00    +0.000 OA
ATOM      5  N   UNL     1       1.585  14.844  18.600  0.00  0.00    +0.000 N 
ATOM      6  C   UNL     1       2.092  13.592  18.648  0.00  0.00    +0.000 C 
ATOM      7  O   UNL     1       3.253  13.287  18.464  0.00  0.00    +0.000 OA
ATOM      8  H   UNL     1       2.127  15.668  18.406  0.00  0.00    +0.000 HD
ENDROOT
BRANCH   1  11
ATOM      9  N   UNL     1       1.534   9.261  18.563  0.00  0.00    +0.000 N 
ATOM     10  N   UNL     1       1.529  10.507  18.040  0.00  0.00    +0.000 NA
ATOM     11  C   UNL     1       1.127  11.283  19.053  0.00  0.00    +0.000 A 
ATOM     12  C   UNL     1       0.889  10.527  20.236  0.00  0.00    +0.000 A 
ATOM     13  C   UNL     1       0.486  10.811  21.557  0.00  0.00    +0.000 A 
ATOM     14  C   UNL     1       0.351   9.759  22.470  0.00  0.00    +0.000 A 
ATOM     15  C   UNL     1       0.614   8.446  22.086  0.00  0.00    +0.000 A 
ATOM     16  C   UNL     1       1.028   8.142  20.786  0.00  0.00    +0.000 A 
ATOM     17  C   UNL     1       1.154   9.206  19.881  0.00  0.00    +0.000 A 
BRANCH   9  18
ATOM     18  C   UNL     1       1.966   8.159  17.724  0.00  0.00    +0.000 C 
BRANCH  18  19
ATOM     19  C   UNL     1       3.366   7.662  18.084  0.00  0.00    +0.000 C 
BRANCH  19  20
ATOM     20  C   UNL     1       3.404   6.167  18.435  0.00  0.00    +0.000 C 
BRANCH  20  22
ATOM     21  C   UNL     1       4.928   5.941  16.550  0.00  0.00    +0.000 C 
ATOM     22  N   UNL     1       3.850   5.315  17.317  0.00  0.00    +0.000 NA
ATOM     23  C   UNL     1       4.302   4.017  17.830  0.00  0.00    +0.000 C 
ENDBRANCH  20  22
ENDBRANCH  19  20
ENDBRANCH  18  19
ENDBRANCH   9  18
ENDBRANCH   1  11
BRANCH   2  24
ATOM     24  C   UNL     1      -1.469  13.014  19.313  0.00  0.00    +0.000 A 
ATOM     25  C   UNL     1      -2.186  13.345  20.438  0.00  0.00    +0.000 A 
ATOM     26  N   UNL     1      -3.414  12.709  20.388  0.00  0.00    +0.000 N 
ATOM     27  C   UNL     1      -3.506  12.018  19.175  0.00  0.00    +0.000 A 
ATOM     28  C   UNL     1      -4.563  11.301  18.576  0.00  0.00    +0.000 A 
ATOM     29  C   UNL     1      -4.366  10.727  17.318  0.00  0.00    +0.000 A 
ATOM     30  C   UNL     1      -3.160  10.877  16.648  0.00  0.00    +0.000 A 
ATOM     31  C   UNL     1      -2.122  11.615  17.221  0.00  0.00    +0.000 A 
ATOM     32  C   UNL     1      -2.293  12.202  18.494  0.00  0.00    +0.000 A 
BRANCH  26  33
ATOM     33  C   UNL     1      -4.383  12.778  21.425  0.00  0.00    +0.000 A 
ATOM     34  C   UNL     1      -5.710  13.110  21.140  0.00  0.00    +0.000 A 
ATOM     35  C   UNL     1      -6.637  13.171  22.180  0.00  0.00    +0.000 A 
ATOM     36  C   UNL     1      -6.197  12.918  23.468  0.00  0.00    +0.000 A 
ATOM     37  N   UNL     1      -4.920  12.614  23.779  0.00  0.00    +0.000 NA
ATOM     38  C   UNL     1      -4.039  12.552  22.751  0.00  0.00    +0.000 A 
ENDBRANCH  26  33
ENDBRANCH   2  24
TORSDOF 7
ENDMDL
MODEL 4
REMARK VINA RESULT:      -7.5      5.025      8.933
REMARK  Name = 
REMARK  9 active torsions:
REMARK  status: ('A' for Active; 'I' for Inactive)
REMARK    1  A    between atoms: C_1  and  N_2
REMARK    2  A    between atoms: N_2  and  C_3
REMARK    3  A    between atoms: N_2  and  C_4
REMARK    4  A    between atoms: C_4  and  C_5
REMARK    5  A    between atoms: C_5  and  C_6
REMARK    6  A    between atoms: C_6  and  N_7
REMARK    7  A    between atoms: C_9  and  C_10
REMARK    8  A    between atoms: C_11  and  C_12
REMARK    9  A    between atoms: N_14  and  C_15
REMARK                            x       y       z     vdW  Elec       q    Type
REMARK                         _______ _______ _______ _____ _____    ______ ____
ROOT
ATOM      1  C   UNL     1       4.120   4.098  19.665  0.00  0.00    +0.000 C 
ATOM      2  C   UNL     1       2.982   4.618  20.142  0.00  0.00    +0.000 C 
ATOM      3  C   UNL     1       2.253   3.522  20.819  0.00  0.00    +0.000 C 
ATOM      4  O   UNL     1       1.184   3.606  21.394  0.00  0.00    +0.000 OA
ATOM      5  N   UNL     1       3.004   2.409  20.695  0.00  0.00    +0.000 N 
ATOM      6  C   UNL     1       4.143   2.667  20.014  0.00  0.00    +0.000 C 
ATOM      7  O   UNL     1       5.018   1.864  19.760  0.00  0.00    +0.000 OA
ATOM      8  H   UNL     1       2.760   1.509  21.068  0.00  0.00    +0.000 HD
ENDROOT
BRANCH   1  11
ATOM      9  N   UNL     1       6.839   5.951  18.502  0.00  0.00    +0.000 N 
ATOM     10  N   UNL     1       6.029   5.582  19.518  0.00  0.00    +0.000 NA
ATOM     11  C   UNL     1       5.167   4.729  18.952  0.00  0.00    +0.000 A 
ATOM     12  C   UNL     1       5.441   4.541  17.568  0.00  0.00    +0.000 A 
ATOM     13  C   UNL     1       4.893   3.772  16.521  0.00  0.00    +0.000 A 
ATOM     14  C   UNL     1       5.454   3.863  15.242  0.00  0.00    +0.000 A 
ATOM     15  C   UNL     1       6.541   4.699  15.000  0.00  0.00    +0.000 A 
ATOM     16  C   UNL     1       7.109   5.460  16.025  0.00  0.00    +0.000 A 
ATOM     17  C   UNL     1       6.535   5.362  17.300  0.00  0.00    +0.000 A 
BRANCH   9  18
ATOM     18  C   UNL     1       7.932   6.862  18.784  0.00  0.00    +0.000 C 
BRANCH  18  19
ATOM     19  C   UNL     1       8.106   7.924  17.697  0.00  0.00    +0.000 C 
BRANCH  19  20
ATOM     20  C   UNL     1       7.982   9.359  18.230  0.00  0.00    +0.000 C 
BRANCH  20  22
ATOM     21  C   UNL     1       9.658  11.080  17.839  0.00  0.00    +0.000 C 
ATOM     22  N   UNL     1       9.268   9.935  18.663  0.00  0.00    +0.000 NA
ATOM     23  C   UNL     1       9.181  10.348  20.069  0.00  0.00    +0.000 C 
ENDBRANCH  20  22
ENDBRANCH  19  20
ENDBRANCH  18  19
ENDBRANCH   9  18
ENDBRANCH   1  11
BRANCH   2  24
ATOM     24  C   UNL     1       2.516   5.954  20.081  0.00  0.00    +0.000 A 
ATOM     25  C   UNL     1       1.870   6.601  21.106  0.00  0.00    +0.000 A 
ATOM     26  N   UNL     1       1.493   7.860  20.673  0.00  0.00    +0.000 N 
ATOM     27  C   UNL     1       1.971   8.042  19.371  0.00  0.00    +0.000 A 
ATOM     28  C   UNL     1       1.960   9.159  18.511  0.00  0.00    +0.000 A 
ATOM     29  C   UNL     1       2.549   9.049  17.248  0.00  0.00    +0.000 A 
ATOM     30  C   UNL     1       3.161   7.870  16.849  0.00  0.00    +0.000 A 
ATOM     31  C   UNL     1       3.205   6.771  17.710  0.00  0.00    +0.000 A 
ATOM     32  C   UNL     1       2.613   6.854  18.989  0.00  0.00    +0.000 A 
BRANCH  26  33
ATOM     33  C   UNL     1       0.744   8.775  21.460  0.00  0.00    +0.000 A 
ATOM     34  C   UNL     1      -0.255   9.563  20.881  0.00  0.00    +0.000 A 
ATOM     35  C   UNL     1      -0.972  10.452  21.680  0.00  0.00    +0.000 A 
ATOM     36  C   UNL     1      -0.650  10.536  23.024  0.00  0.00    +0.000 A 
ATOM     37  N   UNL     1       0.321   9.805  23.610  0.00  0.00    +0.000 NA
ATOM     38  C   UNL     1       0.999   8.941  22.815  0.00  0.00    +0.000 A 
ENDBRANCH  26  33
ENDBRANCH   2  24
TORSDOF 7
ENDMDL
MODEL 5
REMARK VINA RESULT:      -7.5      2.820      7.216
REMARK  Name = 
REMARK  9 active torsions:
REMARK  status: ('A' for Active; 'I' for Inactive)
REMARK    1  A    between atoms: C_1  and  N_2
REMARK    2  A    between atoms: N_2  and  C_3
REMARK    3  A    between atoms: N_2  and  C_4
REMARK    4  A    between atoms: C_4  and  C_5
REMARK    5  A    between atoms: C_5  and  C_6
REMARK    6  A    between atoms: C_6  and  N_7
REMARK    7  A    between atoms: C_9  and  C_10
REMARK    8  A    between atoms: C_11  and  C_12
REMARK    9  A    between atoms: N_14  and  C_15
REMARK                            x       y       z     vdW  Elec       q    Type
REMARK                         _______ _______ _______ _____ _____    ______ ____
ROOT
ATOM      1  C   UNL     1       1.053  12.604  18.904  0.00  0.00    +0.000 C 
ATOM      2  C   UNL     1      -0.014  13.394  19.070  0.00  0.00    +0.000 C 
ATOM      3  C   UNL     1       0.420  14.780  18.781  0.00  0.00    +0.000 C 
ATOM      4  O   UNL     1      -0.273  15.780  18.806  0.00  0.00    +0.000 OA
ATOM      5  N   UNL     1       1.731  14.728  18.466  0.00  0.00    +0.000 N 
ATOM      6  C   UNL     1       2.190  13.457  18.517  0.00  0.00    +0.000 C 
ATOM      7  O   UNL     1       3.325  13.101  18.271  0.00  0.00    +0.000 OA
ATOM      8  H   UNL     1       2.291  15.523  18.216  0.00  0.00    +0.000 HD
ENDROOT
BRANCH   1  11
ATOM      9  N   UNL     1       1.504   9.157  18.598  0.00  0.00    +0.000 N 
ATOM     10  N   UNL     1       1.543  10.391  18.051  0.00  0.00    +0.000 NA
ATOM     11  C   UNL     1       1.164  11.200  19.046  0.00  0.00    +0.000 A 
ATOM     12  C   UNL     1       0.897  10.477  20.243  0.00  0.00    +0.000 A 
ATOM     13  C   UNL     1       0.499  10.802  21.556  0.00  0.00    +0.000 A 
ATOM     14  C   UNL     1       0.325   9.774  22.489  0.00  0.00    +0.000 A 
ATOM     15  C   UNL     1       0.544   8.445  22.133  0.00  0.00    +0.000 A 
ATOM     16  C   UNL     1       0.952   8.101  20.842  0.00  0.00    +0.000 A 
ATOM     17  C   UNL     1       1.118   9.141  19.915  0.00  0.00    +0.000 A 
BRANCH   9  18
ATOM     18  C   UNL     1       1.901   8.024  17.784  0.00  0.00    +0.000 C 
BRANCH  18  19
ATOM     19  C   UNL     1       3.368   7.641  17.987  0.00  0.00    +0.000 C 
BRANCH  19  20
ATOM     20  C   UNL     1       3.546   6.278  18.675  0.00  0.00    +0.000 C 
BRANCH  20  22
ATOM     21  C   UNL     1       3.063   4.221  17.468  0.00  0.00    +0.000 C 
ATOM     22  N   UNL     1       2.515   5.294  18.299  0.00  0.00    +0.000 NA
ATOM     23  C   UNL     1       1.908   4.721  19.505  0.00  0.00    +0.000 C 
ENDBRANCH  20  22
ENDBRANCH  19  20
ENDBRANCH  18  19
ENDBRANCH   9  18
ENDBRANCH   1  11
BRANCH   2  24
ATOM     24  C   UNL     1      -1.341  13.041  19.418  0.00  0.00    +0.000 A 
ATOM     25  C   UNL     1      -1.969  13.420  20.580  0.00  0.00    +0.000 A 
ATOM     26  N   UNL     1      -3.223  12.837  20.621  0.00  0.00    +0.000 N 
ATOM     27  C   UNL     1      -3.422  12.131  19.430  0.00  0.00    +0.000 A 
ATOM     28  C   UNL     1      -4.545  11.449  18.915  0.00  0.00    +0.000 A 
ATOM     29  C   UNL     1      -4.454  10.847  17.658  0.00  0.00    +0.000 A 
ATOM     30  C   UNL     1      -3.290  10.935  16.908  0.00  0.00    +0.000 A 
ATOM     31  C   UNL     1      -2.187  11.637  17.399  0.00  0.00    +0.000 A 
ATOM     32  C   UNL     1      -2.250  12.252  18.669  0.00  0.00    +0.000 A 
BRANCH  26  33
ATOM     33  C   UNL     1      -4.118  12.964  21.717  0.00  0.00    +0.000 A 
ATOM     34  C   UNL     1      -3.722  12.602  23.008  0.00  0.00    +0.000 A 
ATOM     35  C   UNL     1      -4.623  12.738  24.062  0.00  0.00    +0.000 A 
ATOM     36  C   UNL     1      -5.895  13.210  23.783  0.00  0.00    +0.000 A 
ATOM     37  N   UNL     1      -6.316  13.548  22.547  0.00  0.00    +0.000 NA
ATOM     38  C   UNL     1      -5.419  13.416  21.540  0.00  0.00    +0.000 A 
ENDBRANCH  26  33
ENDBRANCH   2  24
TORSDOF 7
ENDMDL
MODEL 6
REMARK VINA RESULT:      -7.3      1.616      2.093
REMARK  Name = 
REMARK  9 active torsions:
REMARK  status: ('A' for Active; 'I' for Inactive)
REMARK    1  A    between atoms: C_1  and  N_2
REMARK    2  A    between atoms: N_2  and  C_3
REMARK    3  A    between atoms: N_2  and  C_4
REMARK    4  A    between atoms: C_4  and  C_5
REMARK    5  A    between atoms: C_5  and  C_6
REMARK    6  A    between atoms: C_6  and  N_7
REMARK    7  A    between atoms: C_9  and  C_10
REMARK    8  A    between atoms: C_11  and  C_12
REMARK    9  A    between atoms: N_14  and  C_15
REMARK                            x       y       z     vdW  Elec       q    Type
REMARK                         _______ _______ _______ _____ _____    ______ ____
ROOT
ATOM      1  C   UNL     1      -0.148  13.874  22.147  0.00  0.00    +0.000 C 
ATOM      2  C   UNL     1      -0.804  12.720  21.978  0.00  0.00    +0.000 C 
ATOM      3  C   UNL     1      -1.804  12.623  23.065  0.00  0.00    +0.000 C 
ATOM      4  O   UNL     1      -2.605  11.724  23.239  0.00  0.00    +0.000 OA
ATOM      5  N   UNL     1      -1.674  13.731  23.823  0.00  0.00    +0.000 N 
ATOM      6  C   UNL     1      -0.700  14.535  23.342  0.00  0.00    +0.000 C 
ATOM      7  O   UNL     1      -0.367  15.607  23.808  0.00  0.00    +0.000 OA
ATOM      8  H   UNL     1      -2.232  13.940  24.632  0.00  0.00    +0.000 HD
ENDROOT
BRANCH   1  11
ATOM      9  N   UNL     1       2.827  14.931  20.659  0.00  0.00    +0.000 N 
ATOM     10  N   UNL     1       2.189  14.205  21.602  0.00  0.00    +0.000 NA
ATOM     11  C   UNL     1       0.892  14.439  21.371  0.00  0.00    +0.000 A 
ATOM     12  C   UNL     1       0.702  15.309  20.260  0.00  0.00    +0.000 A 
ATOM     13  C   UNL     1      -0.404  15.859  19.581  0.00  0.00    +0.000 A 
ATOM     14  C   UNL     1      -0.182  16.713  18.495  0.00  0.00    +0.000 A 
ATOM     15  C   UNL     1       1.113  17.018  18.083  0.00  0.00    +0.000 A 
ATOM     16  C   UNL     1       2.225  16.474  18.733  0.00  0.00    +0.000 A 
ATOM     17  C   UNL     1       1.987  15.623  19.822  0.00  0.00    +0.000 A 
BRANCH   9  18
ATOM     18  C   UNL     1       4.275  14.874  20.601  0.00  0.00    +0.000 C 
BRANCH  18  19
ATOM     19  C   UNL     1       4.939  15.710  21.695  0.00  0.00    +0.000 C 
BRANCH  19  20
ATOM     20  C   UNL     1       5.398  14.874  22.900  0.00  0.00    +0.000 C 
BRANCH  20  22
ATOM     21  C   UNL     1       5.518  15.029  25.326  0.00  0.00    +0.000 C 
ATOM     22  N   UNL     1       4.672  15.190  24.143  0.00  0.00    +0.000 NA
ATOM     23  C   UNL     1       4.161  16.564  24.087  0.00  0.00    +0.000 C 
ENDBRANCH  20  22
ENDBRANCH  19  20
ENDBRANCH  18  19
ENDBRANCH   9  18
ENDBRANCH   1  11
BRANCH   2  24
ATOM     24  C   UNL     1      -0.651  11.747  20.960  0.00  0.00    +0.000 A 
ATOM     25  C   UNL     1       0.370  10.828  20.907  0.00  0.00    +0.000 A 
ATOM     26  N   UNL     1       0.246  10.090  19.743  0.00  0.00    +0.000 N 
ATOM     27  C   UNL     1      -0.914  10.500  19.079  0.00  0.00    +0.000 A 
ATOM     28  C   UNL     1      -1.559  10.016  17.921  0.00  0.00    +0.000 A 
ATOM     29  C   UNL     1      -2.745  10.623  17.502  0.00  0.00    +0.000 A 
ATOM     30  C   UNL     1      -3.303  11.670  18.222  0.00  0.00    +0.000 A 
ATOM     31  C   UNL     1      -2.687  12.130  19.388  0.00  0.00    +0.000 A 
ATOM     32  C   UNL     1      -1.485  11.538  19.832  0.00  0.00    +0.000 A 
BRANCH  26  33
ATOM     33  C   UNL     1       1.175   9.094  19.337  0.00  0.00    +0.000 A 
ATOM     34  C   UNL     1       1.750   9.132  18.064  0.00  0.00    +0.000 A 
ATOM     35  C   UNL     1       2.657   8.140  17.694  0.00  0.00    +0.000 A 
ATOM     36  C   UNL     1       2.940   7.135  18.604  0.00  0.00    +0.000 A 
ATOM     37  N   UNL     1       2.388   7.058  19.833  0.00  0.00    +0.000 NA
ATOM     38  C   UNL     1       1.515   8.039  20.172  0.00  0.00    +0.000 A 
ENDBRANCH  26  33
ENDBRANCH   2  24
TORSDOF 7
ENDMDL
MODEL 7
REMARK VINA RESULT:      -7.2      1.729      2.080
REMARK  Name = 
REMARK  9 active torsions:
REMARK  status: ('A' for Active; 'I' for Inactive)
REMARK    1  A    between atoms: C_1  and  N_2
REMARK    2  A    between atoms: N_2  and  C_3
REMARK    3  A    between atoms: N_2  and  C_4
REMARK    4  A    between atoms: C_4  and  C_5
REMARK    5  A    between atoms: C_5  and  C_6
REMARK    6  A    between atoms: C_6  and  N_7
REMARK    7  A    between atoms: C_9  and  C_10
REMARK    8  A    between atoms: C_11  and  C_12
REMARK    9  A    between atoms: N_14  and  C_15
REMARK                            x       y       z     vdW  Elec       q    Type
REMARK                         _______ _______ _______ _____ _____    ______ ____
ROOT
ATOM      1  C   UNL     1      -0.238  13.847  22.243  0.00  0.00    +0.000 C 
ATOM      2  C   UNL     1      -0.933  12.730  21.998  0.00  0.00    +0.000 C 
ATOM      3  C   UNL     1      -1.980  12.630  23.041  0.00  0.00    +0.000 C 
ATOM      4  O   UNL     1      -2.823  11.759  23.144  0.00  0.00    +0.000 OA
ATOM      5  N   UNL     1      -1.836  13.699  23.851  0.00  0.00    +0.000 N 
ATOM      6  C   UNL     1      -0.811  14.480  23.443  0.00  0.00    +0.000 C 
ATOM      7  O   UNL     1      -0.454  15.516  23.968  0.00  0.00    +0.000 OA
ATOM      8  H   UNL     1      -2.418  13.896  24.645  0.00  0.00    +0.000 HD
ENDROOT
BRANCH   1  11
ATOM      9  N   UNL     1       2.836  14.884  20.956  0.00  0.00    +0.000 N 
ATOM     10  N   UNL     1       2.132  14.175  21.865  0.00  0.00    +0.000 NA
ATOM     11  C   UNL     1       0.855  14.400  21.534  0.00  0.00    +0.000 A 
ATOM     12  C   UNL     1       0.745  15.246  20.394  0.00  0.00    +0.000 A 
ATOM     13  C   UNL     1      -0.309  15.777  19.625  0.00  0.00    +0.000 A 
ATOM     14  C   UNL     1      -0.009  16.609  18.540  0.00  0.00    +0.000 A 
ATOM     15  C   UNL     1       1.312  16.910  18.218  0.00  0.00    +0.000 A 
ATOM     16  C   UNL     1       2.374  16.384  18.959  0.00  0.00    +0.000 A 
ATOM     17  C   UNL     1       2.058  15.555  20.045  0.00  0.00    +0.000 A 
BRANCH   9  18
ATOM     18  C   UNL     1       4.285  14.830  21.006  0.00  0.00    +0.000 C 
BRANCH  18  19
ATOM     19  C   UNL     1       4.813  14.556  22.415  0.00  0.00    +0.000 C 
BRANCH  19  20
ATOM     20  C   UNL     1       6.347  14.529  22.489  0.00  0.00    +0.000 C 
BRANCH  20  22
ATOM     21  C   UNL     1       6.170  12.278  23.399  0.00  0.00    +0.000 C 
ATOM     22  N   UNL     1       6.868  13.562  23.472  0.00  0.00    +0.000 NA
ATOM     23  C   UNL     1       8.304  13.354  23.254  0.00  0.00    +0.000 C 
ENDBRANCH  20  22
ENDBRANCH  19  20
ENDBRANCH  18  19
ENDBRANCH   9  18
ENDBRANCH   1  11
BRANCH   2  24
ATOM     24  C   UNL     1      -0.779  11.795  20.946  0.00  0.00    +0.000 A 
ATOM     25  C   UNL     1       0.271  10.914  20.833  0.00  0.00    +0.000 A 
ATOM     26  N   UNL     1       0.137  10.209  19.650  0.00  0.00    +0.000 N 
ATOM     27  C   UNL     1      -1.056  10.598  19.035  0.00  0.00    +0.000 A 
ATOM     28  C   UNL     1      -1.719  10.129  17.881  0.00  0.00    +0.000 A 
ATOM     29  C   UNL     1      -2.938  10.707  17.516  0.00  0.00    +0.000 A 
ATOM     30  C   UNL     1      -3.508  11.710  18.286  0.00  0.00    +0.000 A 
ATOM     31  C   UNL     1      -2.874  12.155  19.448  0.00  0.00    +0.000 A 
ATOM     32  C   UNL     1      -1.639  11.592  19.837  0.00  0.00    +0.000 A 
BRANCH  26  33
ATOM     33  C   UNL     1       1.087   9.260  19.185  0.00  0.00    +0.000 A 
ATOM     34  C   UNL     1       1.479   8.188  19.992  0.00  0.00    +0.000 A 
ATOM     35  C   UNL     1       2.413   7.275  19.507  0.00  0.00    +0.000 A 
ATOM     36  C   UNL     1       2.936   7.478  18.241  0.00  0.00    +0.000 A 
ATOM     37  N   UNL     1       2.593   8.511  17.444  0.00  0.00    +0.000 NA
ATOM     38  C   UNL     1       1.677   9.382  17.934  0.00  0.00    +0.000 A 
ENDBRANCH  26  33
ENDBRANCH   2  24
TORSDOF 7
ENDMDL
MODEL 8
REMARK VINA RESULT:      -7.1      3.697      7.513
REMARK  Name = 
REMARK  9 active torsions:
REMARK  status: ('A' for Active; 'I' for Inactive)
REMARK    1  A    between atoms: C_1  and  N_2
REMARK    2  A    between atoms: N_2  and  C_3
REMARK    3  A    between atoms: N_2  and  C_4
REMARK    4  A    between atoms: C_4  and  C_5
REMARK    5  A    between atoms: C_5  and  C_6
REMARK    6  A    between atoms: C_6  and  N_7
REMARK    7  A    between atoms: C_9  and  C_10
REMARK    8  A    between atoms: C_11  and  C_12
REMARK    9  A    between atoms: N_14  and  C_15
REMARK                            x       y       z     vdW  Elec       q    Type
REMARK                         _______ _______ _______ _____ _____    ______ ____
ROOT
ATOM      1  C   UNL     1      -3.126  11.446  18.020  0.00  0.00    +0.000 C 
ATOM      2  C   UNL     1      -4.309  11.934  18.415  0.00  0.00    +0.000 C 
ATOM      3  C   UNL     1      -5.217  11.876  17.246  0.00  0.00    +0.000 C 
ATOM      4  O   UNL     1      -6.385  12.213  17.215  0.00  0.00    +0.000 OA
ATOM      5  N   UNL     1      -4.510  11.359  16.220  0.00  0.00    +0.000 N 
ATOM      6  C   UNL     1      -3.243  11.075  16.599  0.00  0.00    +0.000 C 
ATOM      7  O   UNL     1      -2.382  10.589  15.895  0.00  0.00    +0.000 OA
ATOM      8  H   UNL     1      -4.875  11.196  15.299  0.00  0.00    +0.000 HD
ENDROOT
BRANCH   1  11
ATOM      9  N   UNL     1      -0.435  10.411  19.986  0.00  0.00    +0.000 N 
ATOM     10  N   UNL     1      -1.633  10.150  19.420  0.00  0.00    +0.000 NA
ATOM     11  C   UNL     1      -1.932  11.276  18.760  0.00  0.00    +0.000 A 
ATOM     12  C   UNL     1      -0.908  12.255  18.894  0.00  0.00    +0.000 A 
ATOM     13  C   UNL     1      -0.687  13.563  18.417  0.00  0.00    +0.000 A 
ATOM     14  C   UNL     1       0.483  14.235  18.786  0.00  0.00    +0.000 A 
ATOM     15  C   UNL     1       1.424  13.624  19.612  0.00  0.00    +0.000 A 
ATOM     16  C   UNL     1       1.233  12.324  20.086  0.00  0.00    +0.000 A 
ATOM     17  C   UNL     1       0.054  11.664  19.711  0.00  0.00    +0.000 A 
BRANCH   9  18
ATOM     18  C   UNL     1       0.207   9.366  20.761  0.00  0.00    +0.000 C 
BRANCH  18  19
ATOM     19  C   UNL     1       1.350   8.692  20.002  0.00  0.00    +0.000 C 
BRANCH  19  20
ATOM     20  C   UNL     1       1.698   7.298  20.546  0.00  0.00    +0.000 C 
BRANCH  20  22
ATOM     21  C   UNL     1       2.459   5.116  19.781  0.00  0.00    +0.000 C 
ATOM     22  N   UNL     1       2.660   6.564  19.704  0.00  0.00    +0.000 NA
ATOM     23  C   UNL     1       2.539   7.004  18.310  0.00  0.00    +0.000 C 
ENDBRANCH  20  22
ENDBRANCH  19  20
ENDBRANCH  18  19
ENDBRANCH   9  18
ENDBRANCH   1  11
BRANCH   2  24
ATOM     24  C   UNL     1      -4.700  12.401  19.693  0.00  0.00    +0.000 A 
ATOM     25  C   UNL     1      -4.013  13.340  20.424  0.00  0.00    +0.000 A 
ATOM     26  N   UNL     1      -4.637  13.497  21.649  0.00  0.00    +0.000 N 
ATOM     27  C   UNL     1      -5.783  12.696  21.669  0.00  0.00    +0.000 A 
ATOM     28  C   UNL     1      -6.821  12.557  22.614  0.00  0.00    +0.000 A 
ATOM     29  C   UNL     1      -7.872  11.677  22.343  0.00  0.00    +0.000 A 
ATOM     30  C   UNL     1      -7.916  10.966  21.153  0.00  0.00    +0.000 A 
ATOM     31  C   UNL     1      -6.909  11.124  20.199  0.00  0.00    +0.000 A 
ATOM     32  C   UNL     1      -5.833  12.004  20.449  0.00  0.00    +0.000 A 
BRANCH  26  33
ATOM     33  C   UNL     1      -4.151  14.345  22.681  0.00  0.00    +0.000 A 
ATOM     34  C   UNL     1      -4.094  15.729  22.500  0.00  0.00    +0.000 A 
ATOM     35  C   UNL     1      -3.611  16.533  23.531  0.00  0.00    +0.000 A 
ATOM     36  C   UNL     1      -3.183  15.921  24.697  0.00  0.00    +0.000 A 
ATOM     37  N   UNL     1      -3.206  14.587  24.896  0.00  0.00    +0.000 NA
ATOM     38  C   UNL     1      -3.687  13.827  23.883  0.00  0.00    +0.000 A 
ENDBRANCH  26  33
ENDBRANCH   2  24
TORSDOF 7
ENDMDL
MODEL 9
REMARK VINA RESULT:      -7.1      0.909      1.235
REMARK  Name = 
REMARK  9 active torsions:
REMARK  status: ('A' for Active; 'I' for Inactive)
REMARK    1  A    between atoms: C_1  and  N_2
REMARK    2  A    between atoms: N_2  and  C_3
REMARK    3  A    between atoms: N_2  and  C_4
REMARK    4  A    between atoms: C_4  and  C_5
REMARK    5  A    between atoms: C_5  and  C_6
REMARK    6  A    between atoms: C_6  and  N_7
REMARK    7  A    between atoms: C_9  and  C_10
REMARK    8  A    between atoms: C_11  and  C_12
REMARK    9  A    between atoms: N_14  and  C_15
REMARK                            x       y       z     vdW  Elec       q    Type
REMARK                         _______ _______ _______ _____ _____    ______ ____
ROOT
ATOM      1  C   UNL     1      -0.030  14.248  21.654  0.00  0.00    +0.000 C 
ATOM      2  C   UNL     1      -0.557  13.018  21.701  0.00  0.00    +0.000 C 
ATOM      3  C   UNL     1      -1.295  12.908  22.980  0.00  0.00    +0.000 C 
ATOM      4  O   UNL     1      -1.924  11.946  23.376  0.00  0.00    +0.000 OA
ATOM      5  N   UNL     1      -1.153  14.086  23.622  0.00  0.00    +0.000 N 
ATOM      6  C   UNL     1      -0.406  14.947  22.895  0.00  0.00    +0.000 C 
ATOM      7  O   UNL     1      -0.122  16.085  23.211  0.00  0.00    +0.000 OA
ATOM      8  H   UNL     1      -1.557  14.302  24.516  0.00  0.00    +0.000 HD
ENDROOT
BRANCH   1  11
ATOM      9  N   UNL     1       2.397  15.355  19.404  0.00  0.00    +0.000 N 
ATOM     10  N   UNL     1       2.041  14.562  20.438  0.00  0.00    +0.000 NA
ATOM     11  C   UNL     1       0.751  14.854  20.641  0.00  0.00    +0.000 A 
ATOM     12  C   UNL     1       0.277  15.829  19.718  0.00  0.00    +0.000 A 
ATOM     13  C   UNL     1      -0.952  16.471  19.463  0.00  0.00    +0.000 A 
ATOM     14  C   UNL     1      -1.026  17.416  18.434  0.00  0.00    +0.000 A 
ATOM     15  C   UNL     1       0.095  17.721  17.665  0.00  0.00    +0.000 A 
ATOM     16  C   UNL     1       1.320  17.088  17.891  0.00  0.00    +0.000 A 
ATOM     17  C   UNL     1       1.381  16.146  18.928  0.00  0.00    +0.000 A 
BRANCH   9  18
ATOM     18  C   UNL     1       3.752  15.263  18.895  0.00  0.00    +0.000 C 
BRANCH  18  19
ATOM     19  C   UNL     1       4.581  16.510  19.202  0.00  0.00    +0.000 C 
BRANCH  19  20
ATOM     20  C   UNL     1       6.047  16.194  19.535  0.00  0.00    +0.000 C 
BRANCH  20  22
ATOM     21  C   UNL     1       8.122  17.189  18.742  0.00  0.00    +0.000 C 
ATOM     22  N   UNL     1       6.959  16.374  18.390  0.00  0.00    +0.000 NA
ATOM     23  C   UNL     1       7.405  15.066  17.898  0.00  0.00    +0.000 C 
ENDBRANCH  20  22
ENDBRANCH  19  20
ENDBRANCH  18  19
ENDBRANCH   9  18
ENDBRANCH   1  11
BRANCH   2  24
ATOM     24  C   UNL     1      -0.494  11.983  20.737  0.00  0.00    +0.000 A 
ATOM     25  C   UNL     1       0.548  11.094  20.614  0.00  0.00    +0.000 A 
ATOM     26  N   UNL     1       0.310  10.275  19.525  0.00  0.00    +0.000 N 
ATOM     27  C   UNL     1      -0.940  10.602  18.989  0.00  0.00    +0.000 A 
ATOM     28  C   UNL     1      -1.704  10.020  17.955  0.00  0.00    +0.000 A 
ATOM     29  C   UNL     1      -2.956  10.560  17.651  0.00  0.00    +0.000 A 
ATOM     30  C   UNL     1      -3.460  11.635  18.367  0.00  0.00    +0.000 A 
ATOM     31  C   UNL     1      -2.723  12.194  19.414  0.00  0.00    +0.000 A 
ATOM     32  C   UNL     1      -1.453  11.671  19.739  0.00  0.00    +0.000 A 
BRANCH  26  33
ATOM     33  C   UNL     1       1.219   9.283  19.069  0.00  0.00    +0.000 A 
ATOM     34  C   UNL     1       1.547   8.190  19.877  0.00  0.00    +0.000 A 
ATOM     35  C   UNL     1       2.444   7.235  19.402  0.00  0.00    +0.000 A 
ATOM     36  C   UNL     1       2.995   7.417  18.144  0.00  0.00    +0.000 A 
ATOM     37  N   UNL     1       2.714   8.469  17.348  0.00  0.00    +0.000 NA
ATOM     38  C   UNL     1       1.834   9.381  17.828  0.00  0.00    +0.000 A 
ENDBRANCH  26  33
ENDBRANCH   2  24
TORSDOF 7
ENDMDL
