MODEL 1
REMARK VINA RESULT:      -7.8      0.000      0.000
REMARK  Name = 
REMARK  6 active torsions:
REMARK  status: ('A' for Active; 'I' for Inactive)
REMARK    1  A    between atoms: C_1  and  O_2
REMARK    2  A    between atoms: O_2  and  C_3
REMARK    3  A    between atoms: C_6  and  N_7
REMARK    4  A    between atoms: N_7  and  C_8
REMARK    5  A    between atoms: C_9  and  C_10
REMARK    6  A    between atoms: C_13  and  C_14
REMARK                            x       y       z     vdW  Elec       q    Type
REMARK                         _______ _______ _______ _____ _____    ______ ____
ROOT
ATOM      1  C   UNL     1       3.637   5.423  19.265  0.00  0.00    +0.000 A 
ATOM      2  C   UNL     1       2.374   5.968  19.473  0.00  0.00    +0.000 A 
ATOM      3  N   UNL     1       1.427   4.977  19.709  0.00  0.00    +0.000 NA
ATOM      4  C   UNL     1       2.119   3.862  19.655  0.00  0.00    +0.000 A 
ATOM      5  C   UNL     1       1.665   2.502  19.757  0.00  0.00    +0.000 A 
ATOM      6  N   UNL     1       2.471   1.483  19.691  0.00  0.00    +0.000 NA
ATOM      7  C   UNL     1       3.827   1.763  19.527  0.00  0.00    +0.000 A 
ATOM      8  C   UNL     1       4.323   2.980  19.444  0.00  0.00    +0.000 A 
ATOM      9  N   UNL     1       3.460   4.071  19.469  0.00  0.00    +0.000 N 
ENDROOT
BRANCH   2  10
ATOM     10  C   UNL     1       2.034   7.377  19.392  0.00  0.00    +0.000 A 
ATOM     11  C   UNL     1       1.513   8.060  20.497  0.00  0.00    +0.000 A 
ATOM     12  C   UNL     1       1.137   9.401  20.385  0.00  0.00    +0.000 A 
ATOM     13  C   UNL     1       1.293  10.081  19.173  0.00  0.00    +0.000 A 
ATOM     14  C   UNL     1       0.895  11.522  19.041  0.00  0.00    +0.000 C 
ATOM     15  C   UNL     1       1.839   9.408  18.077  0.00  0.00    +0.000 A 
ATOM     16  C   UNL     1       2.213   8.071  18.191  0.00  0.00    +0.000 A 
ENDBRANCH   2  10
BRANCH   1  17
ATOM     17  N   UNL     1       4.850   5.973  18.908  0.00  0.00    +0.000 N 
ATOM     18  H   UNL     1       4.928   6.980  19.058  0.00  0.00    +0.000 HD
BRANCH  17  22
ATOM     19  C   UNL     1       6.693   5.168  15.183  0.00  0.00    +0.000 A 
ATOM     20  C   UNL     1       5.466   5.817  15.240  0.00  0.00    +0.000 A 
ATOM     21  C   UNL     1       4.897   6.127  16.469  0.00  0.00    +0.000 A 
ATOM     22  C   UNL     1       5.477   5.687  17.666  0.00  0.00    +0.000 A 
ATOM     23  C   UNL     1       6.703   5.017  17.601  0.00  0.00    +0.000 A 
ATOM     24  C   UNL     1       7.306   4.766  16.371  0.00  0.00    +0.000 A 
BRANCH  19  26
ATOM     25  C   UNL     1       6.557   3.990  13.146  0.00  0.00    +0.000 C 
ATOM     26  O   UNL     1       7.204   4.987  13.930  0.00  0.00    +0.000 OA
ENDBRANCH  19  26
ENDBRANCH  17  22
ENDBRANCH   1  17
TORSDOF 4
ENDMDL
MODEL 2
REMARK VINA RESULT:      -7.7      2.725      5.704
REMARK  Name = 
REMARK  6 active torsions:
REMARK  status: ('A' for Active; 'I' for Inactive)
REMARK    1  A    between atoms: C_1  and  O_2
REMARK    2  A    between atoms: O_2  and  C_3
REMARK    3  A    between atoms: C_6  and  N_7
REMARK    4  A    between atoms: N_7  and  C_8
REMARK    5  A    between atoms: C_9  and  C_10
REMARK    6  A    between atoms: C_13  and  C_14
REMARK                            x       y       z     vdW  Elec       q    Type
REMARK                         _______ _______ _______ _____ _____    ______ ____
ROOT
ATOM      1  C   UNL     1       3.253   5.210  19.245  0.00  0.00    +0.000 A 
ATOM      2  C   UNL     1       4.337   4.962  18.409  0.00  0.00    +0.000 A 
ATOM      3  N   UNL     1       4.244   3.709  17.814  0.00  0.00    +0.000 NA
ATOM      4  C   UNL     1       3.115   3.224  18.279  0.00  0.00    +0.000 A 
ATOM      5  C   UNL     1       2.522   1.931  18.068  0.00  0.00    +0.000 A 
ATOM      6  N   UNL     1       1.384   1.583  18.592  0.00  0.00    +0.000 NA
ATOM      7  C   UNL     1       0.734   2.537  19.375  0.00  0.00    +0.000 A 
ATOM      8  C   UNL     1       1.202   3.747  19.600  0.00  0.00    +0.000 A 
ATOM      9  N   UNL     1       2.440   4.108  19.079  0.00  0.00    +0.000 N 
ENDROOT
BRANCH   2  10
ATOM     10  C   UNL     1       5.474   5.844  18.211  0.00  0.00    +0.000 A 
ATOM     11  C   UNL     1       6.672   5.645  18.908  0.00  0.00    +0.000 A 
ATOM     12  C   UNL     1       7.736   6.537  18.750  0.00  0.00    +0.000 A 
ATOM     13  C   UNL     1       7.623   7.628  17.882  0.00  0.00    +0.000 A 
ATOM     14  C   UNL     1       8.760   8.591  17.701  0.00  0.00    +0.000 C 
ATOM     15  C   UNL     1       6.438   7.810  17.165  0.00  0.00    +0.000 A 
ATOM     16  C   UNL     1       5.378   6.920  17.323  0.00  0.00    +0.000 A 
ENDBRANCH   2  10
BRANCH   1  17
ATOM     17  N   UNL     1       2.946   6.242  20.106  0.00  0.00    +0.000 N 
ATOM     18  H   UNL     1       2.539   5.954  20.997  0.00  0.00    +0.000 HD
BRANCH  17  22
ATOM     19  C   UNL     1       0.852   9.715  18.891  0.00  0.00    +0.000 A 
ATOM     20  C   UNL     1       0.797   9.279  20.210  0.00  0.00    +0.000 A 
ATOM     21  C   UNL     1       1.533   8.172  20.610  0.00  0.00    +0.000 A 
ATOM     22  C   UNL     1       2.242   7.400  19.681  0.00  0.00    +0.000 A 
ATOM     23  C   UNL     1       2.277   7.831  18.351  0.00  0.00    +0.000 A 
ATOM     24  C   UNL     1       1.593   8.981  17.964  0.00  0.00    +0.000 A 
BRANCH  19  26
ATOM     25  C   UNL     1      -1.213  10.681  18.293  0.00  0.00    +0.000 C 
ATOM     26  O   UNL     1       0.161  10.861  18.622  0.00  0.00    +0.000 OA
ENDBRANCH  19  26
ENDBRANCH  17  22
ENDBRANCH   1  17
TORSDOF 4
ENDMDL
MODEL 3
REMARK VINA RESULT:      -7.5      0.182      1.373
REMARK  Name = 
REMARK  6 active torsions:
REMARK  status: ('A' for Active; 'I' for Inactive)
REMARK    1  A    between atoms: C_1  and  O_2
REMARK    2  A    between atoms: O_2  and  C_3
REMARK    3  A    between atoms: C_6  and  N_7
REMARK    4  A    between atoms: N_7  and  C_8
REMARK    5  A    between atoms: C_9  and  C_10
REMARK    6  A    between atoms: C_13  and  C_14
REMARK                            x       y       z     vdW  Elec       q    Type
REMARK                         _______ _______ _______ _____ _____    ______ ____
ROOT
ATOM      1  C   UNL     1       3.648   5.405  19.217  0.00  0.00    +0.000 A 
ATOM      2  C   UNL     1       2.383   5.957  19.395  0.00  0.00    +0.000 A 
ATOM      3  N   UNL     1       1.440   4.980  19.694  0.00  0.00    +0.000 NA
ATOM      4  C   UNL     1       2.136   3.866  19.707  0.00  0.00    +0.000 A 
ATOM      5  C   UNL     1       1.687   2.513  19.894  0.00  0.00    +0.000 A 
ATOM      6  N   UNL     1       2.496   1.494  19.888  0.00  0.00    +0.000 NA
ATOM      7  C   UNL     1       3.851   1.768  19.704  0.00  0.00    +0.000 A 
ATOM      8  C   UNL     1       4.342   2.980  19.544  0.00  0.00    +0.000 A 
ATOM      9  N   UNL     1       3.476   4.067  19.505  0.00  0.00    +0.000 N 
ENDROOT
BRANCH   2  10
ATOM     10  C   UNL     1       2.038   7.358  19.228  0.00  0.00    +0.000 A 
ATOM     11  C   UNL     1       2.200   8.001  17.995  0.00  0.00    +0.000 A 
ATOM     12  C   UNL     1       1.918   9.363  17.867  0.00  0.00    +0.000 A 
ATOM     13  C   UNL     1       1.456  10.096  18.965  0.00  0.00    +0.000 A 
ATOM     14  C   UNL     1       1.148  11.560  18.839  0.00  0.00    +0.000 C 
ATOM     15  C   UNL     1       1.267   9.449  20.188  0.00  0.00    +0.000 A 
ATOM     16  C   UNL     1       1.548   8.091  20.314  0.00  0.00    +0.000 A 
ENDBRANCH   2  10
BRANCH   1  17
ATOM     17  N   UNL     1       4.858   5.936  18.824  0.00  0.00    +0.000 N 
ATOM     18  H   UNL     1       4.963   6.938  18.989  0.00  0.00    +0.000 HD
BRANCH  17  22
ATOM     19  C   UNL     1       6.585   5.068  15.057  0.00  0.00    +0.000 A 
ATOM     20  C   UNL     1       7.186   4.627  16.230  0.00  0.00    +0.000 A 
ATOM     21  C   UNL     1       6.581   4.869  17.457  0.00  0.00    +0.000 A 
ATOM     22  C   UNL     1       5.430   5.660  17.553  0.00  0.00    +0.000 A 
ATOM     23  C   UNL     1       4.840   6.118  16.370  0.00  0.00    +0.000 A 
ATOM     24  C   UNL     1       5.410   5.818  15.135  0.00  0.00    +0.000 A 
BRANCH  19  26
ATOM     25  C   UNL     1       6.464   3.858  13.038  0.00  0.00    +0.000 C 
ATOM     26  O   UNL     1       7.215   4.704  13.902  0.00  0.00    +0.000 OA
ENDBRANCH  19  26
ENDBRANCH  17  22
ENDBRANCH   1  17
TORSDOF 4
ENDMDL
MODEL 4
REMARK VINA RESULT:      -7.1      2.737      5.785
REMARK  Name = 
REMARK  6 active torsions:
REMARK  status: ('A' for Active; 'I' for Inactive)
REMARK    1  A    between atoms: C_1  and  O_2
REMARK    2  A    between atoms: O_2  and  C_3
REMARK    3  A    between atoms: C_6  and  N_7
REMARK    4  A    between atoms: N_7  and  C_8
REMARK    5  A    between atoms: C_9  and  C_10
REMARK    6  A    between atoms: C_13  and  C_14
REMARK                            x       y       z     vdW  Elec       q    Type
REMARK                         _______ _______ _______ _____ _____    ______ ____
ROOT
ATOM      1  C   UNL     1       3.174   5.203  19.266  0.00  0.00    +0.000 A 
ATOM      2  C   UNL     1       4.246   5.006  18.401  0.00  0.00    +0.000 A 
ATOM      3  N   UNL     1       4.162   3.776  17.759  0.00  0.00    +0.000 NA
ATOM      4  C   UNL     1       3.050   3.254  18.226  0.00  0.00    +0.000 A 
ATOM      5  C   UNL     1       2.475   1.960  17.975  0.00  0.00    +0.000 A 
ATOM      6  N   UNL     1       1.353   1.573  18.507  0.00  0.00    +0.000 NA
ATOM      7  C   UNL     1       0.703   2.484  19.338  0.00  0.00    +0.000 A 
ATOM      8  C   UNL     1       1.155   3.693  19.602  0.00  0.00    +0.000 A 
ATOM      9  N   UNL     1       2.377   4.094  19.072  0.00  0.00    +0.000 N 
ENDROOT
BRANCH   2  10
ATOM     10  C   UNL     1       5.365   5.914  18.217  0.00  0.00    +0.000 A 
ATOM     11  C   UNL     1       5.268   7.015  17.358  0.00  0.00    +0.000 A 
ATOM     12  C   UNL     1       6.372   7.845  17.148  0.00  0.00    +0.000 A 
ATOM     13  C   UNL     1       7.581   7.595  17.805  0.00  0.00    +0.000 A 
ATOM     14  C   UNL     1       8.774   8.481  17.590  0.00  0.00    +0.000 C 
ATOM     15  C   UNL     1       7.670   6.513  18.685  0.00  0.00    +0.000 A 
ATOM     16  C   UNL     1       6.568   5.687  18.893  0.00  0.00    +0.000 A 
ENDBRANCH   2  10
BRANCH   1  17
ATOM     17  N   UNL     1       2.868   6.195  20.172  0.00  0.00    +0.000 N 
ATOM     18  H   UNL     1       2.439   5.869  21.040  0.00  0.00    +0.000 HD
BRANCH  17  22
ATOM     19  C   UNL     1       0.841   9.720  18.993  0.00  0.00    +0.000 A 
ATOM     20  C   UNL     1       1.578   8.985  18.072  0.00  0.00    +0.000 A 
ATOM     21  C   UNL     1       2.192   7.800  18.457  0.00  0.00    +0.000 A 
ATOM     22  C   UNL     1       2.190   7.385  19.794  0.00  0.00    +0.000 A 
ATOM     23  C   UNL     1       1.462   8.139  20.721  0.00  0.00    +0.000 A 
ATOM     24  C   UNL     1       0.790   9.291  20.320  0.00  0.00    +0.000 A 
BRANCH  19  26
ATOM     25  C   UNL     1      -0.777  11.397  19.345  0.00  0.00    +0.000 C 
ATOM     26  O   UNL     1       0.207  10.821  18.493  0.00  0.00    +0.000 OA
ENDBRANCH  19  26
ENDBRANCH  17  22
ENDBRANCH   1  17
TORSDOF 4
ENDMDL
MODEL 5
REMARK VINA RESULT:      -7.1      2.864      5.866
REMARK  Name = 
REMARK  6 active torsions:
REMARK  status: ('A' for Active; 'I' for Inactive)
REMARK    1  A    between atoms: C_1  and  O_2
REMARK    2  A    between atoms: O_2  and  C_3
REMARK    3  A    between atoms: C_6  and  N_7
REMARK    4  A    between atoms: N_7  and  C_8
REMARK    5  A    between atoms: C_9  and  C_10
REMARK    6  A    between atoms: C_13  and  C_14
REMARK                            x       y       z     vdW  Elec       q    Type
REMARK                         _______ _______ _______ _____ _____    ______ ____
ROOT
ATOM      1  C   UNL     1       3.792   5.248  17.887  0.00  0.00    +0.000 A 
ATOM      2  C   UNL     1       5.129   5.086  18.237  0.00  0.00    +0.000 A 
ATOM      3  N   UNL     1       5.371   3.814  18.744  0.00  0.00    +0.000 NA
ATOM      4  C   UNL     1       4.199   3.225  18.684  0.00  0.00    +0.000 A 
ATOM      5  C   UNL     1       3.814   1.914  19.133  0.00  0.00    +0.000 A 
ATOM      6  N   UNL     1       2.605   1.451  19.005  0.00  0.00    +0.000 NA
ATOM      7  C   UNL     1       1.674   2.286  18.387  0.00  0.00    +0.000 A 
ATOM      8  C   UNL     1       1.954   3.490  17.932  0.00  0.00    +0.000 A 
ATOM      9  N   UNL     1       3.233   4.007  18.109  0.00  0.00    +0.000 N 
ENDROOT
BRANCH   2  10
ATOM     10  C   UNL     1       6.155   6.112  18.164  0.00  0.00    +0.000 A 
ATOM     11  C   UNL     1       7.308   6.039  18.954  0.00  0.00    +0.000 A 
ATOM     12  C   UNL     1       8.257   7.064  18.915  0.00  0.00    +0.000 A 
ATOM     13  C   UNL     1       8.074   8.165  18.072  0.00  0.00    +0.000 A 
ATOM     14  C   UNL     1       9.087   9.271  18.018  0.00  0.00    +0.000 C 
ATOM     15  C   UNL     1       6.938   8.225  17.262  0.00  0.00    +0.000 A 
ATOM     16  C   UNL     1       5.993   7.202  17.303  0.00  0.00    +0.000 A 
ENDBRANCH   2  10
BRANCH   1  17
ATOM     17  N   UNL     1       3.062   6.329  17.443  0.00  0.00    +0.000 N 
ATOM     18  H   UNL     1       3.515   6.887  16.717  0.00  0.00    +0.000 HD
BRANCH  17  22
ATOM     19  C   UNL     1       1.217   9.017  20.144  0.00  0.00    +0.000 A 
ATOM     20  C   UNL     1       1.653   7.769  20.573  0.00  0.00    +0.000 A 
ATOM     21  C   UNL     1       2.308   6.917  19.692  0.00  0.00    +0.000 A 
ATOM     22  C   UNL     1       2.433   7.238  18.335  0.00  0.00    +0.000 A 
ATOM     23  C   UNL     1       1.975   8.488  17.904  0.00  0.00    +0.000 A 
ATOM     24  C   UNL     1       1.379   9.369  18.803  0.00  0.00    +0.000 A 
BRANCH  19  26
ATOM     25  C   UNL     1      -0.060   9.120  22.122  0.00  0.00    +0.000 C 
ATOM     26  O   UNL     1       0.664   9.809  21.108  0.00  0.00    +0.000 OA
ENDBRANCH  19  26
ENDBRANCH  17  22
ENDBRANCH   1  17
TORSDOF 4
ENDMDL
MODEL 6
REMARK VINA RESULT:      -7.1      4.676      7.963
REMARK  Name = 
REMARK  6 active torsions:
REMARK  status: ('A' for Active; 'I' for Inactive)
REMARK    1  A    between atoms: C_1  and  O_2
REMARK    2  A    between atoms: O_2  and  C_3
REMARK    3  A    between atoms: C_6  and  N_7
REMARK    4  A    between atoms: N_7  and  C_8
REMARK    5  A    between atoms: C_9  and  C_10
REMARK    6  A    between atoms: C_13  and  C_14
REMARK                            x       y       z     vdW  Elec       q    Type
REMARK                         _______ _______ _______ _____ _____    ______ ____
ROOT
ATOM      1  C   UNL     1       0.731   9.953  19.349  0.00  0.00    +0.000 A 
ATOM      2  C   UNL     1       0.659  10.034  20.736  0.00  0.00    +0.000 A 
ATOM      3  N   UNL     1       1.259   8.934  21.340  0.00  0.00    +0.000 NA
ATOM      4  C   UNL     1       1.692   8.217  20.327  0.00  0.00    +0.000 A 
ATOM      5  C   UNL     1       2.337   6.932  20.330  0.00  0.00    +0.000 A 
ATOM      6  N   UNL     1       2.721   6.334  19.241  0.00  0.00    +0.000 NA
ATOM      7  C   UNL     1       2.494   7.006  18.040  0.00  0.00    +0.000 A 
ATOM      8  C   UNL     1       1.927   8.192  17.956  0.00  0.00    +0.000 A 
ATOM      9  N   UNL     1       1.473   8.815  19.114  0.00  0.00    +0.000 N 
ENDROOT
BRANCH   2  10
ATOM     10  C   UNL     1      -0.009  11.079  21.492  0.00  0.00    +0.000 A 
ATOM     11  C   UNL     1       0.330  12.425  21.317  0.00  0.00    +0.000 A 
ATOM     12  C   UNL     1      -0.281  13.413  22.094  0.00  0.00    +0.000 A 
ATOM     13  C   UNL     1      -1.250  13.069  23.042  0.00  0.00    +0.000 A 
ATOM     14  C   UNL     1      -1.916  14.121  23.881  0.00  0.00    +0.000 C 
ATOM     15  C   UNL     1      -1.609  11.728  23.197  0.00  0.00    +0.000 A 
ATOM     16  C   UNL     1      -0.999  10.745  22.421  0.00  0.00    +0.000 A 
ENDBRANCH   2  10
BRANCH   1  17
ATOM     17  N   UNL     1       0.213  10.730  18.335  0.00  0.00    +0.000 N 
ATOM     18  H   UNL     1       0.568  11.687  18.300  0.00  0.00    +0.000 HD
BRANCH  17  22
ATOM     19  C   UNL     1      -3.938  10.972  17.536  0.00  0.00    +0.000 A 
ATOM     20  C   UNL     1      -3.334  11.856  18.423  0.00  0.00    +0.000 A 
ATOM     21  C   UNL     1      -1.962  11.804  18.634  0.00  0.00    +0.000 A 
ATOM     22  C   UNL     1      -1.180  10.793  18.063  0.00  0.00    +0.000 A 
ATOM     23  C   UNL     1      -1.797   9.893  17.187  0.00  0.00    +0.000 A 
ATOM     24  C   UNL     1      -3.161   9.988  16.923  0.00  0.00    +0.000 A 
BRANCH  19  26
ATOM     25  C   UNL     1      -6.117  10.754  18.408  0.00  0.00    +0.000 C 
ATOM     26  O   UNL     1      -5.275  11.163  17.335  0.00  0.00    +0.000 OA
ENDBRANCH  19  26
ENDBRANCH  17  22
ENDBRANCH   1  17
TORSDOF 4
ENDMDL
MODEL 7
REMARK VINA RESULT:      -7.1      4.719      8.037
REMARK  Name = 
REMARK  6 active torsions:
REMARK  status: ('A' for Active; 'I' for Inactive)
REMARK    1  A    between atoms: C_1  and  O_2
REMARK    2  A    between atoms: O_2  and  C_3
REMARK    3  A    between atoms: C_6  and  N_7
REMARK    4  A    between atoms: N_7  and  C_8
REMARK    5  A    between atoms: C_9  and  C_10
REMARK    6  A    between atoms: C_13  and  C_14
REMARK                            x       y       z     vdW  Elec       q    Type
REMARK                         _______ _______ _______ _____ _____    ______ ____
ROOT
ATOM      1  C   UNL     1       0.675  10.057  19.396  0.00  0.00    +0.000 A 
ATOM      2  C   UNL     1       0.629  10.083  20.787  0.00  0.00    +0.000 A 
ATOM      3  N   UNL     1       1.244   8.963  21.336  0.00  0.00    +0.000 NA
ATOM      4  C   UNL     1       1.660   8.289  20.288  0.00  0.00    +0.000 A 
ATOM      5  C   UNL     1       2.309   7.007  20.229  0.00  0.00    +0.000 A 
ATOM      6  N   UNL     1       2.675   6.453  19.110  0.00  0.00    +0.000 NA
ATOM      7  C   UNL     1       2.423   7.171  17.941  0.00  0.00    +0.000 A 
ATOM      8  C   UNL     1       1.851   8.356  17.914  0.00  0.00    +0.000 A 
ATOM      9  N   UNL     1       1.416   8.932  19.104  0.00  0.00    +0.000 N 
ENDROOT
BRANCH   2  10
ATOM     10  C   UNL     1      -0.028  11.095  21.595  0.00  0.00    +0.000 A 
ATOM     11  C   UNL     1      -1.031  10.752  22.509  0.00  0.00    +0.000 A 
ATOM     12  C   UNL     1      -1.693  11.744  23.236  0.00  0.00    +0.000 A 
ATOM     13  C   UNL     1      -1.351  13.090  23.071  0.00  0.00    +0.000 A 
ATOM     14  C   UNL     1      -2.053  14.165  23.848  0.00  0.00    +0.000 C 
ATOM     15  C   UNL     1      -0.331  13.431  22.179  0.00  0.00    +0.000 A 
ATOM     16  C   UNL     1       0.329  12.440  21.456  0.00  0.00    +0.000 A 
ENDBRANCH   2  10
BRANCH   1  17
ATOM     17  N   UNL     1       0.135  10.871  18.423  0.00  0.00    +0.000 N 
ATOM     18  H   UNL     1       0.491  11.828  18.415  0.00  0.00    +0.000 HD
BRANCH  17  22
ATOM     19  C   UNL     1      -4.034  11.034  17.704  0.00  0.00    +0.000 A 
ATOM     20  C   UNL     1      -3.237  10.108  17.042  0.00  0.00    +0.000 A 
ATOM     21  C   UNL     1      -1.880  10.025  17.327  0.00  0.00    +0.000 A 
ATOM     22  C   UNL     1      -1.264  10.944  18.185  0.00  0.00    +0.000 A 
ATOM     23  C   UNL     1      -2.068  11.887  18.835  0.00  0.00    +0.000 A 
ATOM     24  C   UNL     1      -3.440  11.925  18.599  0.00  0.00    +0.000 A 
BRANCH  19  26
ATOM     25  C   UNL     1      -6.221  10.726  18.525  0.00  0.00    +0.000 C 
ATOM     26  O   UNL     1      -5.367  10.975  17.414  0.00  0.00    +0.000 OA
ENDBRANCH  19  26
ENDBRANCH  17  22
ENDBRANCH   1  17
TORSDOF 4
ENDMDL
MODEL 8
REMARK VINA RESULT:      -7.0      5.150      9.273
REMARK  Name = 
REMARK  6 active torsions:
REMARK  status: ('A' for Active; 'I' for Inactive)
REMARK    1  A    between atoms: C_1  and  O_2
REMARK    2  A    between atoms: O_2  and  C_3
REMARK    3  A    between atoms: C_6  and  N_7
REMARK    4  A    between atoms: N_7  and  C_8
REMARK    5  A    between atoms: C_9  and  C_10
REMARK    6  A    between atoms: C_13  and  C_14
REMARK                            x       y       z     vdW  Elec       q    Type
REMARK                         _______ _______ _______ _____ _____    ______ ____
ROOT
ATOM      1  C   UNL     1      -0.234  11.792  19.323  0.00  0.00    +0.000 A 
ATOM      2  C   UNL     1       1.071  11.326  19.195  0.00  0.00    +0.000 A 
ATOM      3  N   UNL     1       1.982  12.375  19.143  0.00  0.00    +0.000 NA
ATOM      4  C   UNL     1       1.231  13.448  19.252  0.00  0.00    +0.000 A 
ATOM      5  C   UNL     1       1.610  14.834  19.195  0.00  0.00    +0.000 A 
ATOM      6  N   UNL     1       0.753  15.804  19.326  0.00  0.00    +0.000 NA
ATOM      7  C   UNL     1      -0.577  15.444  19.542  0.00  0.00    +0.000 A 
ATOM      8  C   UNL     1      -0.999  14.200  19.624  0.00  0.00    +0.000 A 
ATOM      9  N   UNL     1      -0.094  13.159  19.441  0.00  0.00    +0.000 N 
ENDROOT
BRANCH   2  10
ATOM     10  C   UNL     1       1.464   9.935  19.058  0.00  0.00    +0.000 A 
ATOM     11  C   UNL     1       1.347   9.041  20.129  0.00  0.00    +0.000 A 
ATOM     12  C   UNL     1       1.784   7.721  19.998  0.00  0.00    +0.000 A 
ATOM     13  C   UNL     1       2.329   7.272  18.791  0.00  0.00    +0.000 A 
ATOM     14  C   UNL     1       2.801   5.856  18.637  0.00  0.00    +0.000 C 
ATOM     15  C   UNL     1       2.421   8.155  17.712  0.00  0.00    +0.000 A 
ATOM     16  C   UNL     1       1.983   9.471  17.845  0.00  0.00    +0.000 A 
ENDBRANCH   2  10
BRANCH   1  17
ATOM     17  N   UNL     1      -1.461  11.163  19.322  0.00  0.00    +0.000 N 
ATOM     18  H   UNL     1      -1.504  10.300  19.867  0.00  0.00    +0.000 HD
BRANCH  17  22
ATOM     19  C   UNL     1      -3.632  10.442  15.760  0.00  0.00    +0.000 A 
ATOM     20  C   UNL     1      -2.422   9.800  15.994  0.00  0.00    +0.000 A 
ATOM     21  C   UNL     1      -1.746  10.001  17.191  0.00  0.00    +0.000 A 
ATOM     22  C   UNL     1      -2.197  10.939  18.128  0.00  0.00    +0.000 A 
ATOM     23  C   UNL     1      -3.406  11.596  17.878  0.00  0.00    +0.000 A 
ATOM     24  C   UNL     1      -4.118  11.344  16.708  0.00  0.00    +0.000 A 
BRANCH  19  26
ATOM     25  C   UNL     1      -3.394   9.900  13.479  0.00  0.00    +0.000 C 
ATOM     26  O   UNL     1      -4.257  10.110  14.592  0.00  0.00    +0.000 OA
ENDBRANCH  19  26
ENDBRANCH  17  22
ENDBRANCH   1  17
TORSDOF 4
ENDMDL
MODEL 9
REMARK VINA RESULT:      -7.0      2.652      5.448
REMARK  Name = 
REMARK  6 active torsions:
REMARK  status: ('A' for Active; 'I' for Inactive)
REMARK    1  A    between atoms: C_1  and  O_2
REMARK    2  A    between atoms: O_2  and  C_3
REMARK    3  A    between atoms: C_6  and  N_7
REMARK    4  A    between atoms: N_7  and  C_8
REMARK    5  A    between atoms: C_9  and  C_10
REMARK    6  A    between atoms: C_13  and  C_14
REMARK                            x       y       z     vdW  Elec       q    Type
REMARK                         _______ _______ _______ _____ _____    ______ ____
ROOT
ATOM      1  C   UNL     1       3.808   5.437  17.117  0.00  0.00    +0.000 A 
ATOM      2  C   UNL     1       3.925   6.755  17.546  0.00  0.00    +0.000 A 
ATOM      3  N   UNL     1       5.169   7.287  17.224  0.00  0.00    +0.000 NA
ATOM      4  C   UNL     1       5.778   6.303  16.601  0.00  0.00    +0.000 A 
ATOM      5  C   UNL     1       7.121   6.240  16.092  0.00  0.00    +0.000 A 
ATOM      6  N   UNL     1       7.596   5.192  15.485  0.00  0.00    +0.000 NA
ATOM      7  C   UNL     1       6.731   4.110  15.328  0.00  0.00    +0.000 A 
ATOM      8  C   UNL     1       5.484   4.098  15.749  0.00  0.00    +0.000 A 
ATOM      9  N   UNL     1       4.985   5.198  16.439  0.00  0.00    +0.000 N 
ENDROOT
BRANCH   2  10
ATOM     10  C   UNL     1       2.925   7.493  18.299  0.00  0.00    +0.000 A 
ATOM     11  C   UNL     1       2.266   8.594  17.740  0.00  0.00    +0.000 A 
ATOM     12  C   UNL     1       1.350   9.328  18.498  0.00  0.00    +0.000 A 
ATOM     13  C   UNL     1       1.069   8.961  19.818  0.00  0.00    +0.000 A 
ATOM     14  C   UNL     1       0.086   9.740  20.642  0.00  0.00    +0.000 C 
ATOM     15  C   UNL     1       1.705   7.846  20.368  0.00  0.00    +0.000 A 
ATOM     16  C   UNL     1       2.618   7.115  19.610  0.00  0.00    +0.000 A 
ENDBRANCH   2  10
BRANCH   1  17
ATOM     17  N   UNL     1       2.831   4.479  17.279  0.00  0.00    +0.000 N 
ATOM     18  H   UNL     1       1.924   4.714  16.873  0.00  0.00    +0.000 HD
BRANCH  17  22
ATOM     19  C   UNL     1       2.126   2.647  21.031  0.00  0.00    +0.000 A 
ATOM     20  C   UNL     1       3.410   2.711  20.504  0.00  0.00    +0.000 A 
ATOM     21  C   UNL     1       3.639   3.364  19.299  0.00  0.00    +0.000 A 
ATOM     22  C   UNL     1       2.577   3.859  18.532  0.00  0.00    +0.000 A 
ATOM     23  C   UNL     1       1.283   3.775  19.058  0.00  0.00    +0.000 A 
ATOM     24  C   UNL     1       1.064   3.179  20.298  0.00  0.00    +0.000 A 
BRANCH  19  26
ATOM     25  C   UNL     1       0.723   2.083  22.839  0.00  0.00    +0.000 C 
ATOM     26  O   UNL     1       2.023   2.060  22.259  0.00  0.00    +0.000 OA
ENDBRANCH  19  26
ENDBRANCH  17  22
ENDBRANCH   1  17
TORSDOF 4
ENDMDL
