MODEL 1
REMARK VINA RESULT:      -8.2      0.000      0.000
REMARK  Name = 
REMARK  2 active torsions:
REMARK  status: ('A' for Active; 'I' for Inactive)
REMARK    1  A    between atoms: C_5  and  C_6
REMARK    2  A    between atoms: N_17  and  C_18
REMARK                            x       y       z     vdW  Elec       q    Type
REMARK                         _______ _______ _______ _____ _____    ______ ____
ROOT
ATOM      1  O   UNL     1       0.667  10.071  22.479  0.00  0.00    +0.000 OA
ATOM      2  C   UNL     1       0.006  10.480  21.526  0.00  0.00    +0.000 A 
ATOM      3  C   UNL     1      -0.916  11.577  21.615  0.00  0.00    +0.000 A 
ATOM      4  S   UNL     1      -1.175  12.491  23.011  0.00  0.00    +0.000 S 
ATOM      5  C   UNL     1      -2.391  13.454  22.240  0.00  0.00    +0.000 A 
ATOM      6  C   UNL     1      -2.538  13.075  20.911  0.00  0.00    +0.000 A 
ATOM      7  C   UNL     1      -1.671  12.010  20.567  0.00  0.00    +0.000 A 
ATOM      8  N   UNL     1      -1.588  11.438  19.292  0.00  0.00    +0.000 NA
ATOM      9  C   UNL     1      -0.718  10.474  19.207  0.00  0.00    +0.000 A 
ATOM     10  N   UNL     1       0.077   9.960  20.227  0.00  0.00    +0.000 N 
ENDROOT
BRANCH  10  11
ATOM     11  C   UNL     1       0.943   8.860  19.956  0.00  0.00    +0.000 A 
ATOM     12  C   UNL     1       1.059   7.824  20.897  0.00  0.00    +0.000 A 
ATOM     13  C   UNL     1       1.876   6.712  20.670  0.00  0.00    +0.000 A 
ATOM     14  C   UNL     1       2.604   6.711  19.482  0.00  0.00    +0.000 A 
ATOM     15  N   UNL     1       3.500   5.826  18.959  0.00  0.00    +0.000 N 
ATOM     16  C   UNL     1       3.986   6.324  17.778  0.00  0.00    +0.000 A 
ATOM     17  N   UNL     1       4.944   5.647  17.102  0.00  0.00    +0.000 N 
ATOM     18  C   UNL     1       5.542   6.228  15.902  0.00  0.00    +0.000 C 
ATOM     19  C   UNL     1       5.561   5.079  14.899  0.00  0.00    +0.000 C 
ATOM     20  C   UNL     1       5.732   3.852  15.776  0.00  0.00    +0.000 C 
ATOM     21  C   UNL     1       4.916   4.188  17.019  0.00  0.00    +0.000 C 
ATOM     22  N   UNL     1       3.418   7.480  17.497  0.00  0.00    +0.000 NA
ATOM     23  C   UNL     1       2.545   7.727  18.539  0.00  0.00    +0.000 A 
ATOM     24  C   UNL     1       1.675   8.810  18.754  0.00  0.00    +0.000 A 
ATOM     25  H   UNL     1       3.812   4.969  19.388  0.00  0.00    +0.000 HD
ENDBRANCH  10  11
BRANCH   5  26
ATOM     26  C   UNL     1      -3.083  14.513  23.001  0.00  0.00    +0.000 A 
ATOM     27  C   UNL     1      -2.601  14.925  24.255  0.00  0.00    +0.000 A 
ATOM     28  C   UNL     1      -3.255  15.927  24.984  0.00  0.00    +0.000 A 
ATOM     29  C   UNL     1      -4.398  16.529  24.466  0.00  0.00    +0.000 A 
ATOM     30 CL   UNL     1      -5.203  17.759  25.360  0.00  0.00    +0.000 Cl
ATOM     31  C   UNL     1      -4.895  16.139  23.228  0.00  0.00    +0.000 A 
ATOM     32  C   UNL     1      -4.237  15.142  22.501  0.00  0.00    +0.000 A 
ENDBRANCH   5  26
TORSDOF 2
ENDMDL
MODEL 2
REMARK VINA RESULT:      -8.2      4.490     11.561
REMARK  Name = 
REMARK  2 active torsions:
REMARK  status: ('A' for Active; 'I' for Inactive)
REMARK    1  A    between atoms: C_5  and  C_6
REMARK    2  A    between atoms: N_17  and  C_18
REMARK                            x       y       z     vdW  Elec       q    Type
REMARK                         _______ _______ _______ _____ _____    ______ ____
ROOT
ATOM      1  O   UNL     1       0.233  11.238  18.972  0.00  0.00    +0.000 OA
ATOM      2  C   UNL     1       0.487  10.410  19.845  0.00  0.00    +0.000 A 
ATOM      3  C   UNL     1       1.274   9.231  19.613  0.00  0.00    +0.000 A 
ATOM      4  S   UNL     1       2.005   8.851  18.139  0.00  0.00    +0.000 S 
ATOM      5  C   UNL     1       2.623   7.354  18.751  0.00  0.00    +0.000 A 
ATOM      6  C   UNL     1       2.288   7.203  20.091  0.00  0.00    +0.000 A 
ATOM      7  C   UNL     1       1.530   8.298  20.571  0.00  0.00    +0.000 A 
ATOM      8  N   UNL     1       1.071   8.426  21.888  0.00  0.00    +0.000 NA
ATOM      9  C   UNL     1       0.397   9.518  22.103  0.00  0.00    +0.000 A 
ATOM     10  N   UNL     1       0.076  10.510  21.181  0.00  0.00    +0.000 N 
ENDROOT
BRANCH  10  11
ATOM     11  C   UNL     1      -0.719  11.620  21.591  0.00  0.00    +0.000 A 
ATOM     12  C   UNL     1      -0.125  12.886  21.716  0.00  0.00    +0.000 A 
ATOM     13  C   UNL     1      -0.865  14.012  22.092  0.00  0.00    +0.000 A 
ATOM     14  C   UNL     1      -2.211  13.799  22.383  0.00  0.00    +0.000 A 
ATOM     15  N   UNL     1      -3.200  14.640  22.800  0.00  0.00    +0.000 N 
ATOM     16  C   UNL     1      -4.347  13.917  23.004  0.00  0.00    +0.000 A 
ATOM     17  N   UNL     1      -5.454  14.529  23.485  0.00  0.00    +0.000 N 
ATOM     18  C   UNL     1      -6.642  13.742  23.809  0.00  0.00    +0.000 C 
ATOM     19  C   UNL     1      -7.796  14.539  23.205  0.00  0.00    +0.000 C 
ATOM     20  C   UNL     1      -7.319  15.977  23.309  0.00  0.00    +0.000 C 
ATOM     21  C   UNL     1      -5.821  15.873  23.044  0.00  0.00    +0.000 C 
ATOM     22  N   UNL     1      -4.150  12.648  22.708  0.00  0.00    +0.000 NA
ATOM     23  C   UNL     1      -2.832  12.561  22.305  0.00  0.00    +0.000 A 
ATOM     24  C   UNL     1      -2.089  11.450  21.869  0.00  0.00    +0.000 A 
ATOM     25  H   UNL     1      -3.106  15.626  22.990  0.00  0.00    +0.000 HD
ENDBRANCH  10  11
BRANCH   5  26
ATOM     26  C   UNL     1       3.403   6.465  17.868  0.00  0.00    +0.000 A 
ATOM     27  C   UNL     1       3.163   5.080  17.853  0.00  0.00    +0.000 A 
ATOM     28  C   UNL     1       3.903   4.230  17.020  0.00  0.00    +0.000 A 
ATOM     29  C   UNL     1       4.891   4.755  16.193  0.00  0.00    +0.000 A 
ATOM     30 CL   UNL     1       5.801   3.713  15.170  0.00  0.00    +0.000 Cl
ATOM     31  C   UNL     1       5.148   6.121  16.189  0.00  0.00    +0.000 A 
ATOM     32  C   UNL     1       4.404   6.968  17.017  0.00  0.00    +0.000 A 
ENDBRANCH   5  26
TORSDOF 2
ENDMDL
MODEL 3
REMARK VINA RESULT:      -8.2      4.522     11.549
REMARK  Name = 
REMARK  2 active torsions:
REMARK  status: ('A' for Active; 'I' for Inactive)
REMARK    1  A    between atoms: C_5  and  C_6
REMARK    2  A    between atoms: N_17  and  C_18
REMARK                            x       y       z     vdW  Elec       q    Type
REMARK                         _______ _______ _______ _____ _____    ______ ____
ROOT
ATOM      1  O   UNL     1       0.381  11.325  18.588  0.00  0.00    +0.000 OA
ATOM      2  C   UNL     1       0.519  10.492  19.483  0.00  0.00    +0.000 A 
ATOM      3  C   UNL     1       1.279   9.283  19.328  0.00  0.00    +0.000 A 
ATOM      4  S   UNL     1       2.133   8.869  17.932  0.00  0.00    +0.000 S 
ATOM      5  C   UNL     1       2.634   7.353  18.602  0.00  0.00    +0.000 A 
ATOM      6  C   UNL     1       2.166   7.222  19.905  0.00  0.00    +0.000 A 
ATOM      7  C   UNL     1       1.408   8.346  20.309  0.00  0.00    +0.000 A 
ATOM      8  N   UNL     1       0.831   8.498  21.575  0.00  0.00    +0.000 NA
ATOM      9  C   UNL     1       0.181   9.616  21.723  0.00  0.00    +0.000 A 
ATOM     10  N   UNL     1      -0.013  10.614  20.773  0.00  0.00    +0.000 N 
ENDROOT
BRANCH  10  11
ATOM     11  C   UNL     1      -0.802  11.755  21.104  0.00  0.00    +0.000 A 
ATOM     12  C   UNL     1      -2.023  11.966  20.443  0.00  0.00    +0.000 A 
ATOM     13  C   UNL     1      -2.845  13.055  20.747  0.00  0.00    +0.000 A 
ATOM     14  C   UNL     1      -2.364  13.946  21.704  0.00  0.00    +0.000 A 
ATOM     15  N   UNL     1      -2.873  15.104  22.214  0.00  0.00    +0.000 N 
ATOM     16  C   UNL     1      -1.972  15.639  23.098  0.00  0.00    +0.000 A 
ATOM     17  N   UNL     1      -2.230  16.831  23.686  0.00  0.00    +0.000 N 
ATOM     18  C   UNL     1      -1.225  17.456  24.543  0.00  0.00    +0.000 C 
ATOM     19  C   UNL     1      -2.011  17.920  25.766  0.00  0.00    +0.000 C 
ATOM     20  C   UNL     1      -3.383  18.240  25.199  0.00  0.00    +0.000 C 
ATOM     21  C   UNL     1      -3.581  17.174  24.128  0.00  0.00    +0.000 C 
ATOM     22  N   UNL     1      -0.915  14.860  23.207  0.00  0.00    +0.000 NA
ATOM     23  C   UNL     1      -1.151  13.795  22.359  0.00  0.00    +0.000 A 
ATOM     24  C   UNL     1      -0.362  12.663  22.086  0.00  0.00    +0.000 A 
ATOM     25  H   UNL     1      -3.742  15.542  21.949  0.00  0.00    +0.000 HD
ENDBRANCH  10  11
BRANCH   5  26
ATOM     26  C   UNL     1       3.460   6.430  17.800  0.00  0.00    +0.000 A 
ATOM     27  C   UNL     1       4.516   6.917  17.011  0.00  0.00    +0.000 A 
ATOM     28  C   UNL     1       5.302   6.046  16.244  0.00  0.00    +0.000 A 
ATOM     29  C   UNL     1       5.041   4.680  16.258  0.00  0.00    +0.000 A 
ATOM     30 CL   UNL     1       6.005   3.610  15.316  0.00  0.00    +0.000 Cl
ATOM     31  C   UNL     1       4.003   4.173  17.030  0.00  0.00    +0.000 A 
ATOM     32  C   UNL     1       3.223   5.044  17.798  0.00  0.00    +0.000 A 
ENDBRANCH   5  26
TORSDOF 2
ENDMDL
MODEL 4
REMARK VINA RESULT:      -8.1      2.366      3.802
REMARK  Name = 
REMARK  2 active torsions:
REMARK  status: ('A' for Active; 'I' for Inactive)
REMARK    1  A    between atoms: C_5  and  C_6
REMARK    2  A    between atoms: N_17  and  C_18
REMARK                            x       y       z     vdW  Elec       q    Type
REMARK                         _______ _______ _______ _____ _____    ______ ____
ROOT
ATOM      1  O   UNL     1       1.922   9.087  17.539  0.00  0.00    +0.000 OA
ATOM      2  C   UNL     1       1.787   8.727  18.708  0.00  0.00    +0.000 A 
ATOM      3  C   UNL     1       1.158   9.533  19.716  0.00  0.00    +0.000 A 
ATOM      4  S   UNL     1       0.468  11.047  19.430  0.00  0.00    +0.000 S 
ATOM      5  C   UNL     1       0.056  11.254  21.099  0.00  0.00    +0.000 A 
ATOM      6  C   UNL     1       0.421  10.129  21.831  0.00  0.00    +0.000 A 
ATOM      7  C   UNL     1       1.035   9.147  21.017  0.00  0.00    +0.000 A 
ATOM      8  N   UNL     1       1.486   7.906  21.480  0.00  0.00    +0.000 NA
ATOM      9  C   UNL     1       2.015   7.162  20.552  0.00  0.00    +0.000 A 
ATOM     10  N   UNL     1       2.194   7.484  19.210  0.00  0.00    +0.000 N 
ENDROOT
BRANCH  10  11
ATOM     11  C   UNL     1       2.842   6.554  18.345  0.00  0.00    +0.000 A 
ATOM     12  C   UNL     1       2.499   5.194  18.413  0.00  0.00    +0.000 A 
ATOM     13  C   UNL     1       3.087   4.244  17.571  0.00  0.00    +0.000 A 
ATOM     14  C   UNL     1       4.066   4.713  16.697  0.00  0.00    +0.000 A 
ATOM     15  N   UNL     1       4.850   4.080  15.777  0.00  0.00    +0.000 N 
ATOM     16  C   UNL     1       5.704   4.992  15.214  0.00  0.00    +0.000 A 
ATOM     17  N   UNL     1       6.629   4.584  14.314  0.00  0.00    +0.000 N 
ATOM     18  C   UNL     1       7.612   5.532  13.794  0.00  0.00    +0.000 C 
ATOM     19  C   UNL     1       7.628   5.270  12.291  0.00  0.00    +0.000 C 
ATOM     20  C   UNL     1       7.311   3.789  12.191  0.00  0.00    +0.000 C 
ATOM     21  C   UNL     1       6.308   3.564  13.316  0.00  0.00    +0.000 C 
ATOM     22  N   UNL     1       5.485   6.195  15.706  0.00  0.00    +0.000 NA
ATOM     23  C   UNL     1       4.459   6.041  16.618  0.00  0.00    +0.000 A 
ATOM     24  C   UNL     1       3.817   6.994  17.429  0.00  0.00    +0.000 A 
ATOM     25  H   UNL     1       4.855   3.093  15.576  0.00  0.00    +0.000 HD
ENDBRANCH  10  11
BRANCH   5  26
ATOM     26  C   UNL     1      -0.611  12.493  21.544  0.00  0.00    +0.000 A 
ATOM     27  C   UNL     1      -1.153  12.589  22.837  0.00  0.00    +0.000 A 
ATOM     28  C   UNL     1      -1.790  13.762  23.265  0.00  0.00    +0.000 A 
ATOM     29  C   UNL     1      -1.892  14.851  22.405  0.00  0.00    +0.000 A 
ATOM     30 CL   UNL     1      -2.675  16.291  22.928  0.00  0.00    +0.000 Cl
ATOM     31  C   UNL     1      -1.364  14.781  21.121  0.00  0.00    +0.000 A 
ATOM     32  C   UNL     1      -0.724  13.611  20.699  0.00  0.00    +0.000 A 
ENDBRANCH   5  26
TORSDOF 2
ENDMDL
MODEL 5
REMARK VINA RESULT:      -8.1      4.563     11.424
REMARK  Name = 
REMARK  2 active torsions:
REMARK  status: ('A' for Active; 'I' for Inactive)
REMARK    1  A    between atoms: C_5  and  C_6
REMARK    2  A    between atoms: N_17  and  C_18
REMARK                            x       y       z     vdW  Elec       q    Type
REMARK                         _______ _______ _______ _____ _____    ______ ____
ROOT
ATOM      1  O   UNL     1       0.191  11.247  18.582  0.00  0.00    +0.000 OA
ATOM      2  C   UNL     1       0.390  10.453  19.501  0.00  0.00    +0.000 A 
ATOM      3  C   UNL     1       1.186   9.265  19.361  0.00  0.00    +0.000 A 
ATOM      4  S   UNL     1       2.002   8.827  17.950  0.00  0.00    +0.000 S 
ATOM      5  C   UNL     1       2.579   7.355  18.655  0.00  0.00    +0.000 A 
ATOM      6  C   UNL     1       2.164   7.257  19.979  0.00  0.00    +0.000 A 
ATOM      7  C   UNL     1       1.381   8.370  20.369  0.00  0.00    +0.000 A 
ATOM      8  N   UNL     1       0.846   8.550  21.650  0.00  0.00    +0.000 NA
ATOM      9  C   UNL     1       0.163   9.650  21.782  0.00  0.00    +0.000 A 
ATOM     10  N   UNL     1      -0.099  10.605  20.804  0.00  0.00    +0.000 N 
ENDROOT
BRANCH  10  11
ATOM     11  C   UNL     1      -0.914  11.731  21.123  0.00  0.00    +0.000 A 
ATOM     12  C   UNL     1      -0.479  12.644  22.098  0.00  0.00    +0.000 A 
ATOM     13  C   UNL     1      -1.229  13.777  22.430  0.00  0.00    +0.000 A 
ATOM     14  C   UNL     1      -2.451  13.924  21.778  0.00  0.00    +0.000 A 
ATOM     15  N   UNL     1      -3.431  14.868  21.874  0.00  0.00    +0.000 N 
ATOM     16  C   UNL     1      -4.472  14.518  21.053  0.00  0.00    +0.000 A 
ATOM     17  N   UNL     1      -5.595  15.274  21.027  0.00  0.00    +0.000 N 
ATOM     18  C   UNL     1      -6.747  14.845  20.237  0.00  0.00    +0.000 C 
ATOM     19  C   UNL     1      -7.193  16.109  19.507  0.00  0.00    +0.000 C 
ATOM     20  C   UNL     1      -6.826  17.219  20.475  0.00  0.00    +0.000 C 
ATOM     21  C   UNL     1      -5.521  16.732  21.095  0.00  0.00    +0.000 C 
ATOM     22  N   UNL     1      -4.194  13.405  20.405  0.00  0.00    +0.000 NA
ATOM     23  C   UNL     1      -2.935  13.031  20.833  0.00  0.00    +0.000 A 
ATOM     24  C   UNL     1      -2.144  11.928  20.466  0.00  0.00    +0.000 A 
ATOM     25  H   UNL     1      -3.433  15.666  22.489  0.00  0.00    +0.000 HD
ENDBRANCH  10  11
BRANCH   5  26
ATOM     26  C   UNL     1       3.407   6.431  17.856  0.00  0.00    +0.000 A 
ATOM     27  C   UNL     1       4.457   6.918  17.060  0.00  0.00    +0.000 A 
ATOM     28  C   UNL     1       5.245   6.045  16.296  0.00  0.00    +0.000 A 
ATOM     29  C   UNL     1       4.992   4.678  16.321  0.00  0.00    +0.000 A 
ATOM     30 CL   UNL     1       5.957   3.606  15.383  0.00  0.00    +0.000 Cl
ATOM     31  C   UNL     1       3.959   4.171  17.101  0.00  0.00    +0.000 A 
ATOM     32  C   UNL     1       3.178   5.043  17.866  0.00  0.00    +0.000 A 
ENDBRANCH   5  26
TORSDOF 2
ENDMDL
MODEL 6
REMARK VINA RESULT:      -8.0      1.659      2.047
REMARK  Name = 
REMARK  2 active torsions:
REMARK  status: ('A' for Active; 'I' for Inactive)
REMARK    1  A    between atoms: C_5  and  C_6
REMARK    2  A    between atoms: N_17  and  C_18
REMARK                            x       y       z     vdW  Elec       q    Type
REMARK                         _______ _______ _______ _____ _____    ______ ____
ROOT
ATOM      1  O   UNL     1      -0.066   9.761  18.945  0.00  0.00    +0.000 OA
ATOM      2  C   UNL     1      -0.016   9.869  20.170  0.00  0.00    +0.000 A 
ATOM      3  C   UNL     1      -0.689  10.905  20.901  0.00  0.00    +0.000 A 
ATOM      4  S   UNL     1      -1.684  12.073  20.196  0.00  0.00    +0.000 S 
ATOM      5  C   UNL     1      -1.966  12.852  21.717  0.00  0.00    +0.000 A 
ATOM      6  C   UNL     1      -1.321  12.166  22.740  0.00  0.00    +0.000 A 
ATOM      7  C   UNL     1      -0.609  11.043  22.254  0.00  0.00    +0.000 A 
ATOM      8  N   UNL     1       0.117  10.158  23.059  0.00  0.00    +0.000 NA
ATOM      9  C   UNL     1       0.688   9.195  22.395  0.00  0.00    +0.000 A 
ATOM     10  N   UNL     1       0.671   8.991  21.018  0.00  0.00    +0.000 N 
ENDROOT
BRANCH  10  11
ATOM     11  C   UNL     1       1.402   7.900  20.461  0.00  0.00    +0.000 A 
ATOM     12  C   UNL     1       1.292   6.627  21.044  0.00  0.00    +0.000 A 
ATOM     13  C   UNL     1       1.968   5.520  20.523  0.00  0.00    +0.000 A 
ATOM     14  C   UNL     1       2.792   5.757  19.425  0.00  0.00    +0.000 A 
ATOM     15  N   UNL     1       3.603   4.938  18.695  0.00  0.00    +0.000 N 
ATOM     16  C   UNL     1       4.254   5.682  17.746  0.00  0.00    +0.000 A 
ATOM     17  N   UNL     1       5.168   5.095  16.938  0.00  0.00    +0.000 N 
ATOM     18  C   UNL     1       5.943   5.905  16.000  0.00  0.00    +0.000 C 
ATOM     19  C   UNL     1       5.896   5.116  14.695  0.00  0.00    +0.000 C 
ATOM     20  C   UNL     1       5.821   3.673  15.161  0.00  0.00    +0.000 C 
ATOM     21  C   UNL     1       4.950   3.749  16.410  0.00  0.00    +0.000 C 
ATOM     22  N   UNL     1       3.875   6.943  17.808  0.00  0.00    +0.000 NA
ATOM     23  C   UNL     1       2.955   7.003  18.836  0.00  0.00    +0.000 A 
ATOM     24  C   UNL     1       2.224   8.096  19.335  0.00  0.00    +0.000 A 
ATOM     25  H   UNL     1       3.757   3.955  18.854  0.00  0.00    +0.000 HD
ENDBRANCH  10  11
BRANCH   5  26
ATOM     26  C   UNL     1      -2.814  14.059  21.780  0.00  0.00    +0.000 A 
ATOM     27  C   UNL     1      -2.516  15.185  20.995  0.00  0.00    +0.000 A 
ATOM     28  C   UNL     1      -3.316  16.335  21.053  0.00  0.00    +0.000 A 
ATOM     29  C   UNL     1      -4.422  16.370  21.896  0.00  0.00    +0.000 A 
ATOM     30 CL   UNL     1      -5.403  17.781  21.970  0.00  0.00    +0.000 Cl
ATOM     31  C   UNL     1      -4.738  15.269  22.683  0.00  0.00    +0.000 A 
ATOM     32  C   UNL     1      -3.941  14.121  22.619  0.00  0.00    +0.000 A 
ENDBRANCH   5  26
TORSDOF 2
ENDMDL
MODEL 7
REMARK VINA RESULT:      -7.7      4.534     11.381
REMARK  Name = 
REMARK  2 active torsions:
REMARK  status: ('A' for Active; 'I' for Inactive)
REMARK    1  A    between atoms: C_5  and  C_6
REMARK    2  A    between atoms: N_17  and  C_18
REMARK                            x       y       z     vdW  Elec       q    Type
REMARK                         _______ _______ _______ _____ _____    ______ ____
ROOT
ATOM      1  O   UNL     1       0.815  10.129  22.267  0.00  0.00    +0.000 OA
ATOM      2  C   UNL     1       0.999  10.256  21.057  0.00  0.00    +0.000 A 
ATOM      3  C   UNL     1       1.396   9.174  20.200  0.00  0.00    +0.000 A 
ATOM      4  S   UNL     1       1.604   7.580  20.715  0.00  0.00    +0.000 S 
ATOM      5  C   UNL     1       2.102   7.062  19.139  0.00  0.00    +0.000 A 
ATOM      6  C   UNL     1       2.053   8.123  18.242  0.00  0.00    +0.000 A 
ATOM      7  C   UNL     1       1.629   9.321  18.866  0.00  0.00    +0.000 A 
ATOM      8  N   UNL     1       1.468  10.543  18.203  0.00  0.00    +0.000 NA
ATOM      9  C   UNL     1       1.066  11.509  18.978  0.00  0.00    +0.000 A 
ATOM     10  N   UNL     1       0.822  11.450  20.347  0.00  0.00    +0.000 N 
ENDROOT
BRANCH  10  11
ATOM     11  C   UNL     1       0.430  12.632  21.042  0.00  0.00    +0.000 A 
ATOM     12  C   UNL     1       1.350  13.683  21.189  0.00  0.00    +0.000 A 
ATOM     13  C   UNL     1       1.009  14.872  21.840  0.00  0.00    +0.000 A 
ATOM     14  C   UNL     1      -0.274  14.938  22.378  0.00  0.00    +0.000 A 
ATOM     15  N   UNL     1      -0.920  15.907  23.088  0.00  0.00    +0.000 N 
ATOM     16  C   UNL     1      -2.164  15.451  23.440  0.00  0.00    +0.000 A 
ATOM     17  N   UNL     1      -2.972  16.218  24.209  0.00  0.00    +0.000 N 
ATOM     18  C   UNL     1      -4.252  15.691  24.678  0.00  0.00    +0.000 C 
ATOM     19  C   UNL     1      -5.240  16.826  24.426  0.00  0.00    +0.000 C 
ATOM     20  C   UNL     1      -4.390  18.073  24.597  0.00  0.00    +0.000 C 
ATOM     21  C   UNL     1      -3.041  17.665  24.016  0.00  0.00    +0.000 C 
ATOM     22  N   UNL     1      -2.363  14.239  22.961  0.00  0.00    +0.000 NA
ATOM     23  C   UNL     1      -1.204  13.912  22.285  0.00  0.00    +0.000 A 
ATOM     24  C   UNL     1      -0.867  12.746  21.576  0.00  0.00    +0.000 A 
ATOM     25  H   UNL     1      -0.538  16.796  23.369  0.00  0.00    +0.000 HD
ENDBRANCH  10  11
BRANCH   5  26
ATOM     26  C   UNL     1       2.477   5.652  18.912  0.00  0.00    +0.000 A 
ATOM     27  C   UNL     1       3.444   5.030  19.720  0.00  0.00    +0.000 A 
ATOM     28  C   UNL     1       3.807   3.693  19.507  0.00  0.00    +0.000 A 
ATOM     29  C   UNL     1       3.207   2.964  18.485  0.00  0.00    +0.000 A 
ATOM     30 CL   UNL     1       3.653   1.323  18.222  0.00  0.00    +0.000 Cl
ATOM     31  C   UNL     1       2.248   3.556  17.673  0.00  0.00    +0.000 A 
ATOM     32  C   UNL     1       1.883   4.889  17.891  0.00  0.00    +0.000 A 
ENDBRANCH   5  26
TORSDOF 2
ENDMDL
MODEL 8
REMARK VINA RESULT:      -7.7      4.572     11.337
REMARK  Name = 
REMARK  2 active torsions:
REMARK  status: ('A' for Active; 'I' for Inactive)
REMARK    1  A    between atoms: C_5  and  C_6
REMARK    2  A    between atoms: N_17  and  C_18
REMARK                            x       y       z     vdW  Elec       q    Type
REMARK                         _______ _______ _______ _____ _____    ______ ____
ROOT
ATOM      1  O   UNL     1       0.572  10.937  18.800  0.00  0.00    +0.000 OA
ATOM      2  C   UNL     1       0.773  10.037  19.614  0.00  0.00    +0.000 A 
ATOM      3  C   UNL     1       1.556   8.868  19.325  0.00  0.00    +0.000 A 
ATOM      4  S   UNL     1       2.355   8.597  17.862  0.00  0.00    +0.000 S 
ATOM      5  C   UNL     1       2.925   7.046  18.379  0.00  0.00    +0.000 A 
ATOM      6  C   UNL     1       2.522   6.793  19.686  0.00  0.00    +0.000 A 
ATOM      7  C   UNL     1       1.754   7.857  20.216  0.00  0.00    +0.000 A 
ATOM      8  N   UNL     1       1.232   7.886  21.514  0.00  0.00    +0.000 NA
ATOM      9  C   UNL     1       0.561   8.968  21.785  0.00  0.00    +0.000 A 
ATOM     10  N   UNL     1       0.298  10.036  20.932  0.00  0.00    +0.000 N 
ENDROOT
BRANCH  10  11
ATOM     11  C   UNL     1      -0.503  11.122  21.392  0.00  0.00    +0.000 A 
ATOM     12  C   UNL     1      -1.230  10.985  22.586  0.00  0.00    +0.000 A 
ATOM     13  C   UNL     1      -2.012  12.027  23.094  0.00  0.00    +0.000 A 
ATOM     14  C   UNL     1      -2.069  13.189  22.326  0.00  0.00    +0.000 A 
ATOM     15  N   UNL     1      -2.740  14.365  22.496  0.00  0.00    +0.000 N 
ATOM     16  C   UNL     1      -2.507  15.173  21.413  0.00  0.00    +0.000 A 
ATOM     17  N   UNL     1      -3.122  16.375  21.324  0.00  0.00    +0.000 N 
ATOM     18  C   UNL     1      -2.963  17.191  20.122  0.00  0.00    +0.000 C 
ATOM     19  C   UNL     1      -2.693  18.596  20.655  0.00  0.00    +0.000 C 
ATOM     20  C   UNL     1      -3.469  18.630  21.959  0.00  0.00    +0.000 C 
ATOM     21  C   UNL     1      -3.305  17.216  22.506  0.00  0.00    +0.000 C 
ATOM     22  N   UNL     1      -1.688  14.584  20.566  0.00  0.00    +0.000 NA
ATOM     23  C   UNL     1      -1.394  13.356  21.126  0.00  0.00    +0.000 A 
ATOM     24  C   UNL     1      -0.566  12.321  20.658  0.00  0.00    +0.000 A 
ATOM     25  H   UNL     1      -3.359  14.595  23.257  0.00  0.00    +0.000 HD
ENDBRANCH  10  11
BRANCH   5  26
ATOM     26  C   UNL     1       3.737   6.218  17.466  0.00  0.00    +0.000 A 
ATOM     27  C   UNL     1       3.621   4.818  17.475  0.00  0.00    +0.000 A 
ATOM     28  C   UNL     1       4.392   4.026  16.613  0.00  0.00    +0.000 A 
ATOM     29  C   UNL     1       5.287   4.626  15.733  0.00  0.00    +0.000 A 
ATOM     30 CL   UNL     1       6.235   3.656  14.675  0.00  0.00    +0.000 Cl
ATOM     31  C   UNL     1       5.420   6.009  15.704  0.00  0.00    +0.000 A 
ATOM     32  C   UNL     1       4.645   6.797  16.562  0.00  0.00    +0.000 A 
ENDBRANCH   5  26
TORSDOF 2
ENDMDL
MODEL 9
REMARK VINA RESULT:      -7.7      4.683     11.344
REMARK  Name = 
REMARK  2 active torsions:
REMARK  status: ('A' for Active; 'I' for Inactive)
REMARK    1  A    between atoms: C_5  and  C_6
REMARK    2  A    between atoms: N_17  and  C_18
REMARK                            x       y       z     vdW  Elec       q    Type
REMARK                         _______ _______ _______ _____ _____    ______ ____
ROOT
ATOM      1  O   UNL     1       0.980   9.961  22.295  0.00  0.00    +0.000 OA
ATOM      2  C   UNL     1       0.730  10.221  21.118  0.00  0.00    +0.000 A 
ATOM      3  C   UNL     1       1.190   9.423  20.017  0.00  0.00    +0.000 A 
ATOM      4  S   UNL     1       2.078   7.996  20.181  0.00  0.00    +0.000 S 
ATOM      5  C   UNL     1       2.215   7.800  18.466  0.00  0.00    +0.000 A 
ATOM      6  C   UNL     1       1.535   8.818  17.806  0.00  0.00    +0.000 A 
ATOM      7  C   UNL     1       0.940   9.727  18.713  0.00  0.00    +0.000 A 
ATOM      8  N   UNL     1       0.176  10.837  18.332  0.00  0.00    +0.000 NA
ATOM      9  C   UNL     1      -0.275  11.531  19.337  0.00  0.00    +0.000 A 
ATOM     10  N   UNL     1      -0.052  11.301  20.692  0.00  0.00    +0.000 N 
ENDROOT
BRANCH  10  11
ATOM     11  C   UNL     1      -0.592  12.204  21.655  0.00  0.00    +0.000 A 
ATOM     12  C   UNL     1      -1.803  11.890  22.293  0.00  0.00    +0.000 A 
ATOM     13  C   UNL     1      -2.363  12.729  23.262  0.00  0.00    +0.000 A 
ATOM     14  C   UNL     1      -1.679  13.914  23.524  0.00  0.00    +0.000 A 
ATOM     15  N   UNL     1      -1.943  14.956  24.364  0.00  0.00    +0.000 N 
ATOM     16  C   UNL     1      -0.981  15.918  24.201  0.00  0.00    +0.000 A 
ATOM     17  N   UNL     1      -1.067  17.082  24.887  0.00  0.00    +0.000 N 
ATOM     18  C   UNL     1      -0.106  18.153  24.634  0.00  0.00    +0.000 C 
ATOM     19  C   UNL     1       0.298  18.630  26.026  0.00  0.00    +0.000 C 
ATOM     20  C   UNL     1      -0.953  18.395  26.853  0.00  0.00    +0.000 C 
ATOM     21  C   UNL     1      -1.522  17.104  26.276  0.00  0.00    +0.000 C 
ATOM     22  N   UNL     1      -0.087  15.530  23.314  0.00  0.00    +0.000 NA
ATOM     23  C   UNL     1      -0.498  14.280  22.896  0.00  0.00    +0.000 A 
ATOM     24  C   UNL     1       0.084  13.399  21.966  0.00  0.00    +0.000 A 
ATOM     25  H   UNL     1      -2.745  15.046  24.969  0.00  0.00    +0.000 HD
ENDBRANCH  10  11
BRANCH   5  26
ATOM     26  C   UNL     1       2.961   6.653  17.914  0.00  0.00    +0.000 A 
ATOM     27  C   UNL     1       4.206   6.841  17.291  0.00  0.00    +0.000 A 
ATOM     28  C   UNL     1       4.917   5.756  16.761  0.00  0.00    +0.000 A 
ATOM     29  C   UNL     1       4.392   4.471  16.849  0.00  0.00    +0.000 A 
ATOM     30 CL   UNL     1       5.263   3.137  16.199  0.00  0.00    +0.000 Cl
ATOM     31  C   UNL     1       3.162   4.258  17.461  0.00  0.00    +0.000 A 
ATOM     32  C   UNL     1       2.457   5.342  17.993  0.00  0.00    +0.000 A 
ENDBRANCH   5  26
TORSDOF 2
ENDMDL
