MODEL 1
REMARK VINA RESULT:      -8.1      0.000      0.000
REMARK  Name = 
REMARK  2 active torsions:
REMARK  status: ('A' for Active; 'I' for Inactive)
REMARK    1  A    between atoms: O_1  and  C_2
REMARK    2  A    between atoms: C_3  and  C_4
REMARK                            x       y       z     vdW  Elec       q    Type
REMARK                         _______ _______ _______ _____ _____    ______ ____
ROOT
ATOM      1  C   UNL     1       4.526   4.140  17.086  0.00  0.00    +0.000 A 
ATOM      2  C   UNL     1       4.553   4.582  18.369  0.00  0.00    +0.000 A 
ATOM      3  N   UNL     1       5.558   5.419  18.829  0.00  0.00    +0.000 NA
ATOM      4  N   UNL     1       6.501   5.804  18.079  0.00  0.00    +0.000 NA
ATOM      5  C   UNL     1       6.569   5.403  16.775  0.00  0.00    +0.000 A 
ATOM      6  N   UNL     1       7.466   5.689  15.853  0.00  0.00    +0.000 NA
ATOM      7  C   UNL     1       7.050   5.039  14.721  0.00  0.00    +0.000 A 
ATOM      8  C   UNL     1       7.640   5.017  13.446  0.00  0.00    +0.000 A 
ATOM      9  C   UNL     1       7.028   4.280  12.428  0.00  0.00    +0.000 A 
ATOM     10  C   UNL     1       5.848   3.571  12.672  0.00  0.00    +0.000 A 
ATOM     11  C   UNL     1       5.249   3.580  13.938  0.00  0.00    +0.000 A 
ATOM     12  C   UNL     1       5.875   4.327  14.944  0.00  0.00    +0.000 A 
ATOM     13  N   UNL     1       5.579   4.568  16.273  0.00  0.00    +0.000 N 
ENDROOT
BRANCH   2  14
ATOM     14  C   UNL     1       3.526   4.183  19.354  0.00  0.00    +0.000 A 
ATOM     15  C   UNL     1       2.383   4.974  19.546  0.00  0.00    +0.000 A 
ATOM     16  C   UNL     1       1.422   4.613  20.497  0.00  0.00    +0.000 A 
ATOM     17  C   UNL     1       1.589   3.455  21.254  0.00  0.00    +0.000 A 
ATOM     18  C   UNL     1       2.714   2.656  21.063  0.00  0.00    +0.000 A 
ATOM     19  C   UNL     1       3.686   3.023  20.126  0.00  0.00    +0.000 A 
ENDBRANCH   2  14
BRANCH   1  20
ATOM     20  O   UNL     1       3.546   3.320  16.551  0.00  0.00    +0.000 OA
ATOM     21  H   UNL     1       2.761   3.338  17.128  0.00  0.00    +0.000 HD
ENDBRANCH   1  20
TORSDOF 2
ENDMDL
MODEL 2
REMARK VINA RESULT:      -8.1      0.036      1.080
REMARK  Name = 
REMARK  2 active torsions:
REMARK  status: ('A' for Active; 'I' for Inactive)
REMARK    1  A    between atoms: O_1  and  C_2
REMARK    2  A    between atoms: C_3  and  C_4
REMARK                            x       y       z     vdW  Elec       q    Type
REMARK                         _______ _______ _______ _____ _____    ______ ____
ROOT
ATOM      1  C   UNL     1       4.532   4.174  17.097  0.00  0.00    +0.000 A 
ATOM      2  C   UNL     1       4.564   4.616  18.380  0.00  0.00    +0.000 A 
ATOM      3  N   UNL     1       5.581   5.439  18.840  0.00  0.00    +0.000 NA
ATOM      4  N   UNL     1       6.528   5.811  18.091  0.00  0.00    +0.000 NA
ATOM      5  C   UNL     1       6.591   5.410  16.786  0.00  0.00    +0.000 A 
ATOM      6  N   UNL     1       7.492   5.685  15.864  0.00  0.00    +0.000 NA
ATOM      7  C   UNL     1       7.068   5.041  14.732  0.00  0.00    +0.000 A 
ATOM      8  C   UNL     1       7.657   5.012  13.457  0.00  0.00    +0.000 A 
ATOM      9  C   UNL     1       7.035   4.283  12.439  0.00  0.00    +0.000 A 
ATOM     10  C   UNL     1       5.847   3.590  12.683  0.00  0.00    +0.000 A 
ATOM     11  C   UNL     1       5.247   3.607  13.948  0.00  0.00    +0.000 A 
ATOM     12  C   UNL     1       5.883   4.344  14.955  0.00  0.00    +0.000 A 
ATOM     13  N   UNL     1       5.591   4.589  16.284  0.00  0.00    +0.000 N 
ENDROOT
BRANCH   2  14
ATOM     14  C   UNL     1       3.532   4.230  19.365  0.00  0.00    +0.000 A 
ATOM     15  C   UNL     1       3.669   3.048  20.108  0.00  0.00    +0.000 A 
ATOM     16  C   UNL     1       2.681   2.666  21.022  0.00  0.00    +0.000 A 
ATOM     17  C   UNL     1       1.555   3.467  21.209  0.00  0.00    +0.000 A 
ATOM     18  C   UNL     1       1.415   4.648  20.485  0.00  0.00    +0.000 A 
ATOM     19  C   UNL     1       2.392   5.024  19.557  0.00  0.00    +0.000 A 
ENDBRANCH   2  14
BRANCH   1  20
ATOM     20  O   UNL     1       3.541   3.368  16.562  0.00  0.00    +0.000 OA
ATOM     21  H   UNL     1       3.654   2.458  16.892  0.00  0.00    +0.000 HD
ENDBRANCH   1  20
TORSDOF 2
ENDMDL
MODEL 3
REMARK VINA RESULT:      -7.9      4.802      8.087
REMARK  Name = 
REMARK  2 active torsions:
REMARK  status: ('A' for Active; 'I' for Inactive)
REMARK    1  A    between atoms: O_1  and  C_2
REMARK    2  A    between atoms: C_3  and  C_4
REMARK                            x       y       z     vdW  Elec       q    Type
REMARK                         _______ _______ _______ _____ _____    ______ ____
ROOT
ATOM      1  C   UNL     1       1.875   7.723  19.668  0.00  0.00    +0.000 A 
ATOM      2  C   UNL     1       2.433   7.535  18.445  0.00  0.00    +0.000 A 
ATOM      3  N   UNL     1       2.402   8.523  17.473  0.00  0.00    +0.000 NA
ATOM      4  N   UNL     1       1.847   9.641  17.675  0.00  0.00    +0.000 NA
ATOM      5  C   UNL     1       1.247   9.921  18.870  0.00  0.00    +0.000 A 
ATOM      6  N   UNL     1       0.620  11.013  19.261  0.00  0.00    +0.000 NA
ATOM      7  C   UNL     1       0.224  10.768  20.549  0.00  0.00    +0.000 A 
ATOM      8  C   UNL     1      -0.475  11.605  21.435  0.00  0.00    +0.000 A 
ATOM      9  C   UNL     1      -0.769  11.139  22.720  0.00  0.00    +0.000 A 
ATOM     10  C   UNL     1      -0.378   9.858  23.120  0.00  0.00    +0.000 A 
ATOM     11  C   UNL     1       0.316   9.010  22.249  0.00  0.00    +0.000 A 
ATOM     12  C   UNL     1       0.604   9.495  20.967  0.00  0.00    +0.000 A 
ATOM     13  N   UNL     1       1.260   8.961  19.873  0.00  0.00    +0.000 N 
ENDROOT
BRANCH   2  14
ATOM     14  C   UNL     1       3.087   6.264  18.071  0.00  0.00    +0.000 A 
ATOM     15  C   UNL     1       4.476   6.211  17.879  0.00  0.00    +0.000 A 
ATOM     16  C   UNL     1       5.094   5.016  17.499  0.00  0.00    +0.000 A 
ATOM     17  C   UNL     1       4.334   3.861  17.321  0.00  0.00    +0.000 A 
ATOM     18  C   UNL     1       2.956   3.899  17.521  0.00  0.00    +0.000 A 
ATOM     19  C   UNL     1       2.331   5.097  17.883  0.00  0.00    +0.000 A 
ENDBRANCH   2  14
BRANCH   1  20
ATOM     20  O   UNL     1       1.884   6.792  20.694  0.00  0.00    +0.000 OA
ATOM     21  H   UNL     1       1.600   5.927  20.346  0.00  0.00    +0.000 HD
ENDBRANCH   1  20
TORSDOF 2
ENDMDL
MODEL 4
REMARK VINA RESULT:      -7.9      4.809      8.075
REMARK  Name = 
REMARK  2 active torsions:
REMARK  status: ('A' for Active; 'I' for Inactive)
REMARK    1  A    between atoms: O_1  and  C_2
REMARK    2  A    between atoms: C_3  and  C_4
REMARK                            x       y       z     vdW  Elec       q    Type
REMARK                         _______ _______ _______ _____ _____    ______ ____
ROOT
ATOM      1  C   UNL     1       1.876   7.732  19.677  0.00  0.00    +0.000 A 
ATOM      2  C   UNL     1       2.433   7.539  18.454  0.00  0.00    +0.000 A 
ATOM      3  N   UNL     1       2.402   8.523  17.478  0.00  0.00    +0.000 NA
ATOM      4  N   UNL     1       1.850   9.642  17.677  0.00  0.00    +0.000 NA
ATOM      5  C   UNL     1       1.251   9.928  18.871  0.00  0.00    +0.000 A 
ATOM      6  N   UNL     1       0.626  11.022  19.259  0.00  0.00    +0.000 NA
ATOM      7  C   UNL     1       0.231  10.783  20.548  0.00  0.00    +0.000 A 
ATOM      8  C   UNL     1      -0.466  11.625  21.431  0.00  0.00    +0.000 A 
ATOM      9  C   UNL     1      -0.760  11.164  22.718  0.00  0.00    +0.000 A 
ATOM     10  C   UNL     1      -0.371   9.884  23.122  0.00  0.00    +0.000 A 
ATOM     11  C   UNL     1       0.321   9.031  22.254  0.00  0.00    +0.000 A 
ATOM     12  C   UNL     1       0.609   9.511  20.970  0.00  0.00    +0.000 A 
ATOM     13  N   UNL     1       1.263   8.971  19.878  0.00  0.00    +0.000 N 
ENDROOT
BRANCH   2  14
ATOM     14  C   UNL     1       3.084   6.264  18.085  0.00  0.00    +0.000 A 
ATOM     15  C   UNL     1       2.315   5.108  17.883  0.00  0.00    +0.000 A 
ATOM     16  C   UNL     1       2.931   3.895  17.560  0.00  0.00    +0.000 A 
ATOM     17  C   UNL     1       4.317   3.829  17.424  0.00  0.00    +0.000 A 
ATOM     18  C   UNL     1       5.089   4.973  17.610  0.00  0.00    +0.000 A 
ATOM     19  C   UNL     1       4.478   6.185  17.951  0.00  0.00    +0.000 A 
ENDBRANCH   2  14
BRANCH   1  20
ATOM     20  O   UNL     1       1.884   6.804  20.706  0.00  0.00    +0.000 OA
ATOM     21  H   UNL     1       2.677   6.941  21.255  0.00  0.00    +0.000 HD
ENDBRANCH   1  20
TORSDOF 2
ENDMDL
MODEL 5
REMARK VINA RESULT:      -7.7      1.291      6.500
REMARK  Name = 
REMARK  2 active torsions:
REMARK  status: ('A' for Active; 'I' for Inactive)
REMARK    1  A    between atoms: O_1  and  C_2
REMARK    2  A    between atoms: C_3  and  C_4
REMARK                            x       y       z     vdW  Elec       q    Type
REMARK                         _______ _______ _______ _____ _____    ______ ____
ROOT
ATOM      1  C   UNL     1       4.695   4.273  16.893  0.00  0.00    +0.000 A 
ATOM      2  C   UNL     1       5.105   5.186  15.976  0.00  0.00    +0.000 A 
ATOM      3  N   UNL     1       4.851   6.539  16.134  0.00  0.00    +0.000 NA
ATOM      4  N   UNL     1       4.220   6.988  17.135  0.00  0.00    +0.000 NA
ATOM      5  C   UNL     1       3.756   6.146  18.106  0.00  0.00    +0.000 A 
ATOM      6  N   UNL     1       3.082   6.421  19.205  0.00  0.00    +0.000 NA
ATOM      7  C   UNL     1       2.883   5.216  19.825  0.00  0.00    +0.000 A 
ATOM      8  C   UNL     1       2.226   4.942  21.037  0.00  0.00    +0.000 A 
ATOM      9  C   UNL     1       2.149   3.619  21.483  0.00  0.00    +0.000 A 
ATOM     10  C   UNL     1       2.712   2.582  20.734  0.00  0.00    +0.000 A 
ATOM     11  C   UNL     1       3.367   2.837  19.523  0.00  0.00    +0.000 A 
ATOM     12  C   UNL     1       3.437   4.169  19.095  0.00  0.00    +0.000 A 
ATOM     13  N   UNL     1       3.993   4.783  17.988  0.00  0.00    +0.000 N 
ENDROOT
BRANCH   2  14
ATOM     14  C   UNL     1       5.826   4.790  14.748  0.00  0.00    +0.000 A 
ATOM     15  C   UNL     1       7.109   5.294  14.486  0.00  0.00    +0.000 A 
ATOM     16  C   UNL     1       7.782   4.943  13.312  0.00  0.00    +0.000 A 
ATOM     17  C   UNL     1       7.186   4.077  12.396  0.00  0.00    +0.000 A 
ATOM     18  C   UNL     1       5.918   3.562  12.652  0.00  0.00    +0.000 A 
ATOM     19  C   UNL     1       5.233   3.925  13.816  0.00  0.00    +0.000 A 
ENDBRANCH   2  14
BRANCH   1  20
ATOM     20  O   UNL     1       4.928   2.910  16.812  0.00  0.00    +0.000 OA
ATOM     21  H   UNL     1       5.153   2.569  17.697  0.00  0.00    +0.000 HD
ENDBRANCH   1  20
TORSDOF 2
ENDMDL
MODEL 6
REMARK VINA RESULT:      -7.7      1.294      6.493
REMARK  Name = 
REMARK  2 active torsions:
REMARK  status: ('A' for Active; 'I' for Inactive)
REMARK    1  A    between atoms: O_1  and  C_2
REMARK    2  A    between atoms: C_3  and  C_4
REMARK                            x       y       z     vdW  Elec       q    Type
REMARK                         _______ _______ _______ _____ _____    ______ ____
ROOT
ATOM      1  C   UNL     1       4.688   4.282  16.897  0.00  0.00    +0.000 A 
ATOM      2  C   UNL     1       5.091   5.205  15.986  0.00  0.00    +0.000 A 
ATOM      3  N   UNL     1       4.833   6.556  16.158  0.00  0.00    +0.000 NA
ATOM      4  N   UNL     1       4.204   6.993  17.164  0.00  0.00    +0.000 NA
ATOM      5  C   UNL     1       3.747   6.141  18.130  0.00  0.00    +0.000 A 
ATOM      6  N   UNL     1       3.076   6.404  19.234  0.00  0.00    +0.000 NA
ATOM      7  C   UNL     1       2.884   5.193  19.845  0.00  0.00    +0.000 A 
ATOM      8  C   UNL     1       2.233   4.906  21.056  0.00  0.00    +0.000 A 
ATOM      9  C   UNL     1       2.162   3.579  21.490  0.00  0.00    +0.000 A 
ATOM     10  C   UNL     1       2.725   2.550  20.731  0.00  0.00    +0.000 A 
ATOM     11  C   UNL     1       3.375   2.818  19.520  0.00  0.00    +0.000 A 
ATOM     12  C   UNL     1       3.439   4.154  19.103  0.00  0.00    +0.000 A 
ATOM     13  N   UNL     1       3.989   4.780  17.999  0.00  0.00    +0.000 N 
ENDROOT
BRANCH   2  14
ATOM     14  C   UNL     1       5.808   4.822  14.752  0.00  0.00    +0.000 A 
ATOM     15  C   UNL     1       5.214   3.949  13.829  0.00  0.00    +0.000 A 
ATOM     16  C   UNL     1       5.902   3.564  12.673  0.00  0.00    +0.000 A 
ATOM     17  C   UNL     1       7.181   4.058  12.424  0.00  0.00    +0.000 A 
ATOM     18  C   UNL     1       7.776   4.935  13.328  0.00  0.00    +0.000 A 
ATOM     19  C   UNL     1       7.099   5.308  14.494  0.00  0.00    +0.000 A 
ENDBRANCH   2  14
BRANCH   1  20
ATOM     20  O   UNL     1       4.926   2.921  16.803  0.00  0.00    +0.000 OA
ATOM     21  H   UNL     1       5.864   2.772  16.585  0.00  0.00    +0.000 HD
ENDBRANCH   1  20
TORSDOF 2
ENDMDL
MODEL 7
REMARK VINA RESULT:      -6.9      1.185      6.408
REMARK  Name = 
REMARK  2 active torsions:
REMARK  status: ('A' for Active; 'I' for Inactive)
REMARK    1  A    between atoms: O_1  and  C_2
REMARK    2  A    between atoms: C_3  and  C_4
REMARK                            x       y       z     vdW  Elec       q    Type
REMARK                         _______ _______ _______ _____ _____    ______ ____
ROOT
ATOM      1  C   UNL     1       4.941   4.193  16.286  0.00  0.00    +0.000 A 
ATOM      2  C   UNL     1       6.234   4.365  15.910  0.00  0.00    +0.000 A 
ATOM      3  N   UNL     1       7.243   4.549  16.842  0.00  0.00    +0.000 NA
ATOM      4  N   UNL     1       7.008   4.572  18.085  0.00  0.00    +0.000 NA
ATOM      5  C   UNL     1       5.737   4.420  18.561  0.00  0.00    +0.000 A 
ATOM      6  N   UNL     1       5.299   4.422  19.805  0.00  0.00    +0.000 NA
ATOM      7  C   UNL     1       3.948   4.217  19.719  0.00  0.00    +0.000 A 
ATOM      8  C   UNL     1       3.000   4.123  20.752  0.00  0.00    +0.000 A 
ATOM      9  C   UNL     1       1.659   3.902  20.423  0.00  0.00    +0.000 A 
ATOM     10  C   UNL     1       1.263   3.780  19.089  0.00  0.00    +0.000 A 
ATOM     11  C   UNL     1       2.194   3.874  18.047  0.00  0.00    +0.000 A 
ATOM     12  C   UNL     1       3.534   4.092  18.396  0.00  0.00    +0.000 A 
ATOM     13  N   UNL     1       4.697   4.229  17.662  0.00  0.00    +0.000 N 
ENDROOT
BRANCH   2  14
ATOM     14  C   UNL     1       6.638   4.387  14.489  0.00  0.00    +0.000 A 
ATOM     15  C   UNL     1       7.566   5.334  14.031  0.00  0.00    +0.000 A 
ATOM     16  C   UNL     1       7.930   5.375  12.681  0.00  0.00    +0.000 A 
ATOM     17  C   UNL     1       7.380   4.463  11.781  0.00  0.00    +0.000 A 
ATOM     18  C   UNL     1       6.467   3.511  12.227  0.00  0.00    +0.000 A 
ATOM     19  C   UNL     1       6.086   3.479  13.573  0.00  0.00    +0.000 A 
ENDBRANCH   2  14
BRANCH   1  20
ATOM     20  O   UNL     1       3.884   3.985  15.415  0.00  0.00    +0.000 OA
ATOM     21  H   UNL     1       3.071   3.825  15.928  0.00  0.00    +0.000 HD
ENDBRANCH   1  20
TORSDOF 2
ENDMDL
MODEL 8
REMARK VINA RESULT:      -6.9      1.204      6.433
REMARK  Name = 
REMARK  2 active torsions:
REMARK  status: ('A' for Active; 'I' for Inactive)
REMARK    1  A    between atoms: O_1  and  C_2
REMARK    2  A    between atoms: C_3  and  C_4
REMARK                            x       y       z     vdW  Elec       q    Type
REMARK                         _______ _______ _______ _____ _____    ______ ____
ROOT
ATOM      1  C   UNL     1       4.876   4.163  16.288  0.00  0.00    +0.000 A 
ATOM      2  C   UNL     1       6.172   4.340  15.925  0.00  0.00    +0.000 A 
ATOM      3  N   UNL     1       7.175   4.502  16.868  0.00  0.00    +0.000 NA
ATOM      4  N   UNL     1       6.931   4.500  18.109  0.00  0.00    +0.000 NA
ATOM      5  C   UNL     1       5.656   4.341  18.574  0.00  0.00    +0.000 A 
ATOM      6  N   UNL     1       5.210   4.318  19.814  0.00  0.00    +0.000 NA
ATOM      7  C   UNL     1       3.858   4.117  19.714  0.00  0.00    +0.000 A 
ATOM      8  C   UNL     1       2.902   4.004  20.738  0.00  0.00    +0.000 A 
ATOM      9  C   UNL     1       1.563   3.793  20.395  0.00  0.00    +0.000 A 
ATOM     10  C   UNL     1       1.177   3.700  19.055  0.00  0.00    +0.000 A 
ATOM     11  C   UNL     1       2.116   3.814  18.023  0.00  0.00    +0.000 A 
ATOM     12  C   UNL     1       3.453   4.022  18.385  0.00  0.00    +0.000 A 
ATOM     13  N   UNL     1       4.622   4.171  17.663  0.00  0.00    +0.000 N 
ENDROOT
BRANCH   2  14
ATOM     14  C   UNL     1       6.586   4.390  14.508  0.00  0.00    +0.000 A 
ATOM     15  C   UNL     1       6.043   3.491  13.578  0.00  0.00    +0.000 A 
ATOM     16  C   UNL     1       6.453   3.518  12.241  0.00  0.00    +0.000 A 
ATOM     17  C   UNL     1       7.398   4.452  11.819  0.00  0.00    +0.000 A 
ATOM     18  C   UNL     1       7.935   5.358  12.731  0.00  0.00    +0.000 A 
ATOM     19  C   UNL     1       7.542   5.321  14.073  0.00  0.00    +0.000 A 
ENDBRANCH   2  14
BRANCH   1  20
ATOM     20  O   UNL     1       3.825   3.975  15.406  0.00  0.00    +0.000 OA
ATOM     21  H   UNL     1       3.681   3.021  15.275  0.00  0.00    +0.000 HD
ENDBRANCH   1  20
TORSDOF 2
ENDMDL
MODEL 9
REMARK VINA RESULT:      -6.9      2.095      6.633
REMARK  Name = 
REMARK  2 active torsions:
REMARK  status: ('A' for Active; 'I' for Inactive)
REMARK    1  A    between atoms: O_1  and  C_2
REMARK    2  A    between atoms: C_3  and  C_4
REMARK                            x       y       z     vdW  Elec       q    Type
REMARK                         _______ _______ _______ _____ _____    ______ ____
ROOT
ATOM      1  C   UNL     1       4.701   5.775  16.107  0.00  0.00    +0.000 A 
ATOM      2  C   UNL     1       5.315   4.622  15.735  0.00  0.00    +0.000 A 
ATOM      3  N   UNL     1       5.267   3.486  16.527  0.00  0.00    +0.000 NA
ATOM      4  N   UNL     1       4.658   3.469  17.635  0.00  0.00    +0.000 NA
ATOM      5  C   UNL     1       4.019   4.583  18.102  0.00  0.00    +0.000 A 
ATOM      6  N   UNL     1       3.346   4.759  19.221  0.00  0.00    +0.000 NA
ATOM      7  C   UNL     1       2.904   6.055  19.184  0.00  0.00    +0.000 A 
ATOM      8  C   UNL     1       2.130   6.754  20.126  0.00  0.00    +0.000 A 
ATOM      9  C   UNL     1       1.791   8.086  19.871  0.00  0.00    +0.000 A 
ATOM     10  C   UNL     1       2.217   8.718  18.699  0.00  0.00    +0.000 A 
ATOM     11  C   UNL     1       2.991   8.037  17.751  0.00  0.00    +0.000 A 
ATOM     12  C   UNL     1       3.318   6.702  18.023  0.00  0.00    +0.000 A 
ATOM     13  N   UNL     1       4.038   5.742  17.337  0.00  0.00    +0.000 N 
ENDROOT
BRANCH   2  14
ATOM     14  C   UNL     1       6.084   4.518  14.478  0.00  0.00    +0.000 A 
ATOM     15  C   UNL     1       7.251   5.275  14.297  0.00  0.00    +0.000 A 
ATOM     16  C   UNL     1       7.967   5.199  13.097  0.00  0.00    +0.000 A 
ATOM     17  C   UNL     1       7.531   4.358  12.075  0.00  0.00    +0.000 A 
ATOM     18  C   UNL     1       6.380   3.593  12.249  0.00  0.00    +0.000 A 
ATOM     19  C   UNL     1       5.651   3.680  13.440  0.00  0.00    +0.000 A 
ENDBRANCH   2  14
BRANCH   1  20
ATOM     20  O   UNL     1       4.688   6.942  15.361  0.00  0.00    +0.000 OA
ATOM     21  H   UNL     1       3.974   6.893  14.700  0.00  0.00    +0.000 HD
ENDBRANCH   1  20
TORSDOF 2
ENDMDL
