MODEL 1
REMARK VINA RESULT:      -8.3      0.000      0.000
REMARK  Name = 
REMARK  6 active torsions:
REMARK  status: ('A' for Active; 'I' for Inactive)
REMARK    1  A    between atoms: C_1  and  O_2
REMARK    2  A    between atoms: O_2  and  C_3
REMARK    3  A    between atoms: C_6  and  C_7
REMARK    4  A    between atoms: C_8  and  C_9
REMARK    5  A    between atoms: C_14  and  N_15
REMARK    6  A    between atoms: C_16  and  C_18
REMARK                            x       y       z     vdW  Elec       q    Type
REMARK                         _______ _______ _______ _____ _____    ______ ____
ROOT
ATOM      1  C   UNL     1       2.604   7.433  18.427  0.00  0.00    +0.000 A 
ATOM      2  C   UNL     1       2.007   8.451  17.665  0.00  0.00    +0.000 A 
ATOM      3  C   UNL     1       1.213   9.452  18.240  0.00  0.00    +0.000 A 
ATOM      4  C   UNL     1       0.907   9.422  19.603  0.00  0.00    +0.000 A 
ATOM      5  C   UNL     1       0.089  10.389  20.207  0.00  0.00    +0.000 A 
ATOM      6  C   UNL     1      -0.227  10.265  21.557  0.00  0.00    +0.000 A 
ATOM      7  N   UNL     1       0.239   9.253  22.305  0.00  0.00    +0.000 NA
ATOM      8  C   UNL     1       1.045   8.342  21.719  0.00  0.00    +0.000 A 
ATOM      9  C   UNL     1       1.420   8.375  20.379  0.00  0.00    +0.000 A 
ATOM     10  C   UNL     1       2.277   7.415  19.798  0.00  0.00    +0.000 A 
ENDROOT
BRANCH   1  16
ATOM     11  C   UNL     1       5.740   5.933  16.844  0.00  0.00    +0.000 A 
ATOM     12  C   UNL     1       5.381   4.611  16.644  0.00  0.00    +0.000 A 
ATOM     13  C   UNL     1       4.112   4.180  17.018  0.00  0.00    +0.000 A 
ATOM     14  C   UNL     1       3.166   5.062  17.580  0.00  0.00    +0.000 A 
ATOM     15  C   UNL     1       1.802   4.480  17.850  0.00  0.00    +0.000 C 
ATOM     16  C   UNL     1       3.525   6.410  17.842  0.00  0.00    +0.000 A 
ATOM     17  C   UNL     1       4.839   6.800  17.472  0.00  0.00    +0.000 A 
BRANCH  11  19
ATOM     18  C   UNL     1       7.487   7.412  17.428  0.00  0.00    +0.000 C 
ATOM     19  O   UNL     1       6.948   6.477  16.495  0.00  0.00    +0.000 OA
ENDBRANCH  11  19
ENDBRANCH   1  16
BRANCH   6  20
ATOM     20  N   UNL     1      -1.070  11.234  22.120  0.00  0.00    +0.000 N 
ATOM     21  C   UNL     1      -0.716  12.540  22.356  0.00  0.00    +0.000 C 
ATOM     22  O   UNL     1       0.345  13.092  22.097  0.00  0.00    +0.000 OA
ATOM     23  H   UNL     1      -1.997  10.935  22.378  0.00  0.00    +0.000 HD
BRANCH  21  24
ATOM     24  C   UNL     1      -1.813  13.339  22.990  0.00  0.00    +0.000 C 
ATOM     25  C   UNL     1      -2.614  14.316  22.161  0.00  0.00    +0.000 C 
ATOM     26  C   UNL     1      -3.248  13.038  22.627  0.00  0.00    +0.000 C 
ENDBRANCH  21  24
ENDBRANCH   6  20
TORSDOF 4
ENDMDL
MODEL 2
REMARK VINA RESULT:      -8.2      1.683      2.690
REMARK  Name = 
REMARK  6 active torsions:
REMARK  status: ('A' for Active; 'I' for Inactive)
REMARK    1  A    between atoms: C_1  and  O_2
REMARK    2  A    between atoms: O_2  and  C_3
REMARK    3  A    between atoms: C_6  and  C_7
REMARK    4  A    between atoms: C_8  and  C_9
REMARK    5  A    between atoms: C_14  and  N_15
REMARK    6  A    between atoms: C_16  and  C_18
REMARK                            x       y       z     vdW  Elec       q    Type
REMARK                         _______ _______ _______ _____ _____    ______ ____
ROOT
ATOM      1  C   UNL     1       2.289   7.198  18.469  0.00  0.00    +0.000 A 
ATOM      2  C   UNL     1       1.848   8.251  17.652  0.00  0.00    +0.000 A 
ATOM      3  C   UNL     1       1.340   9.448  18.177  0.00  0.00    +0.000 A 
ATOM      4  C   UNL     1       1.168   9.603  19.555  0.00  0.00    +0.000 A 
ATOM      5  C   UNL     1       0.632  10.773  20.114  0.00  0.00    +0.000 A 
ATOM      6  C   UNL     1       0.429  10.838  21.489  0.00  0.00    +0.000 A 
ATOM      7  N   UNL     1       0.742   9.818  22.302  0.00  0.00    +0.000 NA
ATOM      8  C   UNL     1       1.279   8.706  21.755  0.00  0.00    +0.000 A 
ATOM      9  C   UNL     1       1.522   8.540  20.396  0.00  0.00    +0.000 A 
ATOM     10  C   UNL     1       2.099   7.371  19.855  0.00  0.00    +0.000 A 
ENDROOT
BRANCH   1  16
ATOM     11  C   UNL     1       2.703   3.518  17.535  0.00  0.00    +0.000 A 
ATOM     12  C   UNL     1       3.982   3.477  17.006  0.00  0.00    +0.000 A 
ATOM     13  C   UNL     1       4.737   4.644  16.943  0.00  0.00    +0.000 A 
ATOM     14  C   UNL     1       4.241   5.874  17.426  0.00  0.00    +0.000 A 
ATOM     15  C   UNL     1       5.201   7.034  17.380  0.00  0.00    +0.000 C 
ATOM     16  C   UNL     1       2.915   5.953  17.927  0.00  0.00    +0.000 A 
ATOM     17  C   UNL     1       2.170   4.745  17.945  0.00  0.00    +0.000 A 
BRANCH  11  19
ATOM     18  C   UNL     1       0.955   2.502  18.756  0.00  0.00    +0.000 C 
ATOM     19  O   UNL     1       1.878   2.433  17.671  0.00  0.00    +0.000 OA
ENDBRANCH  11  19
ENDBRANCH   1  16
BRANCH   6  20
ATOM     20  N   UNL     1      -0.135  12.012  22.009  0.00  0.00    +0.000 N 
ATOM     21  C   UNL     1      -1.216  12.055  22.855  0.00  0.00    +0.000 C 
ATOM     22  O   UNL     1      -1.844  11.115  23.324  0.00  0.00    +0.000 OA
ATOM     23  H   UNL     1       0.286  12.883  21.725  0.00  0.00    +0.000 HD
BRANCH  21  24
ATOM     24  C   UNL     1      -1.614  13.450  23.228  0.00  0.00    +0.000 C 
ATOM     25  C   UNL     1      -2.722  14.147  22.472  0.00  0.00    +0.000 C 
ATOM     26  C   UNL     1      -2.957  13.683  23.879  0.00  0.00    +0.000 C 
ENDBRANCH  21  24
ENDBRANCH   6  20
TORSDOF 4
ENDMDL
MODEL 3
REMARK VINA RESULT:      -8.2      1.010      1.738
REMARK  Name = 
REMARK  6 active torsions:
REMARK  status: ('A' for Active; 'I' for Inactive)
REMARK    1  A    between atoms: C_1  and  O_2
REMARK    2  A    between atoms: O_2  and  C_3
REMARK    3  A    between atoms: C_6  and  C_7
REMARK    4  A    between atoms: C_8  and  C_9
REMARK    5  A    between atoms: C_14  and  N_15
REMARK    6  A    between atoms: C_16  and  C_18
REMARK                            x       y       z     vdW  Elec       q    Type
REMARK                         _______ _______ _______ _____ _____    ______ ____
ROOT
ATOM      1  C   UNL     1       2.952   6.918  18.582  0.00  0.00    +0.000 A 
ATOM      2  C   UNL     1       2.544   6.671  19.903  0.00  0.00    +0.000 A 
ATOM      3  C   UNL     1       1.618   7.487  20.568  0.00  0.00    +0.000 A 
ATOM      4  C   UNL     1       1.126   8.645  19.962  0.00  0.00    +0.000 A 
ATOM      5  C   UNL     1       0.224   9.503  20.609  0.00  0.00    +0.000 A 
ATOM      6  C   UNL     1      -0.178  10.673  19.973  0.00  0.00    +0.000 A 
ATOM      7  N   UNL     1       0.262  11.003  18.749  0.00  0.00    +0.000 NA
ATOM      8  C   UNL     1       1.112  10.158  18.125  0.00  0.00    +0.000 A 
ATOM      9  C   UNL     1       1.574   8.966  18.673  0.00  0.00    +0.000 A 
ATOM     10  C   UNL     1       2.451   8.096  17.991  0.00  0.00    +0.000 A 
ENDROOT
BRANCH   1  16
ATOM     11  C   UNL     1       6.077   5.709  16.749  0.00  0.00    +0.000 A 
ATOM     12  C   UNL     1       5.718   4.437  16.336  0.00  0.00    +0.000 A 
ATOM     13  C   UNL     1       4.453   3.946  16.644  0.00  0.00    +0.000 A 
ATOM     14  C   UNL     1       3.510   4.721  17.351  0.00  0.00    +0.000 A 
ATOM     15  C   UNL     1       2.149   4.099  17.532  0.00  0.00    +0.000 C 
ATOM     16  C   UNL     1       3.870   6.009  17.829  0.00  0.00    +0.000 A 
ATOM     17  C   UNL     1       5.180   6.458  17.518  0.00  0.00    +0.000 A 
BRANCH  11  19
ATOM     18  C   UNL     1       7.635   7.376  17.359  0.00  0.00    +0.000 C 
ATOM     19  O   UNL     1       7.280   6.307  16.484  0.00  0.00    +0.000 OA
ENDBRANCH  11  19
ENDBRANCH   1  16
BRANCH   6  20
ATOM     20  N   UNL     1      -1.059  11.520  20.661  0.00  0.00    +0.000 N 
ATOM     21  C   UNL     1      -0.677  12.487  21.559  0.00  0.00    +0.000 C 
ATOM     22  O   UNL     1       0.459  12.803  21.887  0.00  0.00    +0.000 OA
ATOM     23  H   UNL     1      -2.043  11.392  20.486  0.00  0.00    +0.000 HD
BRANCH  21  24
ATOM     24  C   UNL     1      -1.835  13.220  22.160  0.00  0.00    +0.000 C 
ATOM     25  C   UNL     1      -2.594  12.615  23.318  0.00  0.00    +0.000 C 
ATOM     26  C   UNL     1      -1.700  13.797  23.550  0.00  0.00    +0.000 C 
ENDBRANCH  21  24
ENDBRANCH   6  20
TORSDOF 4
ENDMDL
MODEL 4
REMARK VINA RESULT:      -8.1      0.988      1.161
REMARK  Name = 
REMARK  6 active torsions:
REMARK  status: ('A' for Active; 'I' for Inactive)
REMARK    1  A    between atoms: C_1  and  O_2
REMARK    2  A    between atoms: O_2  and  C_3
REMARK    3  A    between atoms: C_6  and  C_7
REMARK    4  A    between atoms: C_8  and  C_9
REMARK    5  A    between atoms: C_14  and  N_15
REMARK    6  A    between atoms: C_16  and  C_18
REMARK                            x       y       z     vdW  Elec       q    Type
REMARK                         _______ _______ _______ _____ _____    ______ ____
ROOT
ATOM      1  C   UNL     1       2.527   7.215  18.451  0.00  0.00    +0.000 A 
ATOM      2  C   UNL     1       2.107   8.239  17.587  0.00  0.00    +0.000 A 
ATOM      3  C   UNL     1       1.439   9.383  18.046  0.00  0.00    +0.000 A 
ATOM      4  C   UNL     1       1.082   9.506  19.391  0.00  0.00    +0.000 A 
ATOM      5  C   UNL     1       0.384  10.620  19.881  0.00  0.00    +0.000 A 
ATOM      6  C   UNL     1       0.004  10.651  21.219  0.00  0.00    +0.000 A 
ATOM      7  N   UNL     1       0.296   9.649  22.063  0.00  0.00    +0.000 NA
ATOM      8  C   UNL     1       0.989   8.592  21.586  0.00  0.00    +0.000 A 
ATOM      9  C   UNL     1       1.414   8.464  20.268  0.00  0.00    +0.000 A 
ATOM     10  C   UNL     1       2.149   7.353  19.802  0.00  0.00    +0.000 A 
ENDROOT
BRANCH   1  16
ATOM     11  C   UNL     1       5.520   5.148  17.285  0.00  0.00    +0.000 A 
ATOM     12  C   UNL     1       4.959   3.906  17.041  0.00  0.00    +0.000 A 
ATOM     13  C   UNL     1       3.597   3.714  17.250  0.00  0.00    +0.000 A 
ATOM     14  C   UNL     1       2.760   4.763  17.686  0.00  0.00    +0.000 A 
ATOM     15  C   UNL     1       1.291   4.437  17.779  0.00  0.00    +0.000 C 
ATOM     16  C   UNL     1       3.318   6.032  17.990  0.00  0.00    +0.000 A 
ATOM     17  C   UNL     1       4.716   6.175  17.791  0.00  0.00    +0.000 A 
BRANCH  11  19
ATOM     18  C   UNL     1       7.769   4.660  17.818  0.00  0.00    +0.000 C 
ATOM     19  O   UNL     1       6.839   5.462  17.093  0.00  0.00    +0.000 OA
ENDBRANCH  11  19
ENDBRANCH   1  16
BRANCH   6  20
ATOM     20  N   UNL     1      -0.716  11.768  21.667  0.00  0.00    +0.000 N 
ATOM     21  C   UNL     1      -0.176  13.010  21.892  0.00  0.00    +0.000 C 
ATOM     22  O   UNL     1       0.981  13.372  21.719  0.00  0.00    +0.000 OA
ATOM     23  H   UNL     1      -1.699  11.634  21.844  0.00  0.00    +0.000 HD
BRANCH  21  24
ATOM     24  C   UNL     1      -1.179  14.004  22.392  0.00  0.00    +0.000 C 
ATOM     25  C   UNL     1      -1.254  14.325  23.867  0.00  0.00    +0.000 C 
ATOM     26  C   UNL     1      -0.697  15.338  22.911  0.00  0.00    +0.000 C 
ENDBRANCH  21  24
ENDBRANCH   6  20
TORSDOF 4
ENDMDL
MODEL 5
REMARK VINA RESULT:      -8.0      1.122      1.211
REMARK  Name = 
REMARK  6 active torsions:
REMARK  status: ('A' for Active; 'I' for Inactive)
REMARK    1  A    between atoms: C_1  and  O_2
REMARK    2  A    between atoms: O_2  and  C_3
REMARK    3  A    between atoms: C_6  and  C_7
REMARK    4  A    between atoms: C_8  and  C_9
REMARK    5  A    between atoms: C_14  and  N_15
REMARK    6  A    between atoms: C_16  and  C_18
REMARK                            x       y       z     vdW  Elec       q    Type
REMARK                         _______ _______ _______ _____ _____    ______ ____
ROOT
ATOM      1  C   UNL     1       2.602   7.328  18.290  0.00  0.00    +0.000 A 
ATOM      2  C   UNL     1       2.111   8.384  17.505  0.00  0.00    +0.000 A 
ATOM      3  C   UNL     1       1.486   9.508  18.064  0.00  0.00    +0.000 A 
ATOM      4  C   UNL     1       1.245   9.577  19.439  0.00  0.00    +0.000 A 
ATOM      5  C   UNL     1       0.593  10.670  20.029  0.00  0.00    +0.000 A 
ATOM      6  C   UNL     1       0.329  10.647  21.395  0.00  0.00    +0.000 A 
ATOM      7  N   UNL     1       0.690   9.614  22.171  0.00  0.00    +0.000 NA
ATOM      8  C   UNL     1       1.339   8.578  21.596  0.00  0.00    +0.000 A 
ATOM      9  C   UNL     1       1.650   8.503  20.242  0.00  0.00    +0.000 A 
ATOM     10  C   UNL     1       2.342   7.413  19.672  0.00  0.00    +0.000 A 
ENDROOT
BRANCH   1  16
ATOM     11  C   UNL     1       5.296   5.390  16.398  0.00  0.00    +0.000 A 
ATOM     12  C   UNL     1       4.860   4.079  16.499  0.00  0.00    +0.000 A 
ATOM     13  C   UNL     1       3.681   3.799  17.183  0.00  0.00    +0.000 A 
ATOM     14  C   UNL     1       2.900   4.821  17.763  0.00  0.00    +0.000 A 
ATOM     15  C   UNL     1       1.602   4.381  18.391  0.00  0.00    +0.000 C 
ATOM     16  C   UNL     1       3.350   6.166  17.717  0.00  0.00    +0.000 A 
ATOM     17  C   UNL     1       4.572   6.404  17.035  0.00  0.00    +0.000 A 
BRANCH  11  19
ATOM     18  C   UNL     1       6.984   4.821  14.847  0.00  0.00    +0.000 C 
ATOM     19  O   UNL     1       6.423   5.790  15.731  0.00  0.00    +0.000 OA
ENDBRANCH  11  19
ENDBRANCH   1  16
BRANCH   6  20
ATOM     20  N   UNL     1      -0.350  11.744  21.946  0.00  0.00    +0.000 N 
ATOM     21  C   UNL     1      -1.354  11.657  22.879  0.00  0.00    +0.000 C 
ATOM     22  O   UNL     1      -1.805  10.651  23.410  0.00  0.00    +0.000 OA
ATOM     23  H   UNL     1      -0.079  12.658  21.617  0.00  0.00    +0.000 HD
BRANCH  21  24
ATOM     24  C   UNL     1      -1.912  12.992  23.265  0.00  0.00    +0.000 C 
ATOM     25  C   UNL     1      -3.074  13.577  22.496  0.00  0.00    +0.000 C 
ATOM     26  C   UNL     1      -3.286  13.062  23.890  0.00  0.00    +0.000 C 
ENDBRANCH  21  24
ENDBRANCH   6  20
TORSDOF 4
ENDMDL
MODEL 6
REMARK VINA RESULT:      -8.0      1.369      1.953
REMARK  Name = 
REMARK  6 active torsions:
REMARK  status: ('A' for Active; 'I' for Inactive)
REMARK    1  A    between atoms: C_1  and  O_2
REMARK    2  A    between atoms: O_2  and  C_3
REMARK    3  A    between atoms: C_6  and  C_7
REMARK    4  A    between atoms: C_8  and  C_9
REMARK    5  A    between atoms: C_14  and  N_15
REMARK    6  A    between atoms: C_16  and  C_18
REMARK                            x       y       z     vdW  Elec       q    Type
REMARK                         _______ _______ _______ _____ _____    ______ ____
ROOT
ATOM      1  C   UNL     1       2.717   7.056  18.708  0.00  0.00    +0.000 A 
ATOM      2  C   UNL     1       2.309   6.817  20.030  0.00  0.00    +0.000 A 
ATOM      3  C   UNL     1       1.432   7.673  20.711  0.00  0.00    +0.000 A 
ATOM      4  C   UNL     1       0.995   8.861  20.120  0.00  0.00    +0.000 A 
ATOM      5  C   UNL     1       0.144   9.757  20.784  0.00  0.00    +0.000 A 
ATOM      6  C   UNL     1      -0.203  10.953  20.162  0.00  0.00    +0.000 A 
ATOM      7  N   UNL     1       0.244  11.271  18.938  0.00  0.00    +0.000 NA
ATOM      8  C   UNL     1       1.043  10.390  18.298  0.00  0.00    +0.000 A 
ATOM      9  C   UNL     1       1.448   9.170  18.831  0.00  0.00    +0.000 A 
ATOM     10  C   UNL     1       2.273   8.263  18.132  0.00  0.00    +0.000 A 
ENDROOT
BRANCH   1  16
ATOM     11  C   UNL     1       5.729   5.732  16.767  0.00  0.00    +0.000 A 
ATOM     12  C   UNL     1       5.325   4.458  16.404  0.00  0.00    +0.000 A 
ATOM     13  C   UNL     1       4.066   4.004  16.781  0.00  0.00    +0.000 A 
ATOM     14  C   UNL     1       3.172   4.817  17.510  0.00  0.00    +0.000 A 
ATOM     15  C   UNL     1       1.809   4.229  17.768  0.00  0.00    +0.000 C 
ATOM     16  C   UNL     1       3.580   6.108  17.937  0.00  0.00    +0.000 A 
ATOM     17  C   UNL     1       4.884   6.520  17.556  0.00  0.00    +0.000 A 
BRANCH  11  19
ATOM     18  C   UNL     1       7.434   7.254  17.363  0.00  0.00    +0.000 C 
ATOM     19  O   UNL     1       6.932   6.296  16.433  0.00  0.00    +0.000 OA
ENDBRANCH  11  19
ENDBRANCH   1  16
BRANCH   6  20
ATOM     20  N   UNL     1      -1.032  11.837  20.867  0.00  0.00    +0.000 N 
ATOM     21  C   UNL     1      -2.249  12.293  20.422  0.00  0.00    +0.000 C 
ATOM     22  O   UNL     1      -2.832  12.000  19.386  0.00  0.00    +0.000 OA
ATOM     23  H   UNL     1      -0.695  12.164  21.759  0.00  0.00    +0.000 HD
BRANCH  21  24
ATOM     24  C   UNL     1      -2.901  13.248  21.374  0.00  0.00    +0.000 C 
ATOM     25  C   UNL     1      -4.151  12.840  22.118  0.00  0.00    +0.000 C 
ATOM     26  C   UNL     1      -2.850  12.960  22.856  0.00  0.00    +0.000 C 
ENDBRANCH  21  24
ENDBRANCH   6  20
TORSDOF 4
ENDMDL
MODEL 7
REMARK VINA RESULT:      -8.0      1.329      2.004
REMARK  Name = 
REMARK  6 active torsions:
REMARK  status: ('A' for Active; 'I' for Inactive)
REMARK    1  A    between atoms: C_1  and  O_2
REMARK    2  A    between atoms: O_2  and  C_3
REMARK    3  A    between atoms: C_6  and  C_7
REMARK    4  A    between atoms: C_8  and  C_9
REMARK    5  A    between atoms: C_14  and  N_15
REMARK    6  A    between atoms: C_16  and  C_18
REMARK                            x       y       z     vdW  Elec       q    Type
REMARK                         _______ _______ _______ _____ _____    ______ ____
ROOT
ATOM      1  C   UNL     1       2.609   6.953  18.672  0.00  0.00    +0.000 A 
ATOM      2  C   UNL     1       2.292   6.826  20.034  0.00  0.00    +0.000 A 
ATOM      3  C   UNL     1       1.529   7.782  20.720  0.00  0.00    +0.000 A 
ATOM      4  C   UNL     1       1.126   8.959  20.085  0.00  0.00    +0.000 A 
ATOM      5  C   UNL     1       0.390   9.952  20.749  0.00  0.00    +0.000 A 
ATOM      6  C   UNL     1       0.074  11.129  20.076  0.00  0.00    +0.000 A 
ATOM      7  N   UNL     1       0.442  11.339  18.803  0.00  0.00    +0.000 NA
ATOM      8  C   UNL     1       1.129  10.366  18.166  0.00  0.00    +0.000 A 
ATOM      9  C   UNL     1       1.494   9.156  18.747  0.00  0.00    +0.000 A 
ATOM     10  C   UNL     1       2.201   8.151  18.052  0.00  0.00    +0.000 A 
ENDROOT
BRANCH   1  16
ATOM     11  C   UNL     1       5.312   5.332  16.514  0.00  0.00    +0.000 A 
ATOM     12  C   UNL     1       4.840   4.041  16.348  0.00  0.00    +0.000 A 
ATOM     13  C   UNL     1       3.633   3.671  16.932  0.00  0.00    +0.000 A 
ATOM     14  C   UNL     1       2.859   4.586  17.678  0.00  0.00    +0.000 A 
ATOM     15  C   UNL     1       1.531   4.075  18.173  0.00  0.00    +0.000 C 
ATOM     16  C   UNL     1       3.345   5.901  17.905  0.00  0.00    +0.000 A 
ATOM     17  C   UNL     1       4.594   6.227  17.315  0.00  0.00    +0.000 A 
BRANCH  11  19
ATOM     18  C   UNL     1       6.994   5.061  14.878  0.00  0.00    +0.000 C 
ATOM     19  O   UNL     1       6.470   5.818  15.967  0.00  0.00    +0.000 OA
ENDBRANCH  11  19
ENDBRANCH   1  16
BRANCH   6  20
ATOM     20  N   UNL     1      -0.638  12.111  20.779  0.00  0.00    +0.000 N 
ATOM     21  C   UNL     1      -0.064  13.135  21.493  0.00  0.00    +0.000 C 
ATOM     22  O   UNL     1       1.126  13.394  21.616  0.00  0.00    +0.000 OA
ATOM     23  H   UNL     1      -1.643  12.044  20.763  0.00  0.00    +0.000 HD
BRANCH  21  24
ATOM     24  C   UNL     1      -1.071  14.017  22.164  0.00  0.00    +0.000 C 
ATOM     25  C   UNL     1      -1.402  13.812  23.625  0.00  0.00    +0.000 C 
ATOM     26  C   UNL     1      -0.603  15.010  23.203  0.00  0.00    +0.000 C 
ENDBRANCH  21  24
ENDBRANCH   6  20
TORSDOF 4
ENDMDL
MODEL 8
REMARK VINA RESULT:      -7.7      1.633      2.699
REMARK  Name = 
REMARK  6 active torsions:
REMARK  status: ('A' for Active; 'I' for Inactive)
REMARK    1  A    between atoms: C_1  and  O_2
REMARK    2  A    between atoms: O_2  and  C_3
REMARK    3  A    between atoms: C_6  and  C_7
REMARK    4  A    between atoms: C_8  and  C_9
REMARK    5  A    between atoms: C_14  and  N_15
REMARK    6  A    between atoms: C_16  and  C_18
REMARK                            x       y       z     vdW  Elec       q    Type
REMARK                         _______ _______ _______ _____ _____    ______ ____
ROOT
ATOM      1  C   UNL     1       2.469   7.093  18.378  0.00  0.00    +0.000 A 
ATOM      2  C   UNL     1       2.071   8.105  17.489  0.00  0.00    +0.000 A 
ATOM      3  C   UNL     1       1.459   9.289  17.922  0.00  0.00    +0.000 A 
ATOM      4  C   UNL     1       1.136   9.470  19.269  0.00  0.00    +0.000 A 
ATOM      5  C   UNL     1       0.493  10.627  19.735  0.00  0.00    +0.000 A 
ATOM      6  C   UNL     1       0.143  10.716  21.079  0.00  0.00    +0.000 A 
ATOM      7  N   UNL     1       0.413   9.732  21.950  0.00  0.00    +0.000 NA
ATOM      8  C   UNL     1       1.053   8.633  21.495  0.00  0.00    +0.000 A 
ATOM      9  C   UNL     1       1.446   8.445  20.174  0.00  0.00    +0.000 A 
ATOM     10  C   UNL     1       2.126   7.291  19.731  0.00  0.00    +0.000 A 
ENDROOT
BRANCH   1  16
ATOM     11  C   UNL     1       3.185   3.400  17.718  0.00  0.00    +0.000 A 
ATOM     12  C   UNL     1       4.479   3.421  17.225  0.00  0.00    +0.000 A 
ATOM     13  C   UNL     1       5.146   4.636  17.098  0.00  0.00    +0.000 A 
ATOM     14  C   UNL     1       4.545   5.854  17.480  0.00  0.00    +0.000 A 
ATOM     15  C   UNL     1       5.417   7.079  17.375  0.00  0.00    +0.000 C 
ATOM     16  C   UNL     1       3.202   5.865  17.941  0.00  0.00    +0.000 A 
ATOM     17  C   UNL     1       2.550   4.608  18.027  0.00  0.00    +0.000 A 
BRANCH  11  19
ATOM     18  C   UNL     1       1.217   2.456  18.618  0.00  0.00    +0.000 C 
ATOM     19  O   UNL     1       2.440   2.267  17.910  0.00  0.00    +0.000 OA
ENDBRANCH  11  19
ENDBRANCH   1  16
BRANCH   6  20
ATOM     20  N   UNL     1      -0.523  11.876  21.503  0.00  0.00    +0.000 N 
ATOM     21  C   UNL     1       0.086  13.079  21.763  0.00  0.00    +0.000 C 
ATOM     22  O   UNL     1       1.270  13.366  21.645  0.00  0.00    +0.000 OA
ATOM     23  H   UNL     1      -1.519  11.805  21.634  0.00  0.00    +0.000 HD
BRANCH  21  24
ATOM     24  C   UNL     1      -0.872  14.133  22.225  0.00  0.00    +0.000 C 
ATOM     25  C   UNL     1      -1.216  14.251  23.692  0.00  0.00    +0.000 C 
ATOM     26  C   UNL     1      -0.352  15.292  23.043  0.00  0.00    +0.000 C 
ENDBRANCH  21  24
ENDBRANCH   6  20
TORSDOF 4
ENDMDL
MODEL 9
REMARK VINA RESULT:      -7.5      1.935      3.164
REMARK  Name = 
REMARK  6 active torsions:
REMARK  status: ('A' for Active; 'I' for Inactive)
REMARK    1  A    between atoms: C_1  and  O_2
REMARK    2  A    between atoms: O_2  and  C_3
REMARK    3  A    between atoms: C_6  and  C_7
REMARK    4  A    between atoms: C_8  and  C_9
REMARK    5  A    between atoms: C_14  and  N_15
REMARK    6  A    between atoms: C_16  and  C_18
REMARK                            x       y       z     vdW  Elec       q    Type
REMARK                         _______ _______ _______ _____ _____    ______ ____
ROOT
ATOM      1  C   UNL     1       2.384   6.883  18.853  0.00  0.00    +0.000 A 
ATOM      2  C   UNL     1       2.101   6.788  20.225  0.00  0.00    +0.000 A 
ATOM      3  C   UNL     1       1.472   7.820  20.935  0.00  0.00    +0.000 A 
ATOM      4  C   UNL     1       1.180   9.036  20.313  0.00  0.00    +0.000 A 
ATOM      5  C   UNL     1       0.581  10.103  21.000  0.00  0.00    +0.000 A 
ATOM      6  C   UNL     1       0.375  11.309  20.337  0.00  0.00    +0.000 A 
ATOM      7  N   UNL     1       0.720  11.480  19.052  0.00  0.00    +0.000 NA
ATOM      8  C   UNL     1       1.274  10.439  18.394  0.00  0.00    +0.000 A 
ATOM      9  C   UNL     1       1.522   9.195  18.964  0.00  0.00    +0.000 A 
ATOM     10  C   UNL     1       2.090   8.120  18.245  0.00  0.00    +0.000 A 
ENDROOT
BRANCH   1  16
ATOM     11  C   UNL     1       2.810   3.383  17.382  0.00  0.00    +0.000 A 
ATOM     12  C   UNL     1       3.993   3.491  16.670  0.00  0.00    +0.000 A 
ATOM     13  C   UNL     1       4.677   4.702  16.655  0.00  0.00    +0.000 A 
ATOM     14  C   UNL     1       4.208   5.827  17.366  0.00  0.00    +0.000 A 
ATOM     15  C   UNL     1       5.099   7.042  17.335  0.00  0.00    +0.000 C 
ATOM     16  C   UNL     1       2.973   5.758  18.062  0.00  0.00    +0.000 A 
ATOM     17  C   UNL     1       2.293   4.513  18.027  0.00  0.00    +0.000 A 
BRANCH  11  19
ATOM     18  C   UNL     1       1.209   2.177  18.631  0.00  0.00    +0.000 C 
ATOM     19  O   UNL     1       2.063   2.240  17.491  0.00  0.00    +0.000 OA
ENDBRANCH  11  19
ENDBRANCH   1  16
BRANCH   6  20
ATOM     20  N   UNL     1      -0.200  12.361  21.064  0.00  0.00    +0.000 N 
ATOM     21  C   UNL     1      -1.519  12.737  20.989  0.00  0.00    +0.000 C 
ATOM     22  O   UNL     1      -2.413  12.224  20.329  0.00  0.00    +0.000 OA
ATOM     23  H   UNL     1       0.412  12.881  21.674  0.00  0.00    +0.000 HD
BRANCH  21  24
ATOM     24  C   UNL     1      -1.844  13.912  21.859  0.00  0.00    +0.000 C 
ATOM     25  C   UNL     1      -2.529  13.701  23.190  0.00  0.00    +0.000 C 
ATOM     26  C   UNL     1      -1.084  14.105  23.150  0.00  0.00    +0.000 C 
ENDBRANCH  21  24
ENDBRANCH   6  20
TORSDOF 4
ENDMDL
