MODEL 1
REMARK VINA RESULT:      -8.4      0.000      0.000
REMARK  Name = 
REMARK  3 active torsions:
REMARK  status: ('A' for Active; 'I' for Inactive)
REMARK    1  A    between atoms: N_1  and  C_2
REMARK    2  A    between atoms: C_6  and  N_7
REMARK    3  A    between atoms: C_12  and  C_13
REMARK                            x       y       z     vdW  Elec       q    Type
REMARK                         _______ _______ _______ _____ _____    ______ ____
ROOT
ATOM      1  N   UNL     1      -1.817  12.543  18.616  0.00  0.00    +0.000 N 
ATOM      2  C   UNL     1      -0.482  12.100  18.632  0.00  0.00    +0.000 A 
ATOM      3  C   UNL     1       0.541  13.000  18.332  0.00  0.00    +0.000 A 
ATOM      4  N   UNL     1       1.856  12.684  18.343  0.00  0.00    +0.000 NA
ATOM      5  C   UNL     1       2.122  11.404  18.705  0.00  0.00    +0.000 A 
ATOM      6  C   UNL     1       1.135  10.494  19.074  0.00  0.00    +0.000 A 
ATOM      7  N   UNL     1      -0.183  10.855  19.051  0.00  0.00    +0.000 NA
ATOM      8  H   UNL     1      -1.981  12.966  19.526  0.00  0.00    +0.000 HD
ENDROOT
BRANCH   6   9
ATOM      9  C   UNL     1       1.447   9.140  19.575  0.00  0.00    +0.000 A 
ATOM     10  C   UNL     1       2.227   8.258  18.827  0.00  0.00    +0.000 A 
ATOM     11  C   UNL     1       2.359   6.954  19.312  0.00  0.00    +0.000 A 
ATOM     12  C   UNL     1       1.746   6.570  20.499  0.00  0.00    +0.000 A 
ATOM     13  C   UNL     1       1.028   7.514  21.232  0.00  0.00    +0.000 A 
ATOM     14  N   UNL     1       0.880   8.780  20.761  0.00  0.00    +0.000 NA
ATOM     15  C   UNL     1       2.047   5.205  20.630  0.00  0.00    +0.000 A 
ATOM     16  N   UNL     1       2.777   4.732  19.622  0.00  0.00    +0.000 NA
ATOM     17  N   UNL     1       3.009   5.824  18.827  0.00  0.00    +0.000 N 
ATOM     18  C   UNL     1       3.843   5.730  17.664  0.00  0.00    +0.000 A 
ATOM     19  C   UNL     1       4.324   4.478  17.277  0.00  0.00    +0.000 A 
ATOM     20  C   UNL     1       5.164   4.394  16.169  0.00  0.00    +0.000 A 
ATOM     21  C   UNL     1       5.508   5.550  15.480  0.00  0.00    +0.000 A 
ATOM     22  C   UNL     1       4.985   6.753  15.922  0.00  0.00    +0.000 A 
ATOM     23  N   UNL     1       4.163   6.867  16.987  0.00  0.00    +0.000 NA
ENDBRANCH   6   9
BRANCH   1  28
ATOM     24  C   UNL     1      -2.928  11.210  16.795  0.00  0.00    +0.000 C 
ATOM     25  C   UNL     1      -4.408  10.919  16.574  0.00  0.00    +0.000 C 
ATOM     26  C   UNL     1      -5.110  11.902  17.492  0.00  0.00    +0.000 C 
ATOM     27  C   UNL     1      -4.210  12.033  18.717  0.00  0.00    +0.000 C 
ATOM     28  C   UNL     1      -2.813  11.501  18.323  0.00  0.00    +0.000 C 
BRANCH  24  29
ATOM     29  N   UNL     1      -2.106  10.106  16.294  0.00  0.00    +0.000 NA
ATOM     30  H   UNL     1      -1.414  10.449  15.633  0.00  0.00    +0.000 HD
ATOM     31  H   UNL     1      -2.680   9.420  15.809  0.00  0.00    +0.000 HD
ENDBRANCH  24  29
ENDBRANCH   1  28
TORSDOF 3
ENDMDL
MODEL 2
REMARK VINA RESULT:      -8.0      2.920      4.688
REMARK  Name = 
REMARK  3 active torsions:
REMARK  status: ('A' for Active; 'I' for Inactive)
REMARK    1  A    between atoms: N_1  and  C_2
REMARK    2  A    between atoms: C_6  and  N_7
REMARK    3  A    between atoms: C_12  and  C_13
REMARK                            x       y       z     vdW  Elec       q    Type
REMARK                         _______ _______ _______ _____ _____    ______ ____
ROOT
ATOM      1  N   UNL     1      -0.822  13.072  21.607  0.00  0.00    +0.000 N 
ATOM      2  C   UNL     1      -0.452  11.727  21.784  0.00  0.00    +0.000 A 
ATOM      3  C   UNL     1      -0.906  11.035  22.908  0.00  0.00    +0.000 A 
ATOM      4  N   UNL     1      -0.630   9.735  23.160  0.00  0.00    +0.000 NA
ATOM      5  C   UNL     1       0.114   9.124  22.205  0.00  0.00    +0.000 A 
ATOM      6  C   UNL     1       0.532   9.761  21.039  0.00  0.00    +0.000 A 
ATOM      7  N   UNL     1       0.229  11.076  20.822  0.00  0.00    +0.000 NA
ATOM      8  H   UNL     1      -1.741  13.053  21.171  0.00  0.00    +0.000 HD
ENDROOT
BRANCH   6   9
ATOM      9  C   UNL     1       1.244   9.053  19.956  0.00  0.00    +0.000 A 
ATOM     10  C   UNL     1       1.676   7.737  20.120  0.00  0.00    +0.000 A 
ATOM     11  C   UNL     1       2.459   7.190  19.099  0.00  0.00    +0.000 A 
ATOM     12  C   UNL     1       2.772   7.933  17.967  0.00  0.00    +0.000 A 
ATOM     13  C   UNL     1       2.262   9.224  17.835  0.00  0.00    +0.000 A 
ATOM     14  N   UNL     1       1.513   9.770  18.829  0.00  0.00    +0.000 NA
ATOM     15  C   UNL     1       3.604   7.093  17.209  0.00  0.00    +0.000 A 
ATOM     16  N   UNL     1       3.826   5.915  17.790  0.00  0.00    +0.000 NA
ATOM     17  N   UNL     1       3.082   5.957  18.940  0.00  0.00    +0.000 N 
ATOM     18  C   UNL     1       2.997   4.819  19.808  0.00  0.00    +0.000 A 
ATOM     19  C   UNL     1       3.784   3.699  19.533  0.00  0.00    +0.000 A 
ATOM     20  C   UNL     1       3.673   2.581  20.358  0.00  0.00    +0.000 A 
ATOM     21  C   UNL     1       2.784   2.601  21.425  0.00  0.00    +0.000 A 
ATOM     22  C   UNL     1       2.045   3.752  21.636  0.00  0.00    +0.000 A 
ATOM     23  N   UNL     1       2.134   4.854  20.861  0.00  0.00    +0.000 NA
ENDBRANCH   6   9
BRANCH   1  28
ATOM     24  C   UNL     1       0.704  15.071  21.645  0.00  0.00    +0.000 C 
ATOM     25  C   UNL     1       0.848  16.198  20.628  0.00  0.00    +0.000 C 
ATOM     26  C   UNL     1      -0.379  16.050  19.749  0.00  0.00    +0.000 C 
ATOM     27  C   UNL     1      -0.643  14.550  19.663  0.00  0.00    +0.000 C 
ATOM     28  C   UNL     1       0.126  13.878  20.824  0.00  0.00    +0.000 C 
BRANCH  24  29
ATOM     29  N   UNL     1       1.979  14.821  22.320  0.00  0.00    +0.000 NA
ATOM     30  H   UNL     1       1.890  14.982  23.319  0.00  0.00    +0.000 HD
ATOM     31  H   UNL     1       2.701  15.447  21.971  0.00  0.00    +0.000 HD
ENDBRANCH  24  29
ENDBRANCH   1  28
TORSDOF 3
ENDMDL
MODEL 3
REMARK VINA RESULT:      -7.6      2.294      4.064
REMARK  Name = 
REMARK  3 active torsions:
REMARK  status: ('A' for Active; 'I' for Inactive)
REMARK    1  A    between atoms: N_1  and  C_2
REMARK    2  A    between atoms: C_6  and  N_7
REMARK    3  A    between atoms: C_12  and  C_13
REMARK                            x       y       z     vdW  Elec       q    Type
REMARK                         _______ _______ _______ _____ _____    ______ ____
ROOT
ATOM      1  N   UNL     1      -1.681  12.548  21.481  0.00  0.00    +0.000 N 
ATOM      2  C   UNL     1      -0.838  11.459  21.767  0.00  0.00    +0.000 A 
ATOM      3  C   UNL     1      -0.788  10.957  23.068  0.00  0.00    +0.000 A 
ATOM      4  N   UNL     1      -0.031   9.900  23.444  0.00  0.00    +0.000 NA
ATOM      5  C   UNL     1       0.672   9.327  22.436  0.00  0.00    +0.000 A 
ATOM      6  C   UNL     1       0.599   9.757  21.114  0.00  0.00    +0.000 A 
ATOM      7  N   UNL     1      -0.180  10.828  20.775  0.00  0.00    +0.000 NA
ATOM      8  H   UNL     1      -2.603  12.151  21.317  0.00  0.00    +0.000 HD
ENDROOT
BRANCH   6   9
ATOM      9  C   UNL     1       1.280   9.053  20.009  0.00  0.00    +0.000 A 
ATOM     10  C   UNL     1       1.704   7.731  20.151  0.00  0.00    +0.000 A 
ATOM     11  C   UNL     1       2.460   7.188  19.108  0.00  0.00    +0.000 A 
ATOM     12  C   UNL     1       2.754   7.938  17.975  0.00  0.00    +0.000 A 
ATOM     13  C   UNL     1       2.251   9.234  17.866  0.00  0.00    +0.000 A 
ATOM     14  N   UNL     1       1.530   9.777  18.881  0.00  0.00    +0.000 NA
ATOM     15  C   UNL     1       3.561   7.098  17.192  0.00  0.00    +0.000 A 
ATOM     16  N   UNL     1       3.786   5.913  17.757  0.00  0.00    +0.000 NA
ATOM     17  N   UNL     1       3.069   5.950  18.924  0.00  0.00    +0.000 N 
ATOM     18  C   UNL     1       2.994   4.805  19.784  0.00  0.00    +0.000 A 
ATOM     19  C   UNL     1       3.765   3.682  19.481  0.00  0.00    +0.000 A 
ATOM     20  C   UNL     1       3.663   2.558  20.298  0.00  0.00    +0.000 A 
ATOM     21  C   UNL     1       2.798   2.576  21.385  0.00  0.00    +0.000 A 
ATOM     22  C   UNL     1       2.074   3.730  21.623  0.00  0.00    +0.000 A 
ATOM     23  N   UNL     1       2.155   4.839  20.856  0.00  0.00    +0.000 NA
ENDBRANCH   6   9
BRANCH   1  28
ATOM     24  C   UNL     1      -0.857  12.534  19.104  0.00  0.00    +0.000 C 
ATOM     25  C   UNL     1       0.309  13.292  18.480  0.00  0.00    +0.000 C 
ATOM     26  C   UNL     1       1.096  13.793  19.676  0.00  0.00    +0.000 C 
ATOM     27  C   UNL     1       0.056  14.110  20.746  0.00  0.00    +0.000 C 
ATOM     28  C   UNL     1      -1.250  13.385  20.351  0.00  0.00    +0.000 C 
BRANCH  24  29
ATOM     29  N   UNL     1      -1.919  12.320  18.118  0.00  0.00    +0.000 NA
ATOM     30  H   UNL     1      -2.794  12.090  18.581  0.00  0.00    +0.000 HD
ATOM     31  H   UNL     1      -1.686  11.547  17.500  0.00  0.00    +0.000 HD
ENDBRANCH  24  29
ENDBRANCH   1  28
TORSDOF 3
ENDMDL
MODEL 4
REMARK VINA RESULT:      -7.6      2.037      2.432
REMARK  Name = 
REMARK  3 active torsions:
REMARK  status: ('A' for Active; 'I' for Inactive)
REMARK    1  A    between atoms: N_1  and  C_2
REMARK    2  A    between atoms: C_6  and  N_7
REMARK    3  A    between atoms: C_12  and  C_13
REMARK                            x       y       z     vdW  Elec       q    Type
REMARK                         _______ _______ _______ _____ _____    ______ ____
ROOT
ATOM      1  N   UNL     1      -0.395  12.814  20.492  0.00  0.00    +0.000 N 
ATOM      2  C   UNL     1       0.461  12.022  19.707  0.00  0.00    +0.000 A 
ATOM      3  C   UNL     1       1.215  12.622  18.699  0.00  0.00    +0.000 A 
ATOM      4  N   UNL     1       2.086  11.957  17.905  0.00  0.00    +0.000 NA
ATOM      5  C   UNL     1       2.203  10.636  18.184  0.00  0.00    +0.000 A 
ATOM      6  C   UNL     1       1.517  10.012  19.224  0.00  0.00    +0.000 A 
ATOM      7  N   UNL     1       0.648  10.721  20.004  0.00  0.00    +0.000 NA
ATOM      8  H   UNL     1       0.187  13.213  21.224  0.00  0.00    +0.000 HD
ENDROOT
BRANCH   6   9
ATOM      9  C   UNL     1       1.739   8.598  19.589  0.00  0.00    +0.000 A 
ATOM     10  C   UNL     1       2.489   7.753  18.770  0.00  0.00    +0.000 A 
ATOM     11  C   UNL     1       2.535   6.400  19.120  0.00  0.00    +0.000 A 
ATOM     12  C   UNL     1       1.870   5.934  20.249  0.00  0.00    +0.000 A 
ATOM     13  C   UNL     1       1.186   6.838  21.060  0.00  0.00    +0.000 A 
ATOM     14  N   UNL     1       1.122   8.152  20.719  0.00  0.00    +0.000 NA
ATOM     15  C   UNL     1       2.091   4.547  20.244  0.00  0.00    +0.000 A 
ATOM     16  N   UNL     1       2.821   4.138  19.208  0.00  0.00    +0.000 NA
ATOM     17  N   UNL     1       3.134   5.290  18.535  0.00  0.00    +0.000 N 
ATOM     18  C   UNL     1       3.993   5.266  17.387  0.00  0.00    +0.000 A 
ATOM     19  C   UNL     1       4.413   4.035  16.883  0.00  0.00    +0.000 A 
ATOM     20  C   UNL     1       5.277   4.016  15.790  0.00  0.00    +0.000 A 
ATOM     21  C   UNL     1       5.704   5.214  15.232  0.00  0.00    +0.000 A 
ATOM     22  C   UNL     1       5.236   6.393  15.785  0.00  0.00    +0.000 A 
ATOM     23  N   UNL     1       4.394   6.446  16.838  0.00  0.00    +0.000 NA
ENDBRANCH   6   9
BRANCH   1  28
ATOM     24  C   UNL     1      -2.873  12.919  20.908  0.00  0.00    +0.000 C 
ATOM     25  C   UNL     1      -3.655  12.611  22.181  0.00  0.00    +0.000 C 
ATOM     26  C   UNL     1      -2.588  12.564  23.258  0.00  0.00    +0.000 C 
ATOM     27  C   UNL     1      -1.352  11.974  22.584  0.00  0.00    +0.000 C 
ATOM     28  C   UNL     1      -1.553  12.104  21.057  0.00  0.00    +0.000 C 
BRANCH  24  29
ATOM     29  N   UNL     1      -3.679  12.617  19.724  0.00  0.00    +0.000 NA
ATOM     30  H   UNL     1      -3.145  12.788  18.876  0.00  0.00    +0.000 HD
ATOM     31  H   UNL     1      -4.507  13.208  19.690  0.00  0.00    +0.000 HD
ENDBRANCH  24  29
ENDBRANCH   1  28
TORSDOF 3
ENDMDL
MODEL 5
REMARK VINA RESULT:      -7.4      0.930      1.187
REMARK  Name = 
REMARK  3 active torsions:
REMARK  status: ('A' for Active; 'I' for Inactive)
REMARK    1  A    between atoms: N_1  and  C_2
REMARK    2  A    between atoms: C_6  and  N_7
REMARK    3  A    between atoms: C_12  and  C_13
REMARK                            x       y       z     vdW  Elec       q    Type
REMARK                         _______ _______ _______ _____ _____    ______ ____
ROOT
ATOM      1  N   UNL     1      -1.018  13.063  19.771  0.00  0.00    +0.000 N 
ATOM      2  C   UNL     1       0.075  12.331  19.273  0.00  0.00    +0.000 A 
ATOM      3  C   UNL     1       1.029  12.978  18.486  0.00  0.00    +0.000 A 
ATOM      4  N   UNL     1       2.128  12.374  17.979  0.00  0.00    +0.000 NA
ATOM      5  C   UNL     1       2.261  11.069  18.323  0.00  0.00    +0.000 A 
ATOM      6  C   UNL     1       1.366  10.406  19.159  0.00  0.00    +0.000 A 
ATOM      7  N   UNL     1       0.268  11.054  19.652  0.00  0.00    +0.000 NA
ATOM      8  H   UNL     1      -0.687  13.516  20.619  0.00  0.00    +0.000 HD
ENDROOT
BRANCH   6   9
ATOM      9  C   UNL     1       1.584   9.019  19.617  0.00  0.00    +0.000 A 
ATOM     10  C   UNL     1       2.328   8.118  18.856  0.00  0.00    +0.000 A 
ATOM     11  C   UNL     1       2.370   6.791  19.296  0.00  0.00    +0.000 A 
ATOM     12  C   UNL     1       1.705   6.404  20.453  0.00  0.00    +0.000 A 
ATOM     13  C   UNL     1       1.025   7.363  21.203  0.00  0.00    +0.000 A 
ATOM     14  N   UNL     1       0.966   8.652  20.776  0.00  0.00    +0.000 NA
ATOM     15  C   UNL     1       1.920   5.019  20.541  0.00  0.00    +0.000 A 
ATOM     16  N   UNL     1       2.646   4.539  19.533  0.00  0.00    +0.000 NA
ATOM     17  N   UNL     1       2.963   5.642  18.784  0.00  0.00    +0.000 N 
ATOM     18  C   UNL     1       3.820   5.538  17.639  0.00  0.00    +0.000 A 
ATOM     19  C   UNL     1       4.234   4.274  17.218  0.00  0.00    +0.000 A 
ATOM     20  C   UNL     1       5.096   4.179  16.127  0.00  0.00    +0.000 A 
ATOM     21  C   UNL     1       5.527   5.335  15.490  0.00  0.00    +0.000 A 
ATOM     22  C   UNL     1       5.065   6.551  15.963  0.00  0.00    +0.000 A 
ATOM     23  N   UNL     1       4.224   6.677  17.012  0.00  0.00    +0.000 NA
ENDBRANCH   6   9
BRANCH   1  28
ATOM     24  C   UNL     1      -2.987  11.913  18.710  0.00  0.00    +0.000 C 
ATOM     25  C   UNL     1      -4.462  11.968  19.093  0.00  0.00    +0.000 C 
ATOM     26  C   UNL     1      -4.544  13.149  20.042  0.00  0.00    +0.000 C 
ATOM     27  C   UNL     1      -3.230  13.144  20.817  0.00  0.00    +0.000 C 
ATOM     28  C   UNL     1      -2.230  12.271  20.026  0.00  0.00    +0.000 C 
BRANCH  24  29
ATOM     29  N   UNL     1      -2.658  10.615  18.118  0.00  0.00    +0.000 NA
ATOM     30  H   UNL     1      -1.937  10.148  18.661  0.00  0.00    +0.000 HD
ATOM     31  H   UNL     1      -2.303  10.730  17.172  0.00  0.00    +0.000 HD
ENDBRANCH  24  29
ENDBRANCH   1  28
TORSDOF 3
ENDMDL
MODEL 6
REMARK VINA RESULT:      -7.4      2.861      9.165
REMARK  Name = 
REMARK  3 active torsions:
REMARK  status: ('A' for Active; 'I' for Inactive)
REMARK    1  A    between atoms: N_1  and  C_2
REMARK    2  A    between atoms: C_6  and  N_7
REMARK    3  A    between atoms: C_12  and  C_13
REMARK                            x       y       z     vdW  Elec       q    Type
REMARK                         _______ _______ _______ _____ _____    ______ ____
ROOT
ATOM      1  N   UNL     1       1.808  10.420  18.288  0.00  0.00    +0.000 N 
ATOM      2  C   UNL     1       0.888  11.447  18.563  0.00  0.00    +0.000 A 
ATOM      3  C   UNL     1       1.358  12.728  18.850  0.00  0.00    +0.000 A 
ATOM      4  N   UNL     1       0.560  13.790  19.104  0.00  0.00    +0.000 NA
ATOM      5  C   UNL     1      -0.768  13.525  19.027  0.00  0.00    +0.000 A 
ATOM      6  C   UNL     1      -1.278  12.276  18.680  0.00  0.00    +0.000 A 
ATOM      7  N   UNL     1      -0.435  11.229  18.429  0.00  0.00    +0.000 NA
ATOM      8  H   UNL     1       2.040  10.510  17.302  0.00  0.00    +0.000 HD
ENDROOT
BRANCH   6   9
ATOM      9  C   UNL     1      -2.721  12.030  18.489  0.00  0.00    +0.000 A 
ATOM     10  C   UNL     1      -3.627  12.219  19.532  0.00  0.00    +0.000 A 
ATOM     11  C   UNL     1      -4.952  11.834  19.305  0.00  0.00    +0.000 A 
ATOM     12  C   UNL     1      -5.339  11.301  18.081  0.00  0.00    +0.000 A 
ATOM     13  C   UNL     1      -4.398  11.191  17.057  0.00  0.00    +0.000 A 
ATOM     14  N   UNL     1      -3.106  11.548  17.273  0.00  0.00    +0.000 NA
ATOM     15  C   UNL     1      -6.697  10.985  18.244  0.00  0.00    +0.000 A 
ATOM     16  N   UNL     1      -7.158  11.271  19.460  0.00  0.00    +0.000 NA
ATOM     17  N   UNL     1      -6.090  11.837  20.105  0.00  0.00    +0.000 N 
ATOM     18  C   UNL     1      -6.220  12.360  21.434  0.00  0.00    +0.000 A 
ATOM     19  C   UNL     1      -7.423  12.175  22.118  0.00  0.00    +0.000 A 
ATOM     20  C   UNL     1      -7.559  12.716  23.395  0.00  0.00    +0.000 A 
ATOM     21  C   UNL     1      -6.505  13.427  23.955  0.00  0.00    +0.000 A 
ATOM     22  C   UNL     1      -5.343  13.560  23.216  0.00  0.00    +0.000 A 
ATOM     23  N   UNL     1      -5.176  13.043  21.980  0.00  0.00    +0.000 NA
ENDBRANCH   6   9
BRANCH   1  28
ATOM     24  C   UNL     1       1.474   8.733  20.124  0.00  0.00    +0.000 C 
ATOM     25  C   UNL     1       1.845   7.255  20.159  0.00  0.00    +0.000 C 
ATOM     26  C   UNL     1       2.784   7.090  18.979  0.00  0.00    +0.000 C 
ATOM     27  C   UNL     1       2.266   8.045  17.907  0.00  0.00    +0.000 C 
ATOM     28  C   UNL     1       1.337   9.063  18.606  0.00  0.00    +0.000 C 
BRANCH  24  29
ATOM     29  N   UNL     1       0.285   8.985  20.941  0.00  0.00    +0.000 NA
ATOM     30  H   UNL     1       0.270   8.367  21.748  0.00  0.00    +0.000 HD
ATOM     31  H   UNL     1      -0.563   8.812  20.406  0.00  0.00    +0.000 HD
ENDBRANCH  24  29
ENDBRANCH   1  28
TORSDOF 3
ENDMDL
MODEL 7
REMARK VINA RESULT:      -7.3      4.196      9.239
REMARK  Name = 
REMARK  3 active torsions:
REMARK  status: ('A' for Active; 'I' for Inactive)
REMARK    1  A    between atoms: N_1  and  C_2
REMARK    2  A    between atoms: C_6  and  N_7
REMARK    3  A    between atoms: C_12  and  C_13
REMARK                            x       y       z     vdW  Elec       q    Type
REMARK                         _______ _______ _______ _____ _____    ______ ____
ROOT
ATOM      1  N   UNL     1      -0.924  10.405  17.450  0.00  0.00    +0.000 N 
ATOM      2  C   UNL     1      -2.254  10.810  17.235  0.00  0.00    +0.000 A 
ATOM      3  C   UNL     1      -2.800  10.712  15.954  0.00  0.00    +0.000 A 
ATOM      4  N   UNL     1      -4.072  11.050  15.646  0.00  0.00    +0.000 NA
ATOM      5  C   UNL     1      -4.812  11.474  16.700  0.00  0.00    +0.000 A 
ATOM      6  C   UNL     1      -4.324  11.524  18.003  0.00  0.00    +0.000 A 
ATOM      7  N   UNL     1      -3.032  11.171  18.273  0.00  0.00    +0.000 NA
ATOM      8  H   UNL     1      -0.959   9.398  17.588  0.00  0.00    +0.000 HD
ENDROOT
BRANCH   6   9
ATOM      9  C   UNL     1      -5.174  11.878  19.158  0.00  0.00    +0.000 A 
ATOM     10  C   UNL     1      -4.626  12.455  20.304  0.00  0.00    +0.000 A 
ATOM     11  C   UNL     1      -5.478  12.631  21.400  0.00  0.00    +0.000 A 
ATOM     12  C   UNL     1      -6.814  12.257  21.329  0.00  0.00    +0.000 A 
ATOM     13  C   UNL     1      -7.317  11.740  20.136  0.00  0.00    +0.000 A 
ATOM     14  N   UNL     1      -6.494  11.550  19.072  0.00  0.00    +0.000 NA
ATOM     15  C   UNL     1      -7.326  12.525  22.610  0.00  0.00    +0.000 A 
ATOM     16  N   UNL     1      -6.413  13.016  23.445  0.00  0.00    +0.000 NA
ATOM     17  N   UNL     1      -5.278  13.124  22.685  0.00  0.00    +0.000 N 
ATOM     18  C   UNL     1      -4.080  13.701  23.221  0.00  0.00    +0.000 A 
ATOM     19  C   UNL     1      -4.042  14.044  24.573  0.00  0.00    +0.000 A 
ATOM     20  C   UNL     1      -2.889  14.638  25.083  0.00  0.00    +0.000 A 
ATOM     21  C   UNL     1      -1.812  14.881  24.241  0.00  0.00    +0.000 A 
ATOM     22  C   UNL     1      -1.925  14.505  22.914  0.00  0.00    +0.000 A 
ATOM     23  N   UNL     1      -3.024  13.921  22.390  0.00  0.00    +0.000 NA
ENDBRANCH   6   9
BRANCH   1  28
ATOM     24  C   UNL     1      -0.137  12.616  18.354  0.00  0.00    +0.000 C 
ATOM     25  C   UNL     1       1.213  12.990  18.957  0.00  0.00    +0.000 C 
ATOM     26  C   UNL     1       2.113  11.830  18.575  0.00  0.00    +0.000 C 
ATOM     27  C   UNL     1       1.222  10.591  18.613  0.00  0.00    +0.000 C 
ATOM     28  C   UNL     1      -0.245  11.075  18.569  0.00  0.00    +0.000 C 
BRANCH  24  29
ATOM     29  N   UNL     1      -1.207  13.419  18.950  0.00  0.00    +0.000 NA
ATOM     30  H   UNL     1      -1.668  12.902  19.693  0.00  0.00    +0.000 HD
ATOM     31  H   UNL     1      -1.912  13.653  18.255  0.00  0.00    +0.000 HD
ENDBRANCH  24  29
ENDBRANCH   1  28
TORSDOF 3
ENDMDL
MODEL 8
REMARK VINA RESULT:      -7.2      2.158      9.018
REMARK  Name = 
REMARK  3 active torsions:
REMARK  status: ('A' for Active; 'I' for Inactive)
REMARK    1  A    between atoms: N_1  and  C_2
REMARK    2  A    between atoms: C_6  and  N_7
REMARK    3  A    between atoms: C_12  and  C_13
REMARK                            x       y       z     vdW  Elec       q    Type
REMARK                         _______ _______ _______ _____ _____    ______ ____
ROOT
ATOM      1  N   UNL     1       2.342   7.603  20.512  0.00  0.00    +0.000 N 
ATOM      2  C   UNL     1       1.367   8.575  20.798  0.00  0.00    +0.000 A 
ATOM      3  C   UNL     1       1.383   9.216  22.037  0.00  0.00    +0.000 A 
ATOM      4  N   UNL     1       0.508  10.181  22.402  0.00  0.00    +0.000 NA
ATOM      5  C   UNL     1      -0.392  10.514  21.445  0.00  0.00    +0.000 A 
ATOM      6  C   UNL     1      -0.401   9.944  20.174  0.00  0.00    +0.000 A 
ATOM      7  N   UNL     1       0.503   8.973  19.844  0.00  0.00    +0.000 NA
ATOM      8  H   UNL     1       3.159   8.115  20.188  0.00  0.00    +0.000 HD
ENDROOT
BRANCH   6   9
ATOM      9  C   UNL     1      -1.313  10.397  19.104  0.00  0.00    +0.000 A 
ATOM     10  C   UNL     1      -2.477  11.105  19.404  0.00  0.00    +0.000 A 
ATOM     11  C   UNL     1      -3.350  11.375  18.345  0.00  0.00    +0.000 A 
ATOM     12  C   UNL     1      -3.050  10.963  17.052  0.00  0.00    +0.000 A 
ATOM     13  C   UNL     1      -1.843  10.311  16.807  0.00  0.00    +0.000 A 
ATOM     14  N   UNL     1      -0.995  10.030  17.831  0.00  0.00    +0.000 NA
ATOM     15  C   UNL     1      -4.162  11.352  16.288  0.00  0.00    +0.000 A 
ATOM     16  N   UNL     1      -5.108  11.951  17.009  0.00  0.00    +0.000 NA
ATOM     17  N   UNL     1      -4.588  12.006  18.275  0.00  0.00    +0.000 N 
ATOM     18  C   UNL     1      -5.291  12.666  19.337  0.00  0.00    +0.000 A 
ATOM     19  C   UNL     1      -6.578  13.150  19.096  0.00  0.00    +0.000 A 
ATOM     20  C   UNL     1      -7.244  13.823  20.118  0.00  0.00    +0.000 A 
ATOM     21  C   UNL     1      -6.618  14.002  21.344  0.00  0.00    +0.000 A 
ATOM     22  C   UNL     1      -5.344  13.485  21.507  0.00  0.00    +0.000 A 
ATOM     23  N   UNL     1      -4.674  12.823  20.540  0.00  0.00    +0.000 NA
ENDBRANCH   6   9
BRANCH   1  28
ATOM     24  C   UNL     1       2.344   5.144  19.984  0.00  0.00    +0.000 C 
ATOM     25  C   UNL     1       2.708   4.433  18.686  0.00  0.00    +0.000 C 
ATOM     26  C   UNL     1       3.413   5.503  17.873  0.00  0.00    +0.000 C 
ATOM     27  C   UNL     1       2.711   6.812  18.224  0.00  0.00    +0.000 C 
ATOM     28  C   UNL     1       1.931   6.580  19.539  0.00  0.00    +0.000 C 
BRANCH  24  29
ATOM     29  N   UNL     1       1.327   4.387  20.718  0.00  0.00    +0.000 NA
ATOM     30  H   UNL     1       1.751   3.606  21.210  0.00  0.00    +0.000 HD
ATOM     31  H   UNL     1       0.631   4.008  20.080  0.00  0.00    +0.000 HD
ENDBRANCH  24  29
ENDBRANCH   1  28
TORSDOF 3
ENDMDL
MODEL 9
REMARK VINA RESULT:      -7.1      1.764      7.980
REMARK  Name = 
REMARK  3 active torsions:
REMARK  status: ('A' for Active; 'I' for Inactive)
REMARK    1  A    between atoms: N_1  and  C_2
REMARK    2  A    between atoms: C_6  and  N_7
REMARK    3  A    between atoms: C_12  and  C_13
REMARK                            x       y       z     vdW  Elec       q    Type
REMARK                         _______ _______ _______ _____ _____    ______ ____
ROOT
ATOM      1  N   UNL     1       3.379   4.297  18.736  0.00  0.00    +0.000 N 
ATOM      2  C   UNL     1       3.310   5.661  18.401  0.00  0.00    +0.000 A 
ATOM      3  C   UNL     1       4.029   6.132  17.302  0.00  0.00    +0.000 A 
ATOM      4  N   UNL     1       4.012   7.417  16.880  0.00  0.00    +0.000 NA
ATOM      5  C   UNL     1       3.203   8.234  17.600  0.00  0.00    +0.000 A 
ATOM      6  C   UNL     1       2.420   7.789  18.662  0.00  0.00    +0.000 A 
ATOM      7  N   UNL     1       2.464   6.480  19.055  0.00  0.00    +0.000 NA
ATOM      8  H   UNL     1       2.697   3.829  18.144  0.00  0.00    +0.000 HD
ENDROOT
BRANCH   6   9
ATOM      9  C   UNL     1       1.458   8.663  19.363  0.00  0.00    +0.000 A 
ATOM     10  C   UNL     1       0.346   9.185  18.702  0.00  0.00    +0.000 A 
ATOM     11  C   UNL     1      -0.435  10.111  19.400  0.00  0.00    +0.000 A 
ATOM     12  C   UNL     1      -0.116  10.473  20.703  0.00  0.00    +0.000 A 
ATOM     13  C   UNL     1       0.975   9.872  21.331  0.00  0.00    +0.000 A 
ATOM     14  N   UNL     1       1.750   8.984  20.656  0.00  0.00    +0.000 NA
ATOM     15  C   UNL     1      -1.070  11.445  21.046  0.00  0.00    +0.000 A 
ATOM     16  N   UNL     1      -1.928  11.705  20.062  0.00  0.00    +0.000 NA
ATOM     17  N   UNL     1      -1.564  10.848  19.057  0.00  0.00    +0.000 N 
ATOM     18  C   UNL     1      -2.318  10.772  17.839  0.00  0.00    +0.000 A 
ATOM     19  C   UNL     1      -3.363  11.674  17.634  0.00  0.00    +0.000 A 
ATOM     20  C   UNL     1      -4.117  11.574  16.467  0.00  0.00    +0.000 A 
ATOM     21  C   UNL     1      -3.819  10.584  15.540  0.00  0.00    +0.000 A 
ATOM     22  C   UNL     1      -2.762   9.733  15.813  0.00  0.00    +0.000 A 
ATOM     23  N   UNL     1      -2.008   9.807  16.930  0.00  0.00    +0.000 NA
ENDBRANCH   6   9
BRANCH   1  28
ATOM     24  C   UNL     1       3.411   2.494  20.489  0.00  0.00    +0.000 C 
ATOM     25  C   UNL     1       2.364   2.151  21.544  0.00  0.00    +0.000 C 
ATOM     26  C   UNL     1       1.131   2.907  21.088  0.00  0.00    +0.000 C 
ATOM     27  C   UNL     1       1.649   4.200  20.467  0.00  0.00    +0.000 C 
ATOM     28  C   UNL     1       3.150   3.995  20.157  0.00  0.00    +0.000 C 
BRANCH  24  29
ATOM     29  N   UNL     1       4.755   2.173  20.975  0.00  0.00    +0.000 NA
ATOM     30  H   UNL     1       5.015   1.229  20.704  0.00  0.00    +0.000 HD
ATOM     31  H   UNL     1       4.793   2.223  21.990  0.00  0.00    +0.000 HD
ENDBRANCH  24  29
ENDBRANCH   1  28
TORSDOF 3
ENDMDL
