MODEL 1
REMARK VINA RESULT:      -9.9      0.000      0.000
REMARK  Name = 
REMARK  5 active torsions:
REMARK  status: ('A' for Active; 'I' for Inactive)
REMARK    1  A    between atoms: C_1  and  C_2
REMARK    2  A    between atoms: C_11  and  N_12
REMARK    3  A    between atoms: N_12  and  C_13
REMARK    4  A    between atoms: C_15  and  C_16
REMARK    5  A    between atoms: C_20  and  C_21
REMARK                            x       y       z     vdW  Elec       q    Type
REMARK                         _______ _______ _______ _____ _____    ______ ____
ROOT
ATOM      1  C   UNL     1      -0.188  10.865  19.319  0.00  0.00    +0.000 A 
ATOM      2  C   UNL     1       0.667  10.024  18.715  0.00  0.00    +0.000 A 
ATOM      3  C   UNL     1       1.358   8.983  19.522  0.00  0.00    +0.000 A 
ATOM      4  N   UNL     1       1.179   8.796  20.796  0.00  0.00    +0.000 NA
ATOM      5  N   UNL     1       0.314   9.688  21.350  0.00  0.00    +0.000 N 
ATOM      6  C   UNL     1      -0.049   9.724  22.668  0.00  0.00    +0.000 A 
ATOM      7  C   UNL     1      -0.913  10.787  22.787  0.00  0.00    +0.000 A 
ATOM      8  N   UNL     1      -1.094  11.414  21.579  0.00  0.00    +0.000 NA
ATOM      9  C   UNL     1      -0.354  10.726  20.726  0.00  0.00    +0.000 A 
ENDROOT
BRANCH   3  10
ATOM     10  C   UNL     1       2.302   8.106  18.773  0.00  0.00    +0.000 A 
ATOM     11  C   UNL     1       2.727   8.441  17.480  0.00  0.00    +0.000 A 
ATOM     12  C   UNL     1       3.648   7.635  16.816  0.00  0.00    +0.000 A 
ATOM     13  C   UNL     1       4.147   6.492  17.438  0.00  0.00    +0.000 A 
ATOM     14  C   UNL     1       3.664   6.099  18.692  0.00  0.00    +0.000 A 
ATOM     15  C   UNL     1       2.778   6.939  19.380  0.00  0.00    +0.000 A 
BRANCH  14  16
ATOM     16  C   UNL     1       4.084   4.828  19.350  0.00  0.00    +0.000 C 
ATOM     17  O   UNL     1       5.279   4.696  19.594  0.00  0.00    +0.000 OA
ATOM     18  N   UNL     1       3.139   3.864  19.714  0.00  0.00    +0.000 N 
ATOM     19  C   UNL     1       1.681   3.915  19.545  0.00  0.00    +0.000 C 
ATOM     20  C   UNL     1       0.937   3.462  20.806  0.00  0.00    +0.000 C 
ATOM     21  O   UNL     1       1.413   2.199  21.279  0.00  0.00    +0.000 OA
ATOM     22  C   UNL     1       2.819   2.273  21.568  0.00  0.00    +0.000 C 
ATOM     23  C   UNL     1       3.613   2.606  20.301  0.00  0.00    +0.000 C 
ENDBRANCH  14  16
ENDBRANCH   3  10
BRANCH   1  24
ATOM     24  N   UNL     1      -0.898  11.850  18.638  0.00  0.00    +0.000 N 
ATOM     25  H   UNL     1      -0.930  12.698  19.206  0.00  0.00    +0.000 HD
BRANCH  24  36
ATOM     26  C   UNL     1      -5.084  13.767  20.444  0.00  0.00    +0.000 C 
ATOM     27  C   UNL     1      -5.614  12.339  20.467  0.00  0.00    +0.000 C 
ATOM     28  C   UNL     1      -7.103  12.332  20.852  0.00  0.00    +0.000 C 
ATOM     29  C   UNL     1      -7.580  10.991  20.322  0.00  0.00    +0.000 C 
ATOM     30  C   UNL     1      -6.804  10.822  19.014  0.00  0.00    +0.000 C 
ATOM     31  N   UNL     1      -5.651  11.712  19.145  0.00  0.00    +0.000 N 
ATOM     32  C   UNL     1      -4.525  11.503  18.374  0.00  0.00    +0.000 A 
ATOM     33  C   UNL     1      -4.658  11.151  17.032  0.00  0.00    +0.000 A 
ATOM     34  C   UNL     1      -3.535  11.017  16.226  0.00  0.00    +0.000 A 
ATOM     35  C   UNL     1      -2.286  11.245  16.776  0.00  0.00    +0.000 A 
ATOM     36  C   UNL     1      -2.199  11.603  18.116  0.00  0.00    +0.000 A 
ATOM     37  N   UNL     1      -3.299  11.709  18.902  0.00  0.00    +0.000 NA
ENDBRANCH  24  36
ENDBRANCH   1  24
TORSDOF 4
ENDMDL
MODEL 2
REMARK VINA RESULT:      -9.3      1.250      1.522
REMARK  Name = 
REMARK  5 active torsions:
REMARK  status: ('A' for Active; 'I' for Inactive)
REMARK    1  A    between atoms: C_1  and  C_2
REMARK    2  A    between atoms: C_11  and  N_12
REMARK    3  A    between atoms: N_12  and  C_13
REMARK    4  A    between atoms: C_15  and  C_16
REMARK    5  A    between atoms: C_20  and  C_21
REMARK                            x       y       z     vdW  Elec       q    Type
REMARK                         _______ _______ _______ _____ _____    ______ ____
ROOT
ATOM      1  C   UNL     1      -0.156  10.799  18.924  0.00  0.00    +0.000 A 
ATOM      2  C   UNL     1       0.642   9.891  18.338  0.00  0.00    +0.000 A 
ATOM      3  C   UNL     1       1.345   8.886  19.181  0.00  0.00    +0.000 A 
ATOM      4  N   UNL     1       1.226   8.793  20.472  0.00  0.00    +0.000 NA
ATOM      5  N   UNL     1       0.417   9.748  21.005  0.00  0.00    +0.000 N 
ATOM      6  C   UNL     1       0.124   9.886  22.334  0.00  0.00    +0.000 A 
ATOM      7  C   UNL     1      -0.702  10.981  22.420  0.00  0.00    +0.000 A 
ATOM      8  N   UNL     1      -0.928  11.529  21.182  0.00  0.00    +0.000 NA
ATOM      9  C   UNL     1      -0.253  10.761  20.344  0.00  0.00    +0.000 A 
ENDROOT
BRANCH   3  10
ATOM     10  C   UNL     1       2.222   7.930  18.450  0.00  0.00    +0.000 A 
ATOM     11  C   UNL     1       3.326   8.382  17.713  0.00  0.00    +0.000 A 
ATOM     12  C   UNL     1       4.164   7.470  17.078  0.00  0.00    +0.000 A 
ATOM     13  C   UNL     1       3.904   6.103  17.175  0.00  0.00    +0.000 A 
ATOM     14  C   UNL     1       2.757   5.645  17.832  0.00  0.00    +0.000 A 
ATOM     15  C   UNL     1       1.945   6.560  18.514  0.00  0.00    +0.000 A 
BRANCH  14  16
ATOM     16  C   UNL     1       2.376   4.203  17.867  0.00  0.00    +0.000 C 
ATOM     17  O   UNL     1       1.597   3.811  17.006  0.00  0.00    +0.000 OA
ATOM     18  N   UNL     1       2.933   3.339  18.816  0.00  0.00    +0.000 N 
ATOM     19  C   UNL     1       3.919   3.652  19.859  0.00  0.00    +0.000 C 
ATOM     20  C   UNL     1       5.033   2.602  19.933  0.00  0.00    +0.000 C 
ATOM     21  O   UNL     1       4.508   1.275  20.025  0.00  0.00    +0.000 OA
ATOM     22  C   UNL     1       3.674   0.990  18.889  0.00  0.00    +0.000 C 
ATOM     23  C   UNL     1       2.476   1.946  18.846  0.00  0.00    +0.000 C 
ENDBRANCH  14  16
ENDBRANCH   3  10
BRANCH   1  24
ATOM     24  N   UNL     1      -0.872  11.756  18.212  0.00  0.00    +0.000 N 
ATOM     25  H   UNL     1      -0.838  12.646  18.712  0.00  0.00    +0.000 HD
BRANCH  24  36
ATOM     26  C   UNL     1      -4.890  13.683  20.357  0.00  0.00    +0.000 C 
ATOM     27  C   UNL     1      -5.427  12.259  20.408  0.00  0.00    +0.000 C 
ATOM     28  C   UNL     1      -6.882  12.258  20.907  0.00  0.00    +0.000 C 
ATOM     29  C   UNL     1      -7.409  10.925  20.403  0.00  0.00    +0.000 C 
ATOM     30  C   UNL     1      -6.738  10.764  19.037  0.00  0.00    +0.000 C 
ATOM     31  N   UNL     1      -5.572  11.645  19.087  0.00  0.00    +0.000 N 
ATOM     32  C   UNL     1      -4.511  11.437  18.228  0.00  0.00    +0.000 A 
ATOM     33  C   UNL     1      -4.751  11.098  16.897  0.00  0.00    +0.000 A 
ATOM     34  C   UNL     1      -3.695  10.966  16.004  0.00  0.00    +0.000 A 
ATOM     35  C   UNL     1      -2.405  11.180  16.458  0.00  0.00    +0.000 A 
ATOM     36  C   UNL     1      -2.211  11.524  17.790  0.00  0.00    +0.000 A 
ATOM     37  N   UNL     1      -3.246  11.629  18.661  0.00  0.00    +0.000 NA
ENDBRANCH  24  36
ENDBRANCH   1  24
TORSDOF 4
ENDMDL
MODEL 3
REMARK VINA RESULT:      -9.2      1.239      1.475
REMARK  Name = 
REMARK  5 active torsions:
REMARK  status: ('A' for Active; 'I' for Inactive)
REMARK    1  A    between atoms: C_1  and  C_2
REMARK    2  A    between atoms: C_11  and  N_12
REMARK    3  A    between atoms: N_12  and  C_13
REMARK    4  A    between atoms: C_15  and  C_16
REMARK    5  A    between atoms: C_20  and  C_21
REMARK                            x       y       z     vdW  Elec       q    Type
REMARK                         _______ _______ _______ _____ _____    ______ ____
ROOT
ATOM      1  C   UNL     1      -0.669  11.218  19.380  0.00  0.00    +0.000 A 
ATOM      2  C   UNL     1       0.165  10.279  18.903  0.00  0.00    +0.000 A 
ATOM      3  C   UNL     1       0.877   9.386  19.856  0.00  0.00    +0.000 A 
ATOM      4  N   UNL     1       0.735   9.419  21.147  0.00  0.00    +0.000 NA
ATOM      5  N   UNL     1      -0.110  10.400  21.566  0.00  0.00    +0.000 N 
ATOM      6  C   UNL     1      -0.433  10.663  22.869  0.00  0.00    +0.000 A 
ATOM      7  C   UNL     1      -1.289  11.737  22.830  0.00  0.00    +0.000 A 
ATOM      8  N   UNL     1      -1.505  12.151  21.539  0.00  0.00    +0.000 NA
ATOM      9  C   UNL     1      -0.793  11.322  20.795  0.00  0.00    +0.000 A 
ENDROOT
BRANCH   3  10
ATOM     10  C   UNL     1       1.794   8.386  19.240  0.00  0.00    +0.000 A 
ATOM     11  C   UNL     1       2.447   8.655  18.029  0.00  0.00    +0.000 A 
ATOM     12  C   UNL     1       3.339   7.730  17.495  0.00  0.00    +0.000 A 
ATOM     13  C   UNL     1       3.583   6.532  18.166  0.00  0.00    +0.000 A 
ATOM     14  C   UNL     1       2.872   6.213  19.328  0.00  0.00    +0.000 A 
ATOM     15  C   UNL     1       2.015   7.168  19.892  0.00  0.00    +0.000 A 
BRANCH  14  16
ATOM     16  C   UNL     1       3.016   4.900  20.021  0.00  0.00    +0.000 C 
ATOM     17  O   UNL     1       2.607   4.832  21.175  0.00  0.00    +0.000 OA
ATOM     18  N   UNL     1       3.547   3.793  19.353  0.00  0.00    +0.000 N 
ATOM     19  C   UNL     1       4.014   3.711  17.962  0.00  0.00    +0.000 C 
ATOM     20  C   UNL     1       3.505   2.450  17.255  0.00  0.00    +0.000 C 
ATOM     21  O   UNL     1       3.772   1.269  18.017  0.00  0.00    +0.000 OA
ATOM     22  C   UNL     1       3.153   1.361  19.311  0.00  0.00    +0.000 C 
ATOM     23  C   UNL     1       3.725   2.543  20.100  0.00  0.00    +0.000 C 
ENDBRANCH  14  16
ENDBRANCH   3  10
BRANCH   1  24
ATOM     24  N   UNL     1      -1.397  12.079  18.562  0.00  0.00    +0.000 N 
ATOM     25  H   UNL     1      -1.366  13.022  18.951  0.00  0.00    +0.000 HD
BRANCH  24  36
ATOM     26  C   UNL     1      -5.427  13.871  20.799  0.00  0.00    +0.000 C 
ATOM     27  C   UNL     1      -5.905  12.427  20.880  0.00  0.00    +0.000 C 
ATOM     28  C   UNL     1      -7.344  12.374  21.420  0.00  0.00    +0.000 C 
ATOM     29  C   UNL     1      -7.832  11.016  20.946  0.00  0.00    +0.000 C 
ATOM     30  C   UNL     1      -7.193  10.866  19.564  0.00  0.00    +0.000 C 
ATOM     31  N   UNL     1      -6.062  11.793  19.571  0.00  0.00    +0.000 N 
ATOM     32  C   UNL     1      -5.018  11.616  18.685  0.00  0.00    +0.000 A 
ATOM     33  C   UNL     1      -5.281  11.252  17.365  0.00  0.00    +0.000 A 
ATOM     34  C   UNL     1      -4.246  11.151  16.444  0.00  0.00    +0.000 A 
ATOM     35  C   UNL     1      -2.954  11.421  16.859  0.00  0.00    +0.000 A 
ATOM     36  C   UNL     1      -2.737  11.788  18.181  0.00  0.00    +0.000 A 
ATOM     37  N   UNL     1      -3.750  11.863  19.080  0.00  0.00    +0.000 NA
ENDBRANCH  24  36
ENDBRANCH   1  24
TORSDOF 4
ENDMDL
MODEL 4
REMARK VINA RESULT:      -9.1      1.820      3.013
REMARK  Name = 
REMARK  5 active torsions:
REMARK  status: ('A' for Active; 'I' for Inactive)
REMARK    1  A    between atoms: C_1  and  C_2
REMARK    2  A    between atoms: C_11  and  N_12
REMARK    3  A    between atoms: N_12  and  C_13
REMARK    4  A    between atoms: C_15  and  C_16
REMARK    5  A    between atoms: C_20  and  C_21
REMARK                            x       y       z     vdW  Elec       q    Type
REMARK                         _______ _______ _______ _____ _____    ______ ____
ROOT
ATOM      1  C   UNL     1      -0.438  10.777  19.779  0.00  0.00    +0.000 A 
ATOM      2  C   UNL     1       0.256   9.652  19.541  0.00  0.00    +0.000 A 
ATOM      3  C   UNL     1       0.632   8.773  20.680  0.00  0.00    +0.000 A 
ATOM      4  N   UNL     1       0.312   8.994  21.921  0.00  0.00    +0.000 NA
ATOM      5  N   UNL     1      -0.376  10.155  22.096  0.00  0.00    +0.000 N 
ATOM      6  C   UNL     1      -0.828  10.633  23.295  0.00  0.00    +0.000 A 
ATOM      7  C   UNL     1      -1.442  11.829  23.009  0.00  0.00    +0.000 A 
ATOM      8  N   UNL     1      -1.381  12.108  21.667  0.00  0.00    +0.000 NA
ATOM      9  C   UNL     1      -0.745  11.079  21.136  0.00  0.00    +0.000 A 
ENDROOT
BRANCH   3  10
ATOM     10  C   UNL     1       1.415   7.556  20.326  0.00  0.00    +0.000 A 
ATOM     11  C   UNL     1       1.271   6.367  21.056  0.00  0.00    +0.000 A 
ATOM     12  C   UNL     1       1.974   5.226  20.680  0.00  0.00    +0.000 A 
ATOM     13  C   UNL     1       2.823   5.265  19.574  0.00  0.00    +0.000 A 
ATOM     14  C   UNL     1       3.042   6.468  18.892  0.00  0.00    +0.000 A 
ATOM     15  C   UNL     1       2.295   7.601  19.240  0.00  0.00    +0.000 A 
BRANCH  14  16
ATOM     16  C   UNL     1       4.023   6.587  17.774  0.00  0.00    +0.000 C 
ATOM     17  O   UNL     1       3.686   7.261  16.807  0.00  0.00    +0.000 OA
ATOM     18  N   UNL     1       5.286   5.993  17.864  0.00  0.00    +0.000 N 
ATOM     19  C   UNL     1       5.846   5.218  18.979  0.00  0.00    +0.000 C 
ATOM     20  C   UNL     1       7.285   5.635  19.307  0.00  0.00    +0.000 C 
ATOM     21  O   UNL     1       8.115   5.641  18.142  0.00  0.00    +0.000 OA
ATOM     22  C   UNL     1       7.582   6.541  17.156  0.00  0.00    +0.000 C 
ATOM     23  C   UNL     1       6.187   6.089  16.710  0.00  0.00    +0.000 C 
ENDBRANCH  14  16
ENDBRANCH   3  10
BRANCH   1  24
ATOM     24  N   UNL     1      -0.855  11.643  18.771  0.00  0.00    +0.000 N 
ATOM     25  H   UNL     1      -0.729  12.608  19.081  0.00  0.00    +0.000 HD
BRANCH  24  36
ATOM     26  C   UNL     1      -4.982  13.783  20.459  0.00  0.00    +0.000 C 
ATOM     27  C   UNL     1      -5.616  12.400  20.378  0.00  0.00    +0.000 C 
ATOM     28  C   UNL     1      -7.120  12.488  20.684  0.00  0.00    +0.000 C 
ATOM     29  C   UNL     1      -7.665  11.216  20.060  0.00  0.00    +0.000 C 
ATOM     30  C   UNL     1      -6.832  11.053  18.787  0.00  0.00    +0.000 C 
ATOM     31  N   UNL     1      -5.625  11.844  19.024  0.00  0.00    +0.000 N 
ATOM     32  C   UNL     1      -4.477  11.588  18.302  0.00  0.00    +0.000 A 
ATOM     33  C   UNL     1      -4.561  11.314  16.938  0.00  0.00    +0.000 A 
ATOM     34  C   UNL     1      -3.408  11.135  16.185  0.00  0.00    +0.000 A 
ATOM     35  C   UNL     1      -2.178  11.239  16.810  0.00  0.00    +0.000 A 
ATOM     36  C   UNL     1      -2.139  11.523  18.170  0.00  0.00    +0.000 A 
ATOM     37  N   UNL     1      -3.270  11.673  18.904  0.00  0.00    +0.000 NA
ENDBRANCH  24  36
ENDBRANCH   1  24
TORSDOF 4
ENDMDL
MODEL 5
REMARK VINA RESULT:      -9.0      1.761      3.204
REMARK  Name = 
REMARK  5 active torsions:
REMARK  status: ('A' for Active; 'I' for Inactive)
REMARK    1  A    between atoms: C_1  and  C_2
REMARK    2  A    between atoms: C_11  and  N_12
REMARK    3  A    between atoms: N_12  and  C_13
REMARK    4  A    between atoms: C_15  and  C_16
REMARK    5  A    between atoms: C_20  and  C_21
REMARK                            x       y       z     vdW  Elec       q    Type
REMARK                         _______ _______ _______ _____ _____    ______ ____
ROOT
ATOM      1  C   UNL     1       0.397   9.693  19.554  0.00  0.00    +0.000 A 
ATOM      2  C   UNL     1       1.026   8.524  19.348  0.00  0.00    +0.000 A 
ATOM      3  C   UNL     1       1.351   7.656  20.511  0.00  0.00    +0.000 A 
ATOM      4  N   UNL     1       1.044   7.928  21.745  0.00  0.00    +0.000 NA
ATOM      5  N   UNL     1       0.423   9.131  21.887  0.00  0.00    +0.000 N 
ATOM      6  C   UNL     1      -0.002   9.667  23.072  0.00  0.00    +0.000 A 
ATOM      7  C   UNL     1      -0.547  10.887  22.754  0.00  0.00    +0.000 A 
ATOM      8  N   UNL     1      -0.470  11.126  21.404  0.00  0.00    +0.000 NA
ATOM      9  C   UNL     1       0.107  10.048  20.902  0.00  0.00    +0.000 A 
ENDROOT
BRANCH   3  10
ATOM     10  C   UNL     1       2.064   6.388  20.192  0.00  0.00    +0.000 A 
ATOM     11  C   UNL     1       1.443   5.144  20.378  0.00  0.00    +0.000 A 
ATOM     12  C   UNL     1       2.106   3.972  20.026  0.00  0.00    +0.000 A 
ATOM     13  C   UNL     1       3.391   4.035  19.488  0.00  0.00    +0.000 A 
ATOM     14  C   UNL     1       4.055   5.262  19.380  0.00  0.00    +0.000 A 
ATOM     15  C   UNL     1       3.366   6.444  19.685  0.00  0.00    +0.000 A 
BRANCH  14  16
ATOM     16  C   UNL     1       5.468   5.371  18.915  0.00  0.00    +0.000 C 
ATOM     17  O   UNL     1       6.345   5.134  19.738  0.00  0.00    +0.000 OA
ATOM     18  N   UNL     1       5.761   5.679  17.583  0.00  0.00    +0.000 N 
ATOM     19  C   UNL     1       4.821   5.923  16.481  0.00  0.00    +0.000 C 
ATOM     20  C   UNL     1       5.230   5.186  15.200  0.00  0.00    +0.000 C 
ATOM     21  O   UNL     1       6.594   5.440  14.853  0.00  0.00    +0.000 OA
ATOM     22  C   UNL     1       7.464   5.033  15.923  0.00  0.00    +0.000 C 
ATOM     23  C   UNL     1       7.167   5.835  17.194  0.00  0.00    +0.000 C 
ENDBRANCH  14  16
ENDBRANCH   3  10
BRANCH   1  24
ATOM     24  N   UNL     1       0.030  10.554  18.523  0.00  0.00    +0.000 N 
ATOM     25  H   UNL     1       0.417  11.481  18.703  0.00  0.00    +0.000 HD
BRANCH  24  36
ATOM     26  C   UNL     1      -3.090  13.974  20.263  0.00  0.00    +0.000 C 
ATOM     27  C   UNL     1      -4.050  12.821  20.531  0.00  0.00    +0.000 C 
ATOM     28  C   UNL     1      -5.412  13.363  20.998  0.00  0.00    +0.000 C 
ATOM     29  C   UNL     1      -6.352  12.207  20.704  0.00  0.00    +0.000 C 
ATOM     30  C   UNL     1      -5.815  11.629  19.393  0.00  0.00    +0.000 C 
ATOM     31  N   UNL     1      -4.428  12.087  19.322  0.00  0.00    +0.000 N 
ATOM     32  C   UNL     1      -3.519  11.419  18.526  0.00  0.00    +0.000 A 
ATOM     33  C   UNL     1      -3.899  10.971  17.263  0.00  0.00    +0.000 A 
ATOM     34  C   UNL     1      -2.972  10.370  16.421  0.00  0.00    +0.000 A 
ATOM     35  C   UNL     1      -1.666  10.230  16.857  0.00  0.00    +0.000 A 
ATOM     36  C   UNL     1      -1.327  10.698  18.121  0.00  0.00    +0.000 A 
ATOM     37  N   UNL     1      -2.244  11.262  18.946  0.00  0.00    +0.000 NA
ENDBRANCH  24  36
ENDBRANCH   1  24
TORSDOF 4
ENDMDL
MODEL 6
REMARK VINA RESULT:      -9.0      3.511      4.988
REMARK  Name = 
REMARK  5 active torsions:
REMARK  status: ('A' for Active; 'I' for Inactive)
REMARK    1  A    between atoms: C_1  and  C_2
REMARK    2  A    between atoms: C_11  and  N_12
REMARK    3  A    between atoms: N_12  and  C_13
REMARK    4  A    between atoms: C_15  and  C_16
REMARK    5  A    between atoms: C_20  and  C_21
REMARK                            x       y       z     vdW  Elec       q    Type
REMARK                         _______ _______ _______ _____ _____    ______ ____
ROOT
ATOM      1  C   UNL     1       0.690   9.954  19.504  0.00  0.00    +0.000 A 
ATOM      2  C   UNL     1       1.292   8.767  19.324  0.00  0.00    +0.000 A 
ATOM      3  C   UNL     1       1.426   7.837  20.477  0.00  0.00    +0.000 A 
ATOM      4  N   UNL     1       0.973   8.071  21.673  0.00  0.00    +0.000 NA
ATOM      5  N   UNL     1       0.388   9.294  21.792  0.00  0.00    +0.000 N 
ATOM      6  C   UNL     1      -0.164   9.799  22.937  0.00  0.00    +0.000 A 
ATOM      7  C   UNL     1      -0.613  11.056  22.610  0.00  0.00    +0.000 A 
ATOM      8  N   UNL     1      -0.351  11.348  21.294  0.00  0.00    +0.000 NA
ATOM      9  C   UNL     1       0.242  10.266  20.819  0.00  0.00    +0.000 A 
ENDROOT
BRANCH   3  10
ATOM     10  C   UNL     1       2.122   6.551  20.192  0.00  0.00    +0.000 A 
ATOM     11  C   UNL     1       1.490   5.321  20.424  0.00  0.00    +0.000 A 
ATOM     12  C   UNL     1       2.137   4.131  20.104  0.00  0.00    +0.000 A 
ATOM     13  C   UNL     1       3.417   4.162  19.551  0.00  0.00    +0.000 A 
ATOM     14  C   UNL     1       4.092   5.378  19.396  0.00  0.00    +0.000 A 
ATOM     15  C   UNL     1       3.420   6.576  19.670  0.00  0.00    +0.000 A 
BRANCH  14  16
ATOM     16  C   UNL     1       5.502   5.456  18.913  0.00  0.00    +0.000 C 
ATOM     17  O   UNL     1       6.384   5.209  19.728  0.00  0.00    +0.000 OA
ATOM     18  N   UNL     1       5.785   5.747  17.575  0.00  0.00    +0.000 N 
ATOM     19  C   UNL     1       4.836   6.000  16.482  0.00  0.00    +0.000 C 
ATOM     20  C   UNL     1       5.215   5.244  15.203  0.00  0.00    +0.000 C 
ATOM     21  O   UNL     1       6.579   5.469  14.838  0.00  0.00    +0.000 OA
ATOM     22  C   UNL     1       7.454   5.055  15.900  0.00  0.00    +0.000 C 
ATOM     23  C   UNL     1       7.188   5.873  17.168  0.00  0.00    +0.000 C 
ENDBRANCH  14  16
ENDBRANCH   3  10
BRANCH   1  24
ATOM     24  N   UNL     1       0.496  10.874  18.477  0.00  0.00    +0.000 N 
ATOM     25  H   UNL     1       0.699  10.428  17.581  0.00  0.00    +0.000 HD
BRANCH  24  36
ATOM     26  C   UNL     1      -1.194  14.796  20.971  0.00  0.00    +0.000 C 
ATOM     27  C   UNL     1      -1.072  15.561  19.660  0.00  0.00    +0.000 C 
ATOM     28  C   UNL     1      -1.361  17.053  19.888  0.00  0.00    +0.000 C 
ATOM     29  C   UNL     1      -0.699  17.711  18.690  0.00  0.00    +0.000 C 
ATOM     30  C   UNL     1       0.568  16.880  18.476  0.00  0.00    +0.000 C 
ATOM     31  N   UNL     1       0.296  15.605  19.139  0.00  0.00    +0.000 N 
ATOM     32  C   UNL     1       1.010  14.477  18.789  0.00  0.00    +0.000 A 
ATOM     33  C   UNL     1       2.381  14.567  18.556  0.00  0.00    +0.000 A 
ATOM     34  C   UNL     1       3.125  13.427  18.282  0.00  0.00    +0.000 A 
ATOM     35  C   UNL     1       2.482  12.201  18.251  0.00  0.00    +0.000 A 
ATOM     36  C   UNL     1       1.115  12.155  18.497  0.00  0.00    +0.000 A 
ATOM     37  N   UNL     1       0.392  13.276  18.740  0.00  0.00    +0.000 NA
ENDBRANCH  24  36
ENDBRANCH   1  24
TORSDOF 4
ENDMDL
MODEL 7
REMARK VINA RESULT:      -8.9      3.194      4.613
REMARK  Name = 
REMARK  5 active torsions:
REMARK  status: ('A' for Active; 'I' for Inactive)
REMARK    1  A    between atoms: C_1  and  C_2
REMARK    2  A    between atoms: C_11  and  N_12
REMARK    3  A    between atoms: N_12  and  C_13
REMARK    4  A    between atoms: C_15  and  C_16
REMARK    5  A    between atoms: C_20  and  C_21
REMARK                            x       y       z     vdW  Elec       q    Type
REMARK                         _______ _______ _______ _____ _____    ______ ____
ROOT
ATOM      1  C   UNL     1       0.301  11.073  19.881  0.00  0.00    +0.000 A 
ATOM      2  C   UNL     1       1.069  10.227  19.176  0.00  0.00    +0.000 A 
ATOM      3  C   UNL     1       1.442   8.915  19.770  0.00  0.00    +0.000 A 
ATOM      4  N   UNL     1       1.053   8.495  20.937  0.00  0.00    +0.000 NA
ATOM      5  N   UNL     1       0.291   9.403  21.605  0.00  0.00    +0.000 N 
ATOM      6  C   UNL     1      -0.244   9.224  22.851  0.00  0.00    +0.000 A 
ATOM      7  C   UNL     1      -0.913  10.390  23.139  0.00  0.00    +0.000 A 
ATOM      8  N   UNL     1      -0.806  11.289  22.108  0.00  0.00    +0.000 NA
ATOM      9  C   UNL     1      -0.086  10.667  21.190  0.00  0.00    +0.000 A 
ENDROOT
BRANCH   3  10
ATOM     10  C   UNL     1       2.311   8.047  18.926  0.00  0.00    +0.000 A 
ATOM     11  C   UNL     1       2.636   8.412  17.612  0.00  0.00    +0.000 A 
ATOM     12  C   UNL     1       3.490   7.614  16.856  0.00  0.00    +0.000 A 
ATOM     13  C   UNL     1       4.022   6.449  17.407  0.00  0.00    +0.000 A 
ATOM     14  C   UNL     1       3.635   6.028  18.684  0.00  0.00    +0.000 A 
ATOM     15  C   UNL     1       2.818   6.859  19.462  0.00  0.00    +0.000 A 
BRANCH  14  16
ATOM     16  C   UNL     1       4.089   4.735  19.274  0.00  0.00    +0.000 C 
ATOM     17  O   UNL     1       5.298   4.574  19.399  0.00  0.00    +0.000 OA
ATOM     18  N   UNL     1       3.162   3.781  19.706  0.00  0.00    +0.000 N 
ATOM     19  C   UNL     1       1.696   3.864  19.678  0.00  0.00    +0.000 C 
ATOM     20  C   UNL     1       1.066   3.397  20.995  0.00  0.00    +0.000 C 
ATOM     21  O   UNL     1       1.558   2.115  21.395  0.00  0.00    +0.000 OA
ATOM     22  C   UNL     1       2.986   2.156  21.550  0.00  0.00    +0.000 C 
ATOM     23  C   UNL     1       3.663   2.502  20.220  0.00  0.00    +0.000 C 
ENDBRANCH  14  16
ENDBRANCH   3  10
BRANCH   1  24
ATOM     24  N   UNL     1      -0.119  12.308  19.393  0.00  0.00    +0.000 N 
ATOM     25  H   UNL     1      -0.598  12.175  18.502  0.00  0.00    +0.000 HD
BRANCH  24  36
ATOM     26  C   UNL     1      -1.453  17.068  19.245  0.00  0.00    +0.000 C 
ATOM     27  C   UNL     1      -0.608  17.165  17.982  0.00  0.00    +0.000 C 
ATOM     28  C   UNL     1      -0.522  18.627  17.512  0.00  0.00    +0.000 C 
ATOM     29  C   UNL     1       0.719  18.626  16.636  0.00  0.00    +0.000 C 
ATOM     30  C   UNL     1       1.669  17.668  17.357  0.00  0.00    +0.000 C 
ATOM     31  N   UNL     1       0.804  16.846  18.202  0.00  0.00    +0.000 N 
ATOM     32  C   UNL     1       1.241  15.616  18.650  0.00  0.00    +0.000 A 
ATOM     33  C   UNL     1       2.556  15.464  19.088  0.00  0.00    +0.000 A 
ATOM     34  C   UNL     1       2.985  14.253  19.617  0.00  0.00    +0.000 A 
ATOM     35  C   UNL     1       2.085  13.206  19.706  0.00  0.00    +0.000 A 
ATOM     36  C   UNL     1       0.781  13.403  19.265  0.00  0.00    +0.000 A 
ATOM     37  N   UNL     1       0.377  14.581  18.728  0.00  0.00    +0.000 NA
ENDBRANCH  24  36
ENDBRANCH   1  24
TORSDOF 4
ENDMDL
MODEL 8
REMARK VINA RESULT:      -8.7      1.881      2.336
REMARK  Name = 
REMARK  5 active torsions:
REMARK  status: ('A' for Active; 'I' for Inactive)
REMARK    1  A    between atoms: C_1  and  C_2
REMARK    2  A    between atoms: C_11  and  N_12
REMARK    3  A    between atoms: N_12  and  C_13
REMARK    4  A    between atoms: C_15  and  C_16
REMARK    5  A    between atoms: C_20  and  C_21
REMARK                            x       y       z     vdW  Elec       q    Type
REMARK                         _______ _______ _______ _____ _____    ______ ____
ROOT
ATOM      1  C   UNL     1       0.073  10.375  18.747  0.00  0.00    +0.000 A 
ATOM      2  C   UNL     1       0.738   9.240  18.476  0.00  0.00    +0.000 A 
ATOM      3  C   UNL     1       2.152   9.314  18.020  0.00  0.00    +0.000 A 
ATOM      4  N   UNL     1       2.827  10.417  17.884  0.00  0.00    +0.000 NA
ATOM      5  N   UNL     1       2.094  11.530  18.159  0.00  0.00    +0.000 N 
ATOM      6  C   UNL     1       2.552  12.816  18.090  0.00  0.00    +0.000 A 
ATOM      7  C   UNL     1       1.482  13.611  18.425  0.00  0.00    +0.000 A 
ATOM      8  N   UNL     1       0.370  12.852  18.698  0.00  0.00    +0.000 NA
ATOM      9  C   UNL     1       0.768  11.601  18.543  0.00  0.00    +0.000 A 
ENDROOT
BRANCH   3  10
ATOM     10  C   UNL     1       2.806   8.008  17.726  0.00  0.00    +0.000 A 
ATOM     11  C   UNL     1       4.068   7.954  17.119  0.00  0.00    +0.000 A 
ATOM     12  C   UNL     1       4.685   6.726  16.898  0.00  0.00    +0.000 A 
ATOM     13  C   UNL     1       4.046   5.547  17.281  0.00  0.00    +0.000 A 
ATOM     14  C   UNL     1       2.749   5.584  17.806  0.00  0.00    +0.000 A 
ATOM     15  C   UNL     1       2.152   6.822  18.076  0.00  0.00    +0.000 A 
BRANCH  14  16
ATOM     16  C   UNL     1       1.980   4.346  18.128  0.00  0.00    +0.000 C 
ATOM     17  O   UNL     1       1.707   3.601  17.193  0.00  0.00    +0.000 OA
ATOM     18  N   UNL     1       1.639   4.039  19.448  0.00  0.00    +0.000 N 
ATOM     19  C   UNL     1       1.952   4.799  20.666  0.00  0.00    +0.000 C 
ATOM     20  C   UNL     1       2.458   3.895  21.797  0.00  0.00    +0.000 C 
ATOM     21  O   UNL     1       1.581   2.788  22.024  0.00  0.00    +0.000 OA
ATOM     22  C   UNL     1       1.446   2.006  20.827  0.00  0.00    +0.000 C 
ATOM     23  C   UNL     1       0.828   2.843  19.702  0.00  0.00    +0.000 C 
ENDBRANCH  14  16
ENDBRANCH   3  10
BRANCH   1  24
ATOM     24  N   UNL     1      -1.241  10.398  19.204  0.00  0.00    +0.000 N 
ATOM     25  H   UNL     1      -1.468   9.497  19.628  0.00  0.00    +0.000 HD
BRANCH  24  36
ATOM     26  C   UNL     1      -4.496  13.981  20.220  0.00  0.00    +0.000 C 
ATOM     27  C   UNL     1      -5.577  12.953  19.910  0.00  0.00    +0.000 C 
ATOM     28  C   UNL     1      -6.962  13.621  19.923  0.00  0.00    +0.000 C 
ATOM     29  C   UNL     1      -7.807  12.658  19.107  0.00  0.00    +0.000 C 
ATOM     30  C   UNL     1      -6.852  12.179  18.012  0.00  0.00    +0.000 C 
ATOM     31  N   UNL     1      -5.514  12.440  18.541  0.00  0.00    +0.000 N 
ATOM     32  C   UNL     1      -4.426  11.754  18.037  0.00  0.00    +0.000 A 
ATOM     33  C   UNL     1      -4.321  11.529  16.666  0.00  0.00    +0.000 A 
ATOM     34  C   UNL     1      -3.193  10.913  16.140  0.00  0.00    +0.000 A 
ATOM     35  C   UNL     1      -2.176  10.533  16.998  0.00  0.00    +0.000 A 
ATOM     36  C   UNL     1      -2.318  10.784  18.358  0.00  0.00    +0.000 A 
ATOM     37  N   UNL     1      -3.433  11.365  18.867  0.00  0.00    +0.000 NA
ENDBRANCH  24  36
ENDBRANCH   1  24
TORSDOF 4
ENDMDL
MODEL 9
REMARK VINA RESULT:      -8.6      3.581      9.889
REMARK  Name = 
REMARK  5 active torsions:
REMARK  status: ('A' for Active; 'I' for Inactive)
REMARK    1  A    between atoms: C_1  and  C_2
REMARK    2  A    between atoms: C_11  and  N_12
REMARK    3  A    between atoms: N_12  and  C_13
REMARK    4  A    between atoms: C_15  and  C_16
REMARK    5  A    between atoms: C_20  and  C_21
REMARK                            x       y       z     vdW  Elec       q    Type
REMARK                         _______ _______ _______ _____ _____    ______ ____
ROOT
ATOM      1  C   UNL     1       1.226   9.214  18.875  0.00  0.00    +0.000 A 
ATOM      2  C   UNL     1       0.176   9.607  18.136  0.00  0.00    +0.000 A 
ATOM      3  C   UNL     1      -1.051  10.101  18.818  0.00  0.00    +0.000 A 
ATOM      4  N   UNL     1      -1.186  10.212  20.107  0.00  0.00    +0.000 NA
ATOM      5  N   UNL     1      -0.094   9.784  20.797  0.00  0.00    +0.000 N 
ATOM      6  C   UNL     1       0.031   9.783  22.159  0.00  0.00    +0.000 A 
ATOM      7  C   UNL     1       1.272   9.253  22.418  0.00  0.00    +0.000 A 
ATOM      8  N   UNL     1       1.921   8.922  21.254  0.00  0.00    +0.000 NA
ATOM      9  C   UNL     1       1.082   9.263  20.290  0.00  0.00    +0.000 A 
ENDROOT
BRANCH   3  10
ATOM     10  C   UNL     1      -2.172  10.499  17.922  0.00  0.00    +0.000 A 
ATOM     11  C   UNL     1      -2.003  10.545  16.531  0.00  0.00    +0.000 A 
ATOM     12  C   UNL     1      -3.077  10.871  15.707  0.00  0.00    +0.000 A 
ATOM     13  C   UNL     1      -4.322  11.153  16.266  0.00  0.00    +0.000 A 
ATOM     14  C   UNL     1      -4.481  11.197  17.656  0.00  0.00    +0.000 A 
ATOM     15  C   UNL     1      -3.415  10.818  18.481  0.00  0.00    +0.000 A 
BRANCH  14  16
ATOM     16  C   UNL     1      -5.763  11.601  18.303  0.00  0.00    +0.000 C 
ATOM     17  O   UNL     1      -6.796  11.144  17.826  0.00  0.00    +0.000 OA
ATOM     18  N   UNL     1      -5.766  12.423  19.435  0.00  0.00    +0.000 N 
ATOM     19  C   UNL     1      -4.612  12.987  20.148  0.00  0.00    +0.000 C 
ATOM     20  C   UNL     1      -4.744  12.839  21.668  0.00  0.00    +0.000 C 
ATOM     21  O   UNL     1      -6.002  13.326  22.142  0.00  0.00    +0.000 OA
ATOM     22  C   UNL     1      -7.081  12.618  21.509  0.00  0.00    +0.000 C 
ATOM     23  C   UNL     1      -7.056  12.840  19.993  0.00  0.00    +0.000 C 
ENDBRANCH  14  16
ENDBRANCH   3  10
BRANCH   1  24
ATOM     24  N   UNL     1       2.422   8.765  18.321  0.00  0.00    +0.000 N 
ATOM     25  H   UNL     1       2.566   9.216  17.416  0.00  0.00    +0.000 HD
BRANCH  24  36
ATOM     26  C   UNL     1       6.904   6.865  17.451  0.00  0.00    +0.000 C 
ATOM     27  C   UNL     1       6.251   6.100  16.307  0.00  0.00    +0.000 C 
ATOM     28  C   UNL     1       7.255   5.113  15.687  0.00  0.00    +0.000 C 
ATOM     29  C   UNL     1       6.353   4.111  14.988  0.00  0.00    +0.000 C 
ATOM     30  C   UNL     1       5.157   3.980  15.933  0.00  0.00    +0.000 C 
ATOM     31  N   UNL     1       5.187   5.196  16.746  0.00  0.00    +0.000 N 
ATOM     32  C   UNL     1       4.043   5.628  17.387  0.00  0.00    +0.000 A 
ATOM     33  C   UNL     1       3.204   4.704  18.008  0.00  0.00    +0.000 A 
ATOM     34  C   UNL     1       2.095   5.133  18.725  0.00  0.00    +0.000 A 
ATOM     35  C   UNL     1       1.840   6.490  18.815  0.00  0.00    +0.000 A 
ATOM     36  C   UNL     1       2.706   7.378  18.187  0.00  0.00    +0.000 A 
ATOM     37  N   UNL     1       3.775   6.949  17.469  0.00  0.00    +0.000 NA
ENDBRANCH  24  36
ENDBRANCH   1  24
TORSDOF 4
ENDMDL
