MODEL 1
REMARK VINA RESULT:      -9.2      0.000      0.000
REMARK  Name = 
REMARK  6 active torsions:
REMARK  status: ('A' for Active; 'I' for Inactive)
REMARK    1  A    between atoms: C_2  and  C_13
REMARK    2  A    between atoms: N_3  and  C_4
REMARK    3  A    between atoms: C_4  and  C_5
REMARK    4  A    between atoms: C_5  and  C_6
REMARK    5  A    between atoms: C_6  and  N_7
REMARK    6  A    between atoms: N_19  and  C_20
REMARK                            x       y       z     vdW  Elec       q    Type
REMARK                         _______ _______ _______ _____ _____    ______ ____
ROOT
ATOM      1  C   UNL     1       2.327   7.538  18.524  0.00  0.00    +0.000 A 
ATOM      2  C   UNL     1       1.847   8.567  17.702  0.00  0.00    +0.000 A 
ATOM      3  C   UNL     1       1.102   9.613  18.247  0.00  0.00    +0.000 A 
ATOM      4  C   UNL     1       0.860   9.651  19.625  0.00  0.00    +0.000 A 
ATOM      5  C   UNL     1       0.117  10.773  20.230  0.00  0.00    +0.000 A 
ATOM      6  O   UNL     1      -0.365  11.608  19.465  0.00  0.00    +0.000 OA
ATOM      7  N   UNL     1      -0.024  10.767  21.626  0.00  0.00    +0.000 N 
ATOM      8  C   UNL     1       0.447   9.733  22.438  0.00  0.00    +0.000 A 
ATOM      9  O   UNL     1       0.362   9.683  23.666  0.00  0.00    +0.000 OA
ATOM     10  N   UNL     1       1.103   8.703  21.813  0.00  0.00    +0.000 N 
ATOM     11  C   UNL     1       1.336   8.636  20.444  0.00  0.00    +0.000 A 
ATOM     12  C   UNL     1       2.068   7.568  19.901  0.00  0.00    +0.000 A 
ATOM     13  H   UNL     1       1.461   7.992  22.438  0.00  0.00    +0.000 HD
ENDROOT
BRANCH   7  14
ATOM     14  C   UNL     1      -0.735  11.858  22.232  0.00  0.00    +0.000 A 
ATOM     15  C   UNL     1      -0.170  13.142  22.290  0.00  0.00    +0.000 A 
ATOM     16  C   UNL     1      -0.832  14.180  22.953  0.00  0.00    +0.000 A 
ATOM     17  C   UNL     1      -2.074  13.947  23.527  0.00  0.00    +0.000 A 
ATOM     18  F   UNL     1      -2.703  14.941  24.169  0.00  0.00    +0.000 F 
ATOM     19  C   UNL     1      -2.671  12.696  23.452  0.00  0.00    +0.000 A 
ATOM     20  C   UNL     1      -1.997  11.650  22.816  0.00  0.00    +0.000 A 
ENDBRANCH   7  14
BRANCH   1  22
ATOM     21  O   UNL     1       4.028   6.846  17.065  0.00  0.00    +0.000 OA
ATOM     22  C   UNL     1       3.204   6.507  17.911  0.00  0.00    +0.000 C 
ATOM     23  N   UNL     1       3.054   5.206  18.349  0.00  0.00    +0.000 N 
ATOM     24  H   UNL     1       2.339   4.976  19.024  0.00  0.00    +0.000 HD
BRANCH  23  25
ATOM     25  C   UNL     1       4.032   4.179  17.997  0.00  0.00    +0.000 C 
BRANCH  25  26
ATOM     26  C   UNL     1       5.083   4.080  19.099  0.00  0.00    +0.000 C 
BRANCH  26  27
ATOM     27  C   UNL     1       5.879   5.370  19.352  0.00  0.00    +0.000 C 
BRANCH  27  28
ATOM     28  N   UNL     1       7.272   5.221  18.884  0.00  0.00    +0.000 NA
ATOM     29  C   UNL     1       8.000   6.507  18.763  0.00  0.00    +0.000 C 
ATOM     30  C   UNL     1       7.510   7.368  17.593  0.00  0.00    +0.000 C 
ATOM     31  O   UNL     1       7.708   6.676  16.355  0.00  0.00    +0.000 OA
ATOM     32  C   UNL     1       7.021   5.417  16.351  0.00  0.00    +0.000 C 
ATOM     33  C   UNL     1       7.372   4.541  17.572  0.00  0.00    +0.000 C 
ENDBRANCH  27  28
ENDBRANCH  26  27
ENDBRANCH  25  26
ENDBRANCH  23  25
ENDBRANCH   1  22
TORSDOF 6
ENDMDL
MODEL 2
REMARK VINA RESULT:      -9.2      0.516      1.008
REMARK  Name = 
REMARK  6 active torsions:
REMARK  status: ('A' for Active; 'I' for Inactive)
REMARK    1  A    between atoms: C_2  and  C_13
REMARK    2  A    between atoms: N_3  and  C_4
REMARK    3  A    between atoms: C_4  and  C_5
REMARK    4  A    between atoms: C_5  and  C_6
REMARK    5  A    between atoms: C_6  and  N_7
REMARK    6  A    between atoms: N_19  and  C_20
REMARK                            x       y       z     vdW  Elec       q    Type
REMARK                         _______ _______ _______ _____ _____    ______ ____
ROOT
ATOM      1  C   UNL     1       2.026   7.941  18.628  0.00  0.00    +0.000 A 
ATOM      2  C   UNL     1       1.467   8.977  17.866  0.00  0.00    +0.000 A 
ATOM      3  C   UNL     1       0.689   9.960  18.480  0.00  0.00    +0.000 A 
ATOM      4  C   UNL     1       0.495   9.930  19.865  0.00  0.00    +0.000 A 
ATOM      5  C   UNL     1      -0.282  10.986  20.542  0.00  0.00    +0.000 A 
ATOM      6  O   UNL     1      -0.831  11.826  19.830  0.00  0.00    +0.000 OA
ATOM      7  N   UNL     1      -0.373  10.916  21.940  0.00  0.00    +0.000 N 
ATOM      8  C   UNL     1       0.178   9.876  22.692  0.00  0.00    +0.000 A 
ATOM      9  O   UNL     1       0.139   9.773  23.919  0.00  0.00    +0.000 OA
ATOM     10  N   UNL     1       0.862   8.908  22.002  0.00  0.00    +0.000 N 
ATOM     11  C   UNL     1       1.050   8.908  20.625  0.00  0.00    +0.000 A 
ATOM     12  C   UNL     1       1.815   7.902  20.013  0.00  0.00    +0.000 A 
ATOM     13  H   UNL     1       1.277   8.191  22.585  0.00  0.00    +0.000 HD
ENDROOT
BRANCH   7  14
ATOM     14  C   UNL     1      -1.116  11.944  22.615  0.00  0.00    +0.000 A 
ATOM     15  C   UNL     1      -2.409  11.695  23.103  0.00  0.00    +0.000 A 
ATOM     16  C   UNL     1      -3.158  12.723  23.685  0.00  0.00    +0.000 A 
ATOM     17  C   UNL     1      -2.603  13.989  23.817  0.00  0.00    +0.000 A 
ATOM     18  F   UNL     1      -3.324  14.973  24.370  0.00  0.00    +0.000 F 
ATOM     19  C   UNL     1      -1.313  14.250  23.377  0.00  0.00    +0.000 A 
ATOM     20  C   UNL     1      -0.575  13.233  22.766  0.00  0.00    +0.000 A 
ENDBRANCH   7  14
BRANCH   1  22
ATOM     21  O   UNL     1       3.877   7.413  17.289  0.00  0.00    +0.000 OA
ATOM     22  C   UNL     1       2.931   6.983  17.943  0.00  0.00    +0.000 C 
ATOM     23  N   UNL     1       2.665   5.637  18.100  0.00  0.00    +0.000 N 
ATOM     24  H   UNL     1       1.854   5.336  18.623  0.00  0.00    +0.000 HD
BRANCH  23  25
ATOM     25  C   UNL     1       3.633   4.627  17.683  0.00  0.00    +0.000 C 
BRANCH  25  26
ATOM     26  C   UNL     1       4.534   4.269  18.862  0.00  0.00    +0.000 C 
BRANCH  26  27
ATOM     27  C   UNL     1       5.543   5.358  19.260  0.00  0.00    +0.000 C 
BRANCH  27  28
ATOM     28  N   UNL     1       6.900   5.004  18.797  0.00  0.00    +0.000 NA
ATOM     29  C   UNL     1       7.864   6.128  18.862  0.00  0.00    +0.000 C 
ATOM     30  C   UNL     1       7.596   7.213  17.813  0.00  0.00    +0.000 C 
ATOM     31  O   UNL     1       7.709   6.663  16.495  0.00  0.00    +0.000 OA
ATOM     32  C   UNL     1       6.796   5.573  16.311  0.00  0.00    +0.000 C 
ATOM     33  C   UNL     1       6.923   4.494  17.406  0.00  0.00    +0.000 C 
ENDBRANCH  27  28
ENDBRANCH  26  27
ENDBRANCH  25  26
ENDBRANCH  23  25
ENDBRANCH   1  22
TORSDOF 6
ENDMDL
MODEL 3
REMARK VINA RESULT:      -9.0      1.878      3.458
REMARK  Name = 
REMARK  6 active torsions:
REMARK  status: ('A' for Active; 'I' for Inactive)
REMARK    1  A    between atoms: C_2  and  C_13
REMARK    2  A    between atoms: N_3  and  C_4
REMARK    3  A    between atoms: C_4  and  C_5
REMARK    4  A    between atoms: C_5  and  C_6
REMARK    5  A    between atoms: C_6  and  N_7
REMARK    6  A    between atoms: N_19  and  C_20
REMARK                            x       y       z     vdW  Elec       q    Type
REMARK                         _______ _______ _______ _____ _____    ______ ____
ROOT
ATOM      1  C   UNL     1       2.029   8.282  18.588  0.00  0.00    +0.000 A 
ATOM      2  C   UNL     1       1.399   9.310  17.869  0.00  0.00    +0.000 A 
ATOM      3  C   UNL     1       0.574  10.223  18.526  0.00  0.00    +0.000 A 
ATOM      4  C   UNL     1       0.401  10.133  19.911  0.00  0.00    +0.000 A 
ATOM      5  C   UNL     1      -0.428  11.117  20.634  0.00  0.00    +0.000 A 
ATOM      6  O   UNL     1      -1.035  11.948  19.958  0.00  0.00    +0.000 OA
ATOM      7  N   UNL     1      -0.497  10.993  22.030  0.00  0.00    +0.000 N 
ATOM      8  C   UNL     1       0.125   9.962  22.737  0.00  0.00    +0.000 A 
ATOM      9  O   UNL     1       0.107   9.813  23.961  0.00  0.00    +0.000 OA
ATOM     10  N   UNL     1       0.854   9.060  22.006  0.00  0.00    +0.000 N 
ATOM     11  C   UNL     1       1.024   9.120  20.628  0.00  0.00    +0.000 A 
ATOM     12  C   UNL     1       1.838   8.183  19.972  0.00  0.00    +0.000 A 
ATOM     13  H   UNL     1       1.318   8.349  22.558  0.00  0.00    +0.000 HD
ENDROOT
BRANCH   7  14
ATOM     14  C   UNL     1      -1.290  11.951  22.750  0.00  0.00    +0.000 A 
ATOM     15  C   UNL     1      -2.580  11.625  23.199  0.00  0.00    +0.000 A 
ATOM     16  C   UNL     1      -3.376  12.588  23.826  0.00  0.00    +0.000 A 
ATOM     17  C   UNL     1      -2.874  13.864  24.040  0.00  0.00    +0.000 A 
ATOM     18  F   UNL     1      -3.642  14.787  24.635  0.00  0.00    +0.000 F 
ATOM     19  C   UNL     1      -1.589  14.200  23.638  0.00  0.00    +0.000 A 
ATOM     20  C   UNL     1      -0.802  13.249  22.983  0.00  0.00    +0.000 A 
ENDBRANCH   7  14
BRANCH   1  22
ATOM     21  O   UNL     1       3.467   7.793  16.801  0.00  0.00    +0.000 OA
ATOM     22  C   UNL     1       2.980   7.404  17.858  0.00  0.00    +0.000 C 
ATOM     23  N   UNL     1       3.282   6.184  18.432  0.00  0.00    +0.000 N 
ATOM     24  H   UNL     1       2.828   5.898  19.288  0.00  0.00    +0.000 HD
BRANCH  23  25
ATOM     25  C   UNL     1       4.386   5.372  17.929  0.00  0.00    +0.000 C 
BRANCH  25  26
ATOM     26  C   UNL     1       3.834   4.089  17.313  0.00  0.00    +0.000 C 
BRANCH  26  27
ATOM     27  C   UNL     1       2.331   3.859  17.537  0.00  0.00    +0.000 C 
BRANCH  27  28
ATOM     28  N   UNL     1       2.088   2.504  18.073  0.00  0.00    +0.000 NA
ATOM     29  C   UNL     1       0.834   2.390  18.857  0.00  0.00    +0.000 C 
ATOM     30  C   UNL     1       0.903   3.107  20.209  0.00  0.00    +0.000 C 
ATOM     31  O   UNL     1       1.935   2.535  21.020  0.00  0.00    +0.000 OA
ATOM     32  C   UNL     1       3.208   2.614  20.365  0.00  0.00    +0.000 C 
ATOM     33  C   UNL     1       3.187   2.019  18.941  0.00  0.00    +0.000 C 
ENDBRANCH  27  28
ENDBRANCH  26  27
ENDBRANCH  25  26
ENDBRANCH  23  25
ENDBRANCH   1  22
TORSDOF 6
ENDMDL
MODEL 4
REMARK VINA RESULT:      -8.8      1.861      3.259
REMARK  Name = 
REMARK  6 active torsions:
REMARK  status: ('A' for Active; 'I' for Inactive)
REMARK    1  A    between atoms: C_2  and  C_13
REMARK    2  A    between atoms: N_3  and  C_4
REMARK    3  A    between atoms: C_4  and  C_5
REMARK    4  A    between atoms: C_5  and  C_6
REMARK    5  A    between atoms: C_6  and  N_7
REMARK    6  A    between atoms: N_19  and  C_20
REMARK                            x       y       z     vdW  Elec       q    Type
REMARK                         _______ _______ _______ _____ _____    ______ ____
ROOT
ATOM      1  C   UNL     1       2.383   7.851  18.438  0.00  0.00    +0.000 A 
ATOM      2  C   UNL     1       1.742   8.829  17.664  0.00  0.00    +0.000 A 
ATOM      3  C   UNL     1       0.903   9.766  18.268  0.00  0.00    +0.000 A 
ATOM      4  C   UNL     1       0.727   9.749  19.656  0.00  0.00    +0.000 A 
ATOM      5  C   UNL     1      -0.116  10.760  20.323  0.00  0.00    +0.000 A 
ATOM      6  O   UNL     1      -0.733  11.544  19.602  0.00  0.00    +0.000 OA
ATOM      7  N   UNL     1      -0.187  10.711  21.723  0.00  0.00    +0.000 N 
ATOM      8  C   UNL     1       0.446   9.728  22.487  0.00  0.00    +0.000 A 
ATOM      9  O   UNL     1       0.428   9.646  23.717  0.00  0.00    +0.000 OA
ATOM     10  N   UNL     1       1.190   8.798  21.807  0.00  0.00    +0.000 N 
ATOM     11  C   UNL     1       1.362   8.784  20.428  0.00  0.00    +0.000 A 
ATOM     12  C   UNL     1       2.191   7.824  19.826  0.00  0.00    +0.000 A 
ATOM     13  H   UNL     1       1.662   8.125  22.398  0.00  0.00    +0.000 HD
ENDROOT
BRANCH   7  14
ATOM     14  C   UNL     1      -0.994  11.696  22.388  0.00  0.00    +0.000 A 
ATOM     15  C   UNL     1      -0.540  13.017  22.539  0.00  0.00    +0.000 A 
ATOM     16  C   UNL     1      -1.294  13.948  23.258  0.00  0.00    +0.000 A 
ATOM     17  C   UNL     1      -2.519  13.575  23.795  0.00  0.00    +0.000 A 
ATOM     18  F   UNL     1      -3.237  14.468  24.490  0.00  0.00    +0.000 F 
ATOM     19  C   UNL     1      -3.006  12.286  23.629  0.00  0.00    +0.000 A 
ATOM     20  C   UNL     1      -2.240  11.345  22.937  0.00  0.00    +0.000 A 
ENDBRANCH   7  14
BRANCH   1  22
ATOM     21  O   UNL     1       4.390   7.411  17.308  0.00  0.00    +0.000 OA
ATOM     22  C   UNL     1       3.347   6.947  17.760  0.00  0.00    +0.000 C 
ATOM     23  N   UNL     1       3.019   5.607  17.692  0.00  0.00    +0.000 N 
ATOM     24  H   UNL     1       2.133   5.281  18.052  0.00  0.00    +0.000 HD
BRANCH  23  25
ATOM     25  C   UNL     1       4.006   4.613  17.279  0.00  0.00    +0.000 C 
BRANCH  25  26
ATOM     26  C   UNL     1       4.721   4.064  18.510  0.00  0.00    +0.000 C 
BRANCH  26  27
ATOM     27  C   UNL     1       3.894   4.091  19.805  0.00  0.00    +0.000 C 
BRANCH  27  28
ATOM     28  N   UNL     1       3.472   2.725  20.180  0.00  0.00    +0.000 NA
ATOM     29  C   UNL     1       2.783   1.995  19.090  0.00  0.00    +0.000 C 
ATOM     30  C   UNL     1       1.381   2.539  18.792  0.00  0.00    +0.000 C 
ATOM     31  O   UNL     1       0.547   2.413  19.949  0.00  0.00    +0.000 OA
ATOM     32  C   UNL     1       1.110   3.109  21.070  0.00  0.00    +0.000 C 
ATOM     33  C   UNL     1       2.571   2.701  21.356  0.00  0.00    +0.000 C 
ENDBRANCH  27  28
ENDBRANCH  26  27
ENDBRANCH  25  26
ENDBRANCH  23  25
ENDBRANCH   1  22
TORSDOF 6
ENDMDL
MODEL 5
REMARK VINA RESULT:      -8.6      1.670      2.033
REMARK  Name = 
REMARK  6 active torsions:
REMARK  status: ('A' for Active; 'I' for Inactive)
REMARK    1  A    between atoms: C_2  and  C_13
REMARK    2  A    between atoms: N_3  and  C_4
REMARK    3  A    between atoms: C_4  and  C_5
REMARK    4  A    between atoms: C_5  and  C_6
REMARK    5  A    between atoms: C_6  and  N_7
REMARK    6  A    between atoms: N_19  and  C_20
REMARK                            x       y       z     vdW  Elec       q    Type
REMARK                         _______ _______ _______ _____ _____    ______ ____
ROOT
ATOM      1  C   UNL     1       2.165   7.162  19.410  0.00  0.00    +0.000 A 
ATOM      2  C   UNL     1       2.201   8.064  18.337  0.00  0.00    +0.000 A 
ATOM      3  C   UNL     1       1.641   9.335  18.468  0.00  0.00    +0.000 A 
ATOM      4  C   UNL     1       1.070   9.722  19.685  0.00  0.00    +0.000 A 
ATOM      5  C   UNL     1       0.515  11.078  19.862  0.00  0.00    +0.000 A 
ATOM      6  O   UNL     1       0.484  11.808  18.872  0.00  0.00    +0.000 OA
ATOM      7  N   UNL     1       0.020  11.405  21.134  0.00  0.00    +0.000 N 
ATOM      8  C   UNL     1      -0.022  10.498  22.195  0.00  0.00    +0.000 A 
ATOM      9  O   UNL     1      -0.433  10.736  23.332  0.00  0.00    +0.000 OA
ATOM     10  N   UNL     1       0.480   9.244  21.959  0.00  0.00    +0.000 N 
ATOM     11  C   UNL     1       1.034   8.833  20.752  0.00  0.00    +0.000 A 
ATOM     12  C   UNL     1       1.576   7.544  20.622  0.00  0.00    +0.000 A 
ATOM     13  H   UNL     1       0.464   8.628  22.762  0.00  0.00    +0.000 HD
ENDROOT
BRANCH   7  14
ATOM     14  C   UNL     1      -0.512  12.726  21.326  0.00  0.00    +0.000 A 
ATOM     15  C   UNL     1       0.309  13.775  21.770  0.00  0.00    +0.000 A 
ATOM     16  C   UNL     1      -0.233  15.037  22.033  0.00  0.00    +0.000 A 
ATOM     17  C   UNL     1      -1.586  15.263  21.818  0.00  0.00    +0.000 A 
ATOM     18  F   UNL     1      -2.104  16.471  22.077  0.00  0.00    +0.000 F 
ATOM     19  C   UNL     1      -2.411  14.252  21.345  0.00  0.00    +0.000 A 
ATOM     20  C   UNL     1      -1.877  12.982  21.110  0.00  0.00    +0.000 A 
ENDBRANCH   7  14
BRANCH   1  22
ATOM     21  O   UNL     1       3.929   5.679  19.846  0.00  0.00    +0.000 OA
ATOM     22  C   UNL     1       2.870   5.863  19.252  0.00  0.00    +0.000 C 
ATOM     23  N   UNL     1       2.272   4.912  18.449  0.00  0.00    +0.000 N 
ATOM     24  H   UNL     1       1.416   5.126  17.957  0.00  0.00    +0.000 HD
BRANCH  23  25
ATOM     25  C   UNL     1       2.751   3.533  18.436  0.00  0.00    +0.000 C 
BRANCH  25  26
ATOM     26  C   UNL     1       3.437   3.244  17.103  0.00  0.00    +0.000 C 
BRANCH  26  27
ATOM     27  C   UNL     1       4.864   3.800  16.976  0.00  0.00    +0.000 C 
BRANCH  27  28
ATOM     28  N   UNL     1       4.873   5.025  16.150  0.00  0.00    +0.000 NA
ATOM     29  C   UNL     1       5.544   4.854  14.839  0.00  0.00    +0.000 C 
ATOM     30  C   UNL     1       7.065   4.706  14.956  0.00  0.00    +0.000 C 
ATOM     31  O   UNL     1       7.631   5.881  15.545  0.00  0.00    +0.000 OA
ATOM     32  C   UNL     1       7.068   6.132  16.840  0.00  0.00    +0.000 C 
ATOM     33  C   UNL     1       5.525   6.172  16.824  0.00  0.00    +0.000 C 
ENDBRANCH  27  28
ENDBRANCH  26  27
ENDBRANCH  25  26
ENDBRANCH  23  25
ENDBRANCH   1  22
TORSDOF 6
ENDMDL
MODEL 6
REMARK VINA RESULT:      -8.6      1.832      3.405
REMARK  Name = 
REMARK  6 active torsions:
REMARK  status: ('A' for Active; 'I' for Inactive)
REMARK    1  A    between atoms: C_2  and  C_13
REMARK    2  A    between atoms: N_3  and  C_4
REMARK    3  A    between atoms: C_4  and  C_5
REMARK    4  A    between atoms: C_5  and  C_6
REMARK    5  A    between atoms: C_6  and  N_7
REMARK    6  A    between atoms: N_19  and  C_20
REMARK                            x       y       z     vdW  Elec       q    Type
REMARK                         _______ _______ _______ _____ _____    ______ ____
ROOT
ATOM      1  C   UNL     1       2.669   7.566  18.281  0.00  0.00    +0.000 A 
ATOM      2  C   UNL     1       2.016   8.533  17.503  0.00  0.00    +0.000 A 
ATOM      3  C   UNL     1       1.184   9.477  18.108  0.00  0.00    +0.000 A 
ATOM      4  C   UNL     1       1.027   9.477  19.498  0.00  0.00    +0.000 A 
ATOM      5  C   UNL     1       0.191  10.495  20.163  0.00  0.00    +0.000 A 
ATOM      6  O   UNL     1      -0.436  11.269  19.441  0.00  0.00    +0.000 OA
ATOM      7  N   UNL     1       0.140  10.464  21.565  0.00  0.00    +0.000 N 
ATOM      8  C   UNL     1       0.785   9.491  22.332  0.00  0.00    +0.000 A 
ATOM      9  O   UNL     1       0.784   9.424  23.563  0.00  0.00    +0.000 OA
ATOM     10  N   UNL     1       1.521   8.553  21.654  0.00  0.00    +0.000 N 
ATOM     11  C   UNL     1       1.674   8.523  20.273  0.00  0.00    +0.000 A 
ATOM     12  C   UNL     1       2.496   7.557  19.671  0.00  0.00    +0.000 A 
ATOM     13  H   UNL     1       2.002   7.888  22.247  0.00  0.00    +0.000 HD
ENDROOT
BRANCH   7  14
ATOM     14  C   UNL     1      -0.659  11.456  22.229  0.00  0.00    +0.000 A 
ATOM     15  C   UNL     1      -1.845  11.099  22.892  0.00  0.00    +0.000 A 
ATOM     16  C   UNL     1      -2.660  12.080  23.465  0.00  0.00    +0.000 A 
ATOM     17  C   UNL     1      -2.275  13.412  23.410  0.00  0.00    +0.000 A 
ATOM     18  F   UNL     1      -3.061  14.351  23.954  0.00  0.00    +0.000 F 
ATOM     19  C   UNL     1      -1.090  13.786  22.792  0.00  0.00    +0.000 A 
ATOM     20  C   UNL     1      -0.289  12.811  22.192  0.00  0.00    +0.000 A 
ENDBRANCH   7  14
BRANCH   1  22
ATOM     21  O   UNL     1       4.666   7.114  17.137  0.00  0.00    +0.000 OA
ATOM     22  C   UNL     1       3.626   6.655  17.601  0.00  0.00    +0.000 C 
ATOM     23  N   UNL     1       3.294   5.315  17.545  0.00  0.00    +0.000 N 
ATOM     24  H   UNL     1       2.409   4.995  17.914  0.00  0.00    +0.000 HD
BRANCH  23  25
ATOM     25  C   UNL     1       4.274   4.316  17.130  0.00  0.00    +0.000 C 
BRANCH  25  26
ATOM     26  C   UNL     1       4.418   3.260  18.223  0.00  0.00    +0.000 C 
BRANCH  26  27
ATOM     27  C   UNL     1       3.974   3.713  19.623  0.00  0.00    +0.000 C 
BRANCH  27  28
ATOM     28  N   UNL     1       3.148   2.672  20.268  0.00  0.00    +0.000 NA
ATOM     29  C   UNL     1       2.357   1.861  19.311  0.00  0.00    +0.000 C 
ATOM     30  C   UNL     1       1.200   2.639  18.675  0.00  0.00    +0.000 C 
ATOM     31  O   UNL     1       0.283   3.072  19.686  0.00  0.00    +0.000 OA
ATOM     32  C   UNL     1       0.940   3.893  20.662  0.00  0.00    +0.000 C 
ATOM     33  C   UNL     1       2.195   3.222  21.260  0.00  0.00    +0.000 C 
ENDBRANCH  27  28
ENDBRANCH  26  27
ENDBRANCH  25  26
ENDBRANCH  23  25
ENDBRANCH   1  22
TORSDOF 6
ENDMDL
MODEL 7
REMARK VINA RESULT:      -8.6      1.874      3.430
REMARK  Name = 
REMARK  6 active torsions:
REMARK  status: ('A' for Active; 'I' for Inactive)
REMARK    1  A    between atoms: C_2  and  C_13
REMARK    2  A    between atoms: N_3  and  C_4
REMARK    3  A    between atoms: C_4  and  C_5
REMARK    4  A    between atoms: C_5  and  C_6
REMARK    5  A    between atoms: C_6  and  N_7
REMARK    6  A    between atoms: N_19  and  C_20
REMARK                            x       y       z     vdW  Elec       q    Type
REMARK                         _______ _______ _______ _____ _____    ______ ____
ROOT
ATOM      1  C   UNL     1       2.378   7.487  18.950  0.00  0.00    +0.000 A 
ATOM      2  C   UNL     1       2.076   8.467  17.994  0.00  0.00    +0.000 A 
ATOM      3  C   UNL     1       1.320   9.585  18.348  0.00  0.00    +0.000 A 
ATOM      4  C   UNL     1       0.890   9.745  19.670  0.00  0.00    +0.000 A 
ATOM      5  C   UNL     1       0.132  10.943  20.079  0.00  0.00    +0.000 A 
ATOM      6  O   UNL     1      -0.192  11.734  19.193  0.00  0.00    +0.000 OA
ATOM      7  N   UNL     1      -0.204  11.055  21.436  0.00  0.00    +0.000 N 
ATOM      8  C   UNL     1       0.092  10.070  22.381  0.00  0.00    +0.000 A 
ATOM      9  O   UNL     1      -0.167  10.123  23.585  0.00  0.00    +0.000 OA
ATOM     10  N   UNL     1       0.771   8.965  21.934  0.00  0.00    +0.000 N 
ATOM     11  C   UNL     1       1.190   8.778  20.622  0.00  0.00    +0.000 A 
ATOM     12  C   UNL     1       1.931   7.639  20.269  0.00  0.00    +0.000 A 
ATOM     13  H   UNL     1       0.998   8.292  22.655  0.00  0.00    +0.000 HD
ENDROOT
BRANCH   7  14
ATOM     14  C   UNL     1      -0.932  12.221  21.853  0.00  0.00    +0.000 A 
ATOM     15  C   UNL     1      -2.335  12.210  21.915  0.00  0.00    +0.000 A 
ATOM     16  C   UNL     1      -3.040  13.372  22.241  0.00  0.00    +0.000 A 
ATOM     17  C   UNL     1      -2.346  14.536  22.543  0.00  0.00    +0.000 A 
ATOM     18  F   UNL     1      -3.024  15.650  22.849  0.00  0.00    +0.000 F 
ATOM     19  C   UNL     1      -0.958  14.563  22.524  0.00  0.00    +0.000 A 
ATOM     20  C   UNL     1      -0.253  13.411  22.168  0.00  0.00    +0.000 A 
ENDBRANCH   7  14
BRANCH   1  22
ATOM     21  O   UNL     1       3.185   5.910  17.413  0.00  0.00    +0.000 OA
ATOM     22  C   UNL     1       3.275   6.373  18.547  0.00  0.00    +0.000 C 
ATOM     23  N   UNL     1       4.190   5.927  19.480  0.00  0.00    +0.000 N 
ATOM     24  H   UNL     1       4.201   6.320  20.411  0.00  0.00    +0.000 HD
BRANCH  23  25
ATOM     25  C   UNL     1       5.271   5.023  19.098  0.00  0.00    +0.000 C 
BRANCH  25  26
ATOM     26  C   UNL     1       4.930   3.604  19.546  0.00  0.00    +0.000 C 
BRANCH  26  27
ATOM     27  C   UNL     1       3.886   2.885  18.678  0.00  0.00    +0.000 C 
BRANCH  27  28
ATOM     28  N   UNL     1       2.960   2.102  19.521  0.00  0.00    +0.000 NA
ATOM     29  C   UNL     1       1.592   1.992  18.960  0.00  0.00    +0.000 C 
ATOM     30  C   UNL     1       0.811   3.310  19.013  0.00  0.00    +0.000 C 
ATOM     31  O   UNL     1       0.654   3.735  20.371  0.00  0.00    +0.000 OA
ATOM     32  C   UNL     1       1.926   3.899  21.012  0.00  0.00    +0.000 C 
ATOM     33  C   UNL     1       2.822   2.648  20.891  0.00  0.00    +0.000 C 
ENDBRANCH  27  28
ENDBRANCH  26  27
ENDBRANCH  25  26
ENDBRANCH  23  25
ENDBRANCH   1  22
TORSDOF 6
ENDMDL
MODEL 8
REMARK VINA RESULT:      -8.6      2.367      4.018
REMARK  Name = 
REMARK  6 active torsions:
REMARK  status: ('A' for Active; 'I' for Inactive)
REMARK    1  A    between atoms: C_2  and  C_13
REMARK    2  A    between atoms: N_3  and  C_4
REMARK    3  A    between atoms: C_4  and  C_5
REMARK    4  A    between atoms: C_5  and  C_6
REMARK    5  A    between atoms: C_6  and  N_7
REMARK    6  A    between atoms: N_19  and  C_20
REMARK                            x       y       z     vdW  Elec       q    Type
REMARK                         _______ _______ _______ _____ _____    ______ ____
ROOT
ATOM      1  C   UNL     1       1.791   8.533  19.288  0.00  0.00    +0.000 A 
ATOM      2  C   UNL     1       1.680   8.040  20.597  0.00  0.00    +0.000 A 
ATOM      3  C   UNL     1       1.014   8.782  21.573  0.00  0.00    +0.000 A 
ATOM      4  C   UNL     1       0.429  10.008  21.237  0.00  0.00    +0.000 A 
ATOM      5  C   UNL     1      -0.321  10.787  22.241  0.00  0.00    +0.000 A 
ATOM      6  O   UNL     1      -0.319  10.366  23.398  0.00  0.00    +0.000 OA
ATOM      7  N   UNL     1      -0.932  11.973  21.805  0.00  0.00    +0.000 N 
ATOM      8  C   UNL     1      -0.808  12.462  20.503  0.00  0.00    +0.000 A 
ATOM      9  O   UNL     1      -1.332  13.488  20.064  0.00  0.00    +0.000 OA
ATOM     10  N   UNL     1      -0.072  11.709  19.624  0.00  0.00    +0.000 N 
ATOM     11  C   UNL     1       0.534  10.499  19.942  0.00  0.00    +0.000 A 
ATOM     12  C   UNL     1       1.220   9.769  18.959  0.00  0.00    +0.000 A 
ATOM     13  H   UNL     1      -0.036  12.079  18.682  0.00  0.00    +0.000 HD
ENDROOT
BRANCH   7  14
ATOM     14  C   UNL     1      -1.676  12.736  22.767  0.00  0.00    +0.000 A 
ATOM     15  C   UNL     1      -3.013  12.420  23.059  0.00  0.00    +0.000 A 
ATOM     16  C   UNL     1      -3.756  13.217  23.935  0.00  0.00    +0.000 A 
ATOM     17  C   UNL     1      -3.156  14.308  24.550  0.00  0.00    +0.000 A 
ATOM     18  F   UNL     1      -3.871  15.074  25.383  0.00  0.00    +0.000 F 
ATOM     19  C   UNL     1      -1.825  14.620  24.306  0.00  0.00    +0.000 A 
ATOM     20  C   UNL     1      -1.090  13.842  23.407  0.00  0.00    +0.000 A 
ENDBRANCH   7  14
BRANCH   1  22
ATOM     21  O   UNL     1       2.483   8.044  17.101  0.00  0.00    +0.000 OA
ATOM     22  C   UNL     1       2.415   7.655  18.264  0.00  0.00    +0.000 C 
ATOM     23  N   UNL     1       2.908   6.437  18.690  0.00  0.00    +0.000 N 
ATOM     24  H   UNL     1       2.797   6.152  19.652  0.00  0.00    +0.000 HD
BRANCH  23  25
ATOM     25  C   UNL     1       3.756   5.627  17.820  0.00  0.00    +0.000 C 
BRANCH  25  26
ATOM     26  C   UNL     1       2.991   4.381  17.382  0.00  0.00    +0.000 C 
BRANCH  26  27
ATOM     27  C   UNL     1       1.710   4.094  18.182  0.00  0.00    +0.000 C 
BRANCH  27  28
ATOM     28  N   UNL     1       1.703   2.698  18.668  0.00  0.00    +0.000 NA
ATOM     29  C   UNL     1       0.805   2.476  19.827  0.00  0.00    +0.000 C 
ATOM     30  C   UNL     1       1.323   3.114  21.121  0.00  0.00    +0.000 C 
ATOM     31  O   UNL     1       2.588   2.545  21.479  0.00  0.00    +0.000 OA
ATOM     32  C   UNL     1       3.550   2.725  20.431  0.00  0.00    +0.000 C 
ATOM     33  C   UNL     1       3.047   2.217  19.063  0.00  0.00    +0.000 C 
ENDBRANCH  27  28
ENDBRANCH  26  27
ENDBRANCH  25  26
ENDBRANCH  23  25
ENDBRANCH   1  22
TORSDOF 6
ENDMDL
MODEL 9
REMARK VINA RESULT:      -8.6      2.122      3.389
REMARK  Name = 
REMARK  6 active torsions:
REMARK  status: ('A' for Active; 'I' for Inactive)
REMARK    1  A    between atoms: C_2  and  C_13
REMARK    2  A    between atoms: N_3  and  C_4
REMARK    3  A    between atoms: C_4  and  C_5
REMARK    4  A    between atoms: C_5  and  C_6
REMARK    5  A    between atoms: C_6  and  N_7
REMARK    6  A    between atoms: N_19  and  C_20
REMARK                            x       y       z     vdW  Elec       q    Type
REMARK                         _______ _______ _______ _____ _____    ______ ____
ROOT
ATOM      1  C   UNL     1       2.460   7.374  19.076  0.00  0.00    +0.000 A 
ATOM      2  C   UNL     1       2.151   8.294  18.063  0.00  0.00    +0.000 A 
ATOM      3  C   UNL     1       1.369   9.414  18.346  0.00  0.00    +0.000 A 
ATOM      4  C   UNL     1       0.920   9.638  19.652  0.00  0.00    +0.000 A 
ATOM      5  C   UNL     1       0.132  10.841  19.984  0.00  0.00    +0.000 A 
ATOM      6  O   UNL     1      -0.195  11.576  19.053  0.00  0.00    +0.000 OA
ATOM      7  N   UNL     1      -0.223  11.021  21.329  0.00  0.00    +0.000 N 
ATOM      8  C   UNL     1       0.080  10.096  22.331  0.00  0.00    +0.000 A 
ATOM      9  O   UNL     1      -0.197  10.210  23.526  0.00  0.00    +0.000 OA
ATOM     10  N   UNL     1       0.786   8.982  21.954  0.00  0.00    +0.000 N 
ATOM     11  C   UNL     1       1.225   8.731  20.659  0.00  0.00    +0.000 A 
ATOM     12  C   UNL     1       1.993   7.590  20.379  0.00  0.00    +0.000 A 
ATOM     13  H   UNL     1       1.017   8.354  22.714  0.00  0.00    +0.000 HD
ENDROOT
BRANCH   7  14
ATOM     14  C   UNL     1      -0.979  12.194  21.672  0.00  0.00    +0.000 A 
ATOM     15  C   UNL     1      -0.333  13.377  22.066  0.00  0.00    +0.000 A 
ATOM     16  C   UNL     1      -1.076  14.488  22.476  0.00  0.00    +0.000 A 
ATOM     17  C   UNL     1      -2.463  14.433  22.457  0.00  0.00    +0.000 A 
ATOM     18  F   UNL     1      -3.173  15.497  22.857  0.00  0.00    +0.000 F 
ATOM     19  C   UNL     1      -3.125  13.288  22.036  0.00  0.00    +0.000 A 
ATOM     20  C   UNL     1      -2.384  12.166  21.656  0.00  0.00    +0.000 A 
ENDBRANCH   7  14
BRANCH   1  22
ATOM     21  O   UNL     1       4.083   5.774  19.632  0.00  0.00    +0.000 OA
ATOM     22  C   UNL     1       3.384   6.258  18.746  0.00  0.00    +0.000 C 
ATOM     23  N   UNL     1       3.389   5.806  17.440  0.00  0.00    +0.000 N 
ATOM     24  H   UNL     1       2.818   6.261  16.742  0.00  0.00    +0.000 HD
BRANCH  23  25
ATOM     25  C   UNL     1       4.065   4.563  17.080  0.00  0.00    +0.000 C 
BRANCH  25  26
ATOM     26  C   UNL     1       3.056   3.417  17.084  0.00  0.00    +0.000 C 
BRANCH  26  27
ATOM     27  C   UNL     1       1.748   3.709  17.837  0.00  0.00    +0.000 C 
BRANCH  27  28
ATOM     28  N   UNL     1       1.413   2.594  18.747  0.00  0.00    +0.000 NA
ATOM     29  C   UNL     1       0.671   3.018  19.959  0.00  0.00    +0.000 C 
ATOM     30  C   UNL     1       1.535   3.805  20.950  0.00  0.00    +0.000 C 
ATOM     31  O   UNL     1       2.622   2.993  21.409  0.00  0.00    +0.000 OA
ATOM     32  C   UNL     1       3.429   2.543  20.313  0.00  0.00    +0.000 C 
ATOM     33  C   UNL     1       2.605   1.846  19.210  0.00  0.00    +0.000 C 
ENDBRANCH  27  28
ENDBRANCH  26  27
ENDBRANCH  25  26
ENDBRANCH  23  25
ENDBRANCH   1  22
TORSDOF 6
ENDMDL
