MODEL 1
REMARK VINA RESULT:      -8.2      0.000      0.000
REMARK  Name = 
REMARK  5 active torsions:
REMARK  status: ('A' for Active; 'I' for Inactive)
REMARK    1  A    between atoms: C_10  and  C_11
REMARK    2  A    between atoms: C_14  and  O_15
REMARK    3  A    between atoms: O_15  and  C_16
REMARK    4  A    between atoms: C_16  and  C_17
REMARK    5  A    between atoms: N_25  and  C_26
REMARK                            x       y       z     vdW  Elec       q    Type
REMARK                         _______ _______ _______ _____ _____    ______ ____
ROOT
ATOM      1  O   UNL     1      -0.041  15.286  22.584  0.00  0.00    +0.000 OA
ATOM      2  C   UNL     1      -0.499  14.153  22.417  0.00  0.00    +0.000 A 
ATOM      3  C   UNL     1      -1.705  13.780  23.166  0.00  0.00    +0.000 A 
ATOM      4  C   UNL     1      -2.369  14.711  23.975  0.00  0.00    +0.000 A 
ATOM      5  C   UNL     1      -3.523  14.334  24.656  0.00  0.00    +0.000 A 
ATOM      6  C   UNL     1      -3.999  13.029  24.541  0.00  0.00    +0.000 A 
ATOM      7  C   UNL     1      -3.331  12.111  23.728  0.00  0.00    +0.000 A 
ATOM      8  C   UNL     1      -2.186  12.486  23.020  0.00  0.00    +0.000 A 
ATOM      9  N   UNL     1      -1.569  11.553  22.188  0.00  0.00    +0.000 NA
ATOM     10  C   UNL     1      -0.529  11.900  21.488  0.00  0.00    +0.000 A 
ATOM     11  N   UNL     1       0.015  13.192  21.532  0.00  0.00    +0.000 N 
ENDROOT
BRANCH  11  12
ATOM     12  C   UNL     1       1.033  13.647  20.647  0.00  0.00    +0.000 A 
ATOM     13  C   UNL     1       2.382  13.467  20.992  0.00  0.00    +0.000 A 
ATOM     14  C   UNL     1       3.394  13.926  20.151  0.00  0.00    +0.000 A 
ATOM     15  C   UNL     1       3.059  14.600  18.980  0.00  0.00    +0.000 A 
ATOM     16 BR   UNL     1       4.432  15.293  17.879  0.00  0.00    +0.000 Br
ATOM     17  C   UNL     1       1.723  14.785  18.622  0.00  0.00    +0.000 A 
ATOM     18  C   UNL     1       0.707  14.299  19.450  0.00  0.00    +0.000 A 
ENDBRANCH  11  12
BRANCH  10  19
ATOM     19  C   UNL     1       0.096  10.813  20.662  0.00  0.00    +0.000 A 
ATOM     20  C   UNL     1       0.858   9.845  21.333  0.00  0.00    +0.000 A 
ATOM     21  C   UNL     1       1.542   8.862  20.620  0.00  0.00    +0.000 A 
ATOM     22  C   UNL     1       1.443   8.810  19.231  0.00  0.00    +0.000 A 
ATOM     23  C   UNL     1       0.704   9.777  18.556  0.00  0.00    +0.000 A 
ATOM     24  C   UNL     1       0.061  10.793  19.265  0.00  0.00    +0.000 A 
BRANCH  22  25
ATOM     25  O   UNL     1       2.048   7.882  18.434  0.00  0.00    +0.000 OA
BRANCH  25  26
ATOM     26  C   UNL     1       2.911   6.967  19.106  0.00  0.00    +0.000 C 
BRANCH  26  27
ATOM     27  C   UNL     1       2.213   5.638  19.206  0.00  0.00    +0.000 A 
ATOM     28  C   UNL     1       2.086   4.812  18.083  0.00  0.00    +0.000 A 
ATOM     29  C   UNL     1       1.464   3.570  18.197  0.00  0.00    +0.000 A 
ATOM     30  C   UNL     1       0.971   3.145  19.430  0.00  0.00    +0.000 A 
ATOM     31  C   UNL     1       1.102   3.956  20.555  0.00  0.00    +0.000 A 
ATOM     32  C   UNL     1       1.724   5.197  20.445  0.00  0.00    +0.000 A 
ENDBRANCH  26  27
ENDBRANCH  25  26
ENDBRANCH  22  25
ENDBRANCH  10  19
TORSDOF 5
ENDMDL
MODEL 2
REMARK VINA RESULT:      -8.1      0.378      1.250
REMARK  Name = 
REMARK  5 active torsions:
REMARK  status: ('A' for Active; 'I' for Inactive)
REMARK    1  A    between atoms: C_10  and  C_11
REMARK    2  A    between atoms: C_14  and  O_15
REMARK    3  A    between atoms: O_15  and  C_16
REMARK    4  A    between atoms: C_16  and  C_17
REMARK    5  A    between atoms: N_25  and  C_26
REMARK                            x       y       z     vdW  Elec       q    Type
REMARK                         _______ _______ _______ _____ _____    ______ ____
ROOT
ATOM      1  O   UNL     1      -0.200  15.436  22.420  0.00  0.00    +0.000 OA
ATOM      2  C   UNL     1      -0.590  14.268  22.350  0.00  0.00    +0.000 A 
ATOM      3  C   UNL     1      -1.809  13.904  23.081  0.00  0.00    +0.000 A 
ATOM      4  C   UNL     1      -2.559  14.872  23.761  0.00  0.00    +0.000 A 
ATOM      5  C   UNL     1      -3.724  14.500  24.427  0.00  0.00    +0.000 A 
ATOM      6  C   UNL     1      -4.125  13.165  24.425  0.00  0.00    +0.000 A 
ATOM      7  C   UNL     1      -3.371  12.209  23.740  0.00  0.00    +0.000 A 
ATOM      8  C   UNL     1      -2.214  12.577  23.047  0.00  0.00    +0.000 A 
ATOM      9  N   UNL     1      -1.510  11.602  22.342  0.00  0.00    +0.000 NA
ATOM     10  C   UNL     1      -0.457  11.936  21.655  0.00  0.00    +0.000 A 
ATOM     11  N   UNL     1       0.016  13.255  21.590  0.00  0.00    +0.000 N 
ENDROOT
BRANCH  11  12
ATOM     12  C   UNL     1       1.050  13.676  20.709  0.00  0.00    +0.000 A 
ATOM     13  C   UNL     1       2.387  13.629  21.136  0.00  0.00    +0.000 A 
ATOM     14  C   UNL     1       3.413  14.059  20.296  0.00  0.00    +0.000 A 
ATOM     15  C   UNL     1       3.102  14.573  19.040  0.00  0.00    +0.000 A 
ATOM     16 BR   UNL     1       4.487  15.231  17.933  0.00  0.00    +0.000 Br
ATOM     17  C   UNL     1       1.778  14.625  18.601  0.00  0.00    +0.000 A 
ATOM     18  C   UNL     1       0.750  14.166  19.430  0.00  0.00    +0.000 A 
ENDBRANCH  11  12
BRANCH  10  19
ATOM     19  C   UNL     1       0.263  10.810  20.973  0.00  0.00    +0.000 A 
ATOM     20  C   UNL     1       0.261  10.793  19.570  0.00  0.00    +0.000 A 
ATOM     21  C   UNL     1       0.831   9.729  18.872  0.00  0.00    +0.000 A 
ATOM     22  C   UNL     1       1.444   8.688  19.567  0.00  0.00    +0.000 A 
ATOM     23  C   UNL     1       1.435   8.687  20.958  0.00  0.00    +0.000 A 
ATOM     24  C   UNL     1       0.819   9.726  21.658  0.00  0.00    +0.000 A 
BRANCH  22  25
ATOM     25  O   UNL     1       2.052   7.610  18.990  0.00  0.00    +0.000 OA
BRANCH  25  26
ATOM     26  C   UNL     1       2.578   6.646  19.900  0.00  0.00    +0.000 C 
BRANCH  26  27
ATOM     27  C   UNL     1       2.034   5.293  19.530  0.00  0.00    +0.000 A 
ATOM     28  C   UNL     1       1.424   4.481  20.493  0.00  0.00    +0.000 A 
ATOM     29  C   UNL     1       0.898   3.242  20.130  0.00  0.00    +0.000 A 
ATOM     30  C   UNL     1       0.972   2.812  18.806  0.00  0.00    +0.000 A 
ATOM     31  C   UNL     1       1.568   3.618  17.838  0.00  0.00    +0.000 A 
ATOM     32  C   UNL     1       2.094   4.856  18.198  0.00  0.00    +0.000 A 
ENDBRANCH  26  27
ENDBRANCH  25  26
ENDBRANCH  22  25
ENDBRANCH  10  19
TORSDOF 5
ENDMDL
MODEL 3
REMARK VINA RESULT:      -7.8      3.002      4.777
REMARK  Name = 
REMARK  5 active torsions:
REMARK  status: ('A' for Active; 'I' for Inactive)
REMARK    1  A    between atoms: C_10  and  C_11
REMARK    2  A    between atoms: C_14  and  O_15
REMARK    3  A    between atoms: O_15  and  C_16
REMARK    4  A    between atoms: C_16  and  C_17
REMARK    5  A    between atoms: N_25  and  C_26
REMARK                            x       y       z     vdW  Elec       q    Type
REMARK                         _______ _______ _______ _____ _____    ______ ____
ROOT
ATOM      1  O   UNL     1      -0.634  15.428  18.528  0.00  0.00    +0.000 OA
ATOM      2  C   UNL     1       0.218  14.747  19.104  0.00  0.00    +0.000 A 
ATOM      3  C   UNL     1       1.441  15.416  19.562  0.00  0.00    +0.000 A 
ATOM      4  C   UNL     1       1.596  16.802  19.436  0.00  0.00    +0.000 A 
ATOM      5  C   UNL     1       2.758  17.412  19.901  0.00  0.00    +0.000 A 
ATOM      6  C   UNL     1       3.764  16.636  20.474  0.00  0.00    +0.000 A 
ATOM      7  C   UNL     1       3.596  15.255  20.600  0.00  0.00    +0.000 A 
ATOM      8  C   UNL     1       2.423  14.637  20.159  0.00  0.00    +0.000 A 
ATOM      9  N   UNL     1       2.275  13.262  20.336  0.00  0.00    +0.000 NA
ATOM     10  C   UNL     1       1.171  12.678  19.973  0.00  0.00    +0.000 A 
ATOM     11  N   UNL     1       0.101  13.379  19.396  0.00  0.00    +0.000 N 
ENDROOT
BRANCH  11  12
ATOM     12  C   UNL     1      -1.178  12.802  19.157  0.00  0.00    +0.000 A 
ATOM     13  C   UNL     1      -1.418  12.125  17.950  0.00  0.00    +0.000 A 
ATOM     14  C   UNL     1      -2.671  11.573  17.686  0.00  0.00    +0.000 A 
ATOM     15  C   UNL     1      -3.698  11.729  18.613  0.00  0.00    +0.000 A 
ATOM     16 BR   UNL     1      -5.418  11.050  18.220  0.00  0.00    +0.000 Br
ATOM     17  C   UNL     1      -3.474  12.397  19.818  0.00  0.00    +0.000 A 
ATOM     18  C   UNL     1      -2.210  12.926  20.097  0.00  0.00    +0.000 A 
ENDBRANCH  11  12
BRANCH  10  19
ATOM     19  C   UNL     1       1.126  11.189  20.156  0.00  0.00    +0.000 A 
ATOM     20  C   UNL     1       0.857  10.701  21.443  0.00  0.00    +0.000 A 
ATOM     21  C   UNL     1       0.890   9.332  21.704  0.00  0.00    +0.000 A 
ATOM     22  C   UNL     1       1.157   8.432  20.675  0.00  0.00    +0.000 A 
ATOM     23  C   UNL     1       1.443   8.908  19.399  0.00  0.00    +0.000 A 
ATOM     24  C   UNL     1       1.461  10.281  19.148  0.00  0.00    +0.000 A 
BRANCH  22  25
ATOM     25  O   UNL     1       1.193   7.074  20.809  0.00  0.00    +0.000 OA
BRANCH  25  26
ATOM     26  C   UNL     1       2.330   6.433  20.235  0.00  0.00    +0.000 C 
BRANCH  26  27
ATOM     27  C   UNL     1       1.900   5.101  19.684  0.00  0.00    +0.000 A 
ATOM     28  C   UNL     1       1.312   4.141  20.515  0.00  0.00    +0.000 A 
ATOM     29  C   UNL     1       0.891   2.922  19.985  0.00  0.00    +0.000 A 
ATOM     30  C   UNL     1       1.049   2.658  18.625  0.00  0.00    +0.000 A 
ATOM     31  C   UNL     1       1.624   3.612  17.788  0.00  0.00    +0.000 A 
ATOM     32  C   UNL     1       2.045   4.831  18.315  0.00  0.00    +0.000 A 
ENDBRANCH  26  27
ENDBRANCH  25  26
ENDBRANCH  22  25
ENDBRANCH  10  19
TORSDOF 5
ENDMDL
MODEL 4
REMARK VINA RESULT:      -7.8      1.199      1.854
REMARK  Name = 
REMARK  5 active torsions:
REMARK  status: ('A' for Active; 'I' for Inactive)
REMARK    1  A    between atoms: C_10  and  C_11
REMARK    2  A    between atoms: C_14  and  O_15
REMARK    3  A    between atoms: O_15  and  C_16
REMARK    4  A    between atoms: C_16  and  C_17
REMARK    5  A    between atoms: N_25  and  C_26
REMARK                            x       y       z     vdW  Elec       q    Type
REMARK                         _______ _______ _______ _____ _____    ______ ____
ROOT
ATOM      1  O   UNL     1       0.066  15.249  22.628  0.00  0.00    +0.000 OA
ATOM      2  C   UNL     1      -0.410  14.129  22.423  0.00  0.00    +0.000 A 
ATOM      3  C   UNL     1      -1.616  13.746  23.165  0.00  0.00    +0.000 A 
ATOM      4  C   UNL     1      -2.263  14.656  24.011  0.00  0.00    +0.000 A 
ATOM      5  C   UNL     1      -3.419  14.270  24.686  0.00  0.00    +0.000 A 
ATOM      6  C   UNL     1      -3.913  12.977  24.525  0.00  0.00    +0.000 A 
ATOM      7  C   UNL     1      -3.263  12.080  23.675  0.00  0.00    +0.000 A 
ATOM      8  C   UNL     1      -2.116  12.465  22.974  0.00  0.00    +0.000 A 
ATOM      9  N   UNL     1      -1.518  11.555  22.105  0.00  0.00    +0.000 NA
ATOM     10  C   UNL     1      -0.477  11.912  21.412  0.00  0.00    +0.000 A 
ATOM     11  N   UNL     1       0.086  13.195  21.500  0.00  0.00    +0.000 N 
ENDROOT
BRANCH  11  12
ATOM     12  C   UNL     1       1.105  13.667  20.627  0.00  0.00    +0.000 A 
ATOM     13  C   UNL     1       2.453  13.511  20.987  0.00  0.00    +0.000 A 
ATOM     14  C   UNL     1       3.466  13.988  20.157  0.00  0.00    +0.000 A 
ATOM     15  C   UNL     1       3.133  14.656  18.981  0.00  0.00    +0.000 A 
ATOM     16 BR   UNL     1       4.505  15.373  17.896  0.00  0.00    +0.000 Br
ATOM     17  C   UNL     1       1.798  14.817  18.609  0.00  0.00    +0.000 A 
ATOM     18  C   UNL     1       0.781  14.313  19.426  0.00  0.00    +0.000 A 
ENDBRANCH  11  12
BRANCH  10  19
ATOM     19  C   UNL     1       0.129  10.848  20.543  0.00  0.00    +0.000 A 
ATOM     20  C   UNL     1       0.872   9.840  21.174  0.00  0.00    +0.000 A 
ATOM     21  C   UNL     1       1.538   8.873  20.422  0.00  0.00    +0.000 A 
ATOM     22  C   UNL     1       1.438   8.880  19.033  0.00  0.00    +0.000 A 
ATOM     23  C   UNL     1       0.718   9.886  18.397  0.00  0.00    +0.000 A 
ATOM     24  C   UNL     1       0.093  10.885  19.147  0.00  0.00    +0.000 A 
BRANCH  22  25
ATOM     25  O   UNL     1       2.026   7.973  18.198  0.00  0.00    +0.000 OA
BRANCH  25  26
ATOM     26  C   UNL     1       2.512   6.788  18.827  0.00  0.00    +0.000 C 
BRANCH  26  27
ATOM     27  C   UNL     1       3.461   6.102  17.884  0.00  0.00    +0.000 A 
ATOM     28  C   UNL     1       3.419   4.713  17.715  0.00  0.00    +0.000 A 
ATOM     29  C   UNL     1       4.285   4.092  16.815  0.00  0.00    +0.000 A 
ATOM     30  C   UNL     1       5.191   4.854  16.077  0.00  0.00    +0.000 A 
ATOM     31  C   UNL     1       5.232   6.238  16.232  0.00  0.00    +0.000 A 
ATOM     32  C   UNL     1       4.368   6.860  17.130  0.00  0.00    +0.000 A 
ENDBRANCH  26  27
ENDBRANCH  25  26
ENDBRANCH  22  25
ENDBRANCH  10  19
TORSDOF 5
ENDMDL
MODEL 5
REMARK VINA RESULT:      -7.7      1.239      1.712
REMARK  Name = 
REMARK  5 active torsions:
REMARK  status: ('A' for Active; 'I' for Inactive)
REMARK    1  A    between atoms: C_10  and  C_11
REMARK    2  A    between atoms: C_14  and  O_15
REMARK    3  A    between atoms: O_15  and  C_16
REMARK    4  A    between atoms: C_16  and  C_17
REMARK    5  A    between atoms: N_25  and  C_26
REMARK                            x       y       z     vdW  Elec       q    Type
REMARK                         _______ _______ _______ _____ _____    ______ ____
ROOT
ATOM      1  O   UNL     1      -0.595  15.697  21.354  0.00  0.00    +0.000 OA
ATOM      2  C   UNL     1      -1.011  14.554  21.145  0.00  0.00    +0.000 A 
ATOM      3  C   UNL     1      -2.414  14.263  21.464  0.00  0.00    +0.000 A 
ATOM      4  C   UNL     1      -3.279  15.273  21.903  0.00  0.00    +0.000 A 
ATOM      5  C   UNL     1      -4.611  14.970  22.176  0.00  0.00    +0.000 A 
ATOM      6  C   UNL     1      -5.067  13.662  22.025  0.00  0.00    +0.000 A 
ATOM      7  C   UNL     1      -4.196  12.664  21.582  0.00  0.00    +0.000 A 
ATOM      8  C   UNL     1      -2.864  12.963  21.281  0.00  0.00    +0.000 A 
ATOM      9  N   UNL     1      -2.036  11.948  20.804  0.00  0.00    +0.000 NA
ATOM     10  C   UNL     1      -0.806  12.219  20.477  0.00  0.00    +0.000 A 
ATOM     11  N   UNL     1      -0.262  13.508  20.585  0.00  0.00    +0.000 N 
ENDROOT
BRANCH  11  12
ATOM     12  C   UNL     1       1.015  13.868  20.069  0.00  0.00    +0.000 A 
ATOM     13  C   UNL     1       1.128  14.294  18.736  0.00  0.00    +0.000 A 
ATOM     14  C   UNL     1       2.372  14.628  18.203  0.00  0.00    +0.000 A 
ATOM     15  C   UNL     1       3.512  14.501  18.992  0.00  0.00    +0.000 A 
ATOM     16 BR   UNL     1       5.208  14.878  18.245  0.00  0.00    +0.000 Br
ATOM     17  C   UNL     1       3.416  14.080  20.319  0.00  0.00    +0.000 A 
ATOM     18  C   UNL     1       2.165  13.773  20.864  0.00  0.00    +0.000 A 
ENDBRANCH  11  12
BRANCH  10  19
ATOM     19  C   UNL     1       0.023  11.053  20.023  0.00  0.00    +0.000 A 
ATOM     20  C   UNL     1       0.106  10.814  18.643  0.00  0.00    +0.000 A 
ATOM     21  C   UNL     1       0.783   9.696  18.157  0.00  0.00    +0.000 A 
ATOM     22  C   UNL     1       1.415   8.824  19.040  0.00  0.00    +0.000 A 
ATOM     23  C   UNL     1       1.322   9.044  20.411  0.00  0.00    +0.000 A 
ATOM     24  C   UNL     1       0.602  10.134  20.902  0.00  0.00    +0.000 A 
BRANCH  22  25
ATOM     25  O   UNL     1       2.124   7.715  18.678  0.00  0.00    +0.000 OA
BRANCH  25  26
ATOM     26  C   UNL     1       2.515   6.861  19.751  0.00  0.00    +0.000 C 
BRANCH  26  27
ATOM     27  C   UNL     1       2.003   5.475  19.472  0.00  0.00    +0.000 A 
ATOM     28  C   UNL     1       2.137   4.908  18.199  0.00  0.00    +0.000 A 
ATOM     29  C   UNL     1       1.684   3.611  17.961  0.00  0.00    +0.000 A 
ATOM     30  C   UNL     1       1.101   2.874  18.992  0.00  0.00    +0.000 A 
ATOM     31  C   UNL     1       0.973   3.427  20.264  0.00  0.00    +0.000 A 
ATOM     32  C   UNL     1       1.425   4.722  20.504  0.00  0.00    +0.000 A 
ENDBRANCH  26  27
ENDBRANCH  25  26
ENDBRANCH  22  25
ENDBRANCH  10  19
TORSDOF 5
ENDMDL
MODEL 6
REMARK VINA RESULT:      -7.7      0.666      1.583
REMARK  Name = 
REMARK  5 active torsions:
REMARK  status: ('A' for Active; 'I' for Inactive)
REMARK    1  A    between atoms: C_10  and  C_11
REMARK    2  A    between atoms: C_14  and  O_15
REMARK    3  A    between atoms: O_15  and  C_16
REMARK    4  A    between atoms: C_16  and  C_17
REMARK    5  A    between atoms: N_25  and  C_26
REMARK                            x       y       z     vdW  Elec       q    Type
REMARK                         _______ _______ _______ _____ _____    ______ ____
ROOT
ATOM      1  O   UNL     1      -0.099  15.403  22.694  0.00  0.00    +0.000 OA
ATOM      2  C   UNL     1      -0.516  14.257  22.507  0.00  0.00    +0.000 A 
ATOM      3  C   UNL     1      -1.729  13.840  23.219  0.00  0.00    +0.000 A 
ATOM      4  C   UNL     1      -2.446  14.744  24.014  0.00  0.00    +0.000 A 
ATOM      5  C   UNL     1      -3.607  14.325  24.660  0.00  0.00    +0.000 A 
ATOM      6  C   UNL     1      -4.037  13.006  24.523  0.00  0.00    +0.000 A 
ATOM      7  C   UNL     1      -3.316  12.115  23.724  0.00  0.00    +0.000 A 
ATOM      8  C   UNL     1      -2.164  12.533  23.051  0.00  0.00    +0.000 A 
ATOM      9  N   UNL     1      -1.494  11.626  22.232  0.00  0.00    +0.000 NA
ATOM     10  C   UNL     1      -0.446  12.010  21.564  0.00  0.00    +0.000 A 
ATOM     11  N   UNL     1       0.054  13.320  21.632  0.00  0.00    +0.000 N 
ENDROOT
BRANCH  11  12
ATOM     12  C   UNL     1       1.082  13.813  20.780  0.00  0.00    +0.000 A 
ATOM     13  C   UNL     1       0.739  14.452  19.578  0.00  0.00    +0.000 A 
ATOM     14  C   UNL     1       1.730  14.921  18.718  0.00  0.00    +0.000 A 
ATOM     15  C   UNL     1       3.070  14.719  19.041  0.00  0.00    +0.000 A 
ATOM     16 BR   UNL     1       4.413  15.284  17.836  0.00  0.00    +0.000 Br
ATOM     17  C   UNL     1       3.427  14.087  20.232  0.00  0.00    +0.000 A 
ATOM     18  C   UNL     1       2.433  13.642  21.110  0.00  0.00    +0.000 A 
ENDBRANCH  11  12
BRANCH  10  19
ATOM     19  C   UNL     1       0.238  10.950  20.750  0.00  0.00    +0.000 A 
ATOM     20  C   UNL     1       0.082  11.000  19.357  0.00  0.00    +0.000 A 
ATOM     21  C   UNL     1       0.613   9.996  18.548  0.00  0.00    +0.000 A 
ATOM     22  C   UNL     1       1.337   8.951  19.117  0.00  0.00    +0.000 A 
ATOM     23  C   UNL     1       1.481   8.884  20.500  0.00  0.00    +0.000 A 
ATOM     24  C   UNL     1       0.906   9.861  21.315  0.00  0.00    +0.000 A 
BRANCH  22  25
ATOM     25  O   UNL     1       1.920   7.930  18.424  0.00  0.00    +0.000 OA
BRANCH  25  26
ATOM     26  C   UNL     1       2.665   7.003  19.210  0.00  0.00    +0.000 C 
BRANCH  26  27
ATOM     27  C   UNL     1       2.752   5.702  18.462  0.00  0.00    +0.000 A 
ATOM     28  C   UNL     1       3.876   5.400  17.684  0.00  0.00    +0.000 A 
ATOM     29  C   UNL     1       3.957   4.177  17.019  0.00  0.00    +0.000 A 
ATOM     30  C   UNL     1       2.921   3.250  17.132  0.00  0.00    +0.000 A 
ATOM     31  C   UNL     1       1.804   3.538  17.912  0.00  0.00    +0.000 A 
ATOM     32  C   UNL     1       1.721   4.758  18.578  0.00  0.00    +0.000 A 
ENDBRANCH  26  27
ENDBRANCH  25  26
ENDBRANCH  22  25
ENDBRANCH  10  19
TORSDOF 5
ENDMDL
MODEL 7
REMARK VINA RESULT:      -7.6      1.021      1.719
REMARK  Name = 
REMARK  5 active torsions:
REMARK  status: ('A' for Active; 'I' for Inactive)
REMARK    1  A    between atoms: C_10  and  C_11
REMARK    2  A    between atoms: C_14  and  O_15
REMARK    3  A    between atoms: O_15  and  C_16
REMARK    4  A    between atoms: C_16  and  C_17
REMARK    5  A    between atoms: N_25  and  C_26
REMARK                            x       y       z     vdW  Elec       q    Type
REMARK                         _______ _______ _______ _____ _____    ______ ____
ROOT
ATOM      1  O   UNL     1      -0.442  15.461  22.277  0.00  0.00    +0.000 OA
ATOM      2  C   UNL     1      -0.796  14.280  22.311  0.00  0.00    +0.000 A 
ATOM      3  C   UNL     1      -2.028  13.951  23.036  0.00  0.00    +0.000 A 
ATOM      4  C   UNL     1      -2.829  14.956  23.593  0.00  0.00    +0.000 A 
ATOM      5  C   UNL     1      -4.005  14.614  24.256  0.00  0.00    +0.000 A 
ATOM      6  C   UNL     1      -4.367  13.274  24.373  0.00  0.00    +0.000 A 
ATOM      7  C   UNL     1      -3.564  12.280  23.810  0.00  0.00    +0.000 A 
ATOM      8  C   UNL     1      -2.394  12.615  23.121  0.00  0.00    +0.000 A 
ATOM      9  N   UNL     1      -1.639  11.598  22.538  0.00  0.00    +0.000 NA
ATOM     10  C   UNL     1      -0.573  11.896  21.855  0.00  0.00    +0.000 A 
ATOM     11  N   UNL     1      -0.136  13.217  21.675  0.00  0.00    +0.000 N 
ENDROOT
BRANCH  11  12
ATOM     12  C   UNL     1       0.916  13.583  20.789  0.00  0.00    +0.000 A 
ATOM     13  C   UNL     1       2.239  13.615  21.259  0.00  0.00    +0.000 A 
ATOM     14  C   UNL     1       3.281  13.993  20.414  0.00  0.00    +0.000 A 
ATOM     15  C   UNL     1       2.998  14.376  19.105  0.00  0.00    +0.000 A 
ATOM     16 BR   UNL     1       4.401  14.965  17.983  0.00  0.00    +0.000 Br
ATOM     17  C   UNL     1       1.689  14.348  18.623  0.00  0.00    +0.000 A 
ATOM     18  C   UNL     1       0.646  13.940  19.461  0.00  0.00    +0.000 A 
ENDBRANCH  11  12
BRANCH  10  19
ATOM     19  C   UNL     1       0.203  10.732  21.310  0.00  0.00    +0.000 A 
ATOM     20  C   UNL     1       0.274  10.595  19.916  0.00  0.00    +0.000 A 
ATOM     21  C   UNL     1       0.899   9.488  19.343  0.00  0.00    +0.000 A 
ATOM     22  C   UNL     1       1.493   8.524  20.155  0.00  0.00    +0.000 A 
ATOM     23  C   UNL     1       1.411   8.643  21.539  0.00  0.00    +0.000 A 
ATOM     24  C   UNL     1       0.741   9.724  22.115  0.00  0.00    +0.000 A 
BRANCH  22  25
ATOM     25  O   UNL     1       2.150   7.415  19.707  0.00  0.00    +0.000 OA
BRANCH  25  26
ATOM     26  C   UNL     1       2.669   7.506  18.381  0.00  0.00    +0.000 C 
BRANCH  26  27
ATOM     27  C   UNL     1       3.061   6.127  17.926  0.00  0.00    +0.000 A 
ATOM     28  C   UNL     1       2.165   5.057  18.036  0.00  0.00    +0.000 A 
ATOM     29  C   UNL     1       2.531   3.790  17.583  0.00  0.00    +0.000 A 
ATOM     30  C   UNL     1       3.787   3.587  17.014  0.00  0.00    +0.000 A 
ATOM     31  C   UNL     1       4.682   4.648  16.891  0.00  0.00    +0.000 A 
ATOM     32  C   UNL     1       4.319   5.915  17.343  0.00  0.00    +0.000 A 
ENDBRANCH  26  27
ENDBRANCH  25  26
ENDBRANCH  22  25
ENDBRANCH  10  19
TORSDOF 5
ENDMDL
MODEL 8
REMARK VINA RESULT:      -7.6      6.634      8.069
REMARK  Name = 
REMARK  5 active torsions:
REMARK  status: ('A' for Active; 'I' for Inactive)
REMARK    1  A    between atoms: C_10  and  C_11
REMARK    2  A    between atoms: C_14  and  O_15
REMARK    3  A    between atoms: O_15  and  C_16
REMARK    4  A    between atoms: C_16  and  C_17
REMARK    5  A    between atoms: N_25  and  C_26
REMARK                            x       y       z     vdW  Elec       q    Type
REMARK                         _______ _______ _______ _____ _____    ______ ____
ROOT
ATOM      1  O   UNL     1       0.984  16.152  20.953  0.00  0.00    +0.000 OA
ATOM      2  C   UNL     1       1.659  16.477  19.973  0.00  0.00    +0.000 A 
ATOM      3  C   UNL     1       0.988  17.189  18.879  0.00  0.00    +0.000 A 
ATOM      4  C   UNL     1      -0.355  17.572  18.984  0.00  0.00    +0.000 A 
ATOM      5  C   UNL     1      -0.958  18.267  17.938  0.00  0.00    +0.000 A 
ATOM      6  C   UNL     1      -0.225  18.562  16.790  0.00  0.00    +0.000 A 
ATOM      7  C   UNL     1       1.115  18.179  16.699  0.00  0.00    +0.000 A 
ATOM      8  C   UNL     1       1.737  17.503  17.753  0.00  0.00    +0.000 A 
ATOM      9  N   UNL     1       3.086  17.173  17.641  0.00  0.00    +0.000 NA
ATOM     10  C   UNL     1       3.691  16.584  18.631  0.00  0.00    +0.000 A 
ATOM     11  N   UNL     1       3.038  16.257  19.829  0.00  0.00    +0.000 N 
ENDROOT
BRANCH  11  12
ATOM     12  C   UNL     1       3.713  15.781  20.988  0.00  0.00    +0.000 A 
ATOM     13  C   UNL     1       3.959  14.406  21.131  0.00  0.00    +0.000 A 
ATOM     14  C   UNL     1       4.597  13.917  22.269  0.00  0.00    +0.000 A 
ATOM     15  C   UNL     1       4.959  14.797  23.285  0.00  0.00    +0.000 A 
ATOM     16 BR   UNL     1       5.753  14.123  24.863  0.00  0.00    +0.000 Br
ATOM     17  C   UNL     1       4.723  16.167  23.157  0.00  0.00    +0.000 A 
ATOM     18  C   UNL     1       4.109  16.663  22.002  0.00  0.00    +0.000 A 
ENDBRANCH  11  12
BRANCH  10  19
ATOM     19  C   UNL     1       5.129  16.222  18.398  0.00  0.00    +0.000 A 
ATOM     20  C   UNL     1       5.400  14.959  17.852  0.00  0.00    +0.000 A 
ATOM     21  C   UNL     1       6.714  14.521  17.694  0.00  0.00    +0.000 A 
ATOM     22  C   UNL     1       7.774  15.354  18.045  0.00  0.00    +0.000 A 
ATOM     23  C   UNL     1       7.515  16.602  18.604  0.00  0.00    +0.000 A 
ATOM     24  C   UNL     1       6.199  17.021  18.811  0.00  0.00    +0.000 A 
BRANCH  22  25
ATOM     25  O   UNL     1       9.096  15.042  17.913  0.00  0.00    +0.000 OA
BRANCH  25  26
ATOM     26  C   UNL     1       9.747  14.619  19.110  0.00  0.00    +0.000 C 
BRANCH  26  27
ATOM     27  C   UNL     1       9.614  13.125  19.223  0.00  0.00    +0.000 A 
ATOM     28  C   UNL     1       9.705  12.312  18.087  0.00  0.00    +0.000 A 
ATOM     29  C   UNL     1       9.610  10.926  18.211  0.00  0.00    +0.000 A 
ATOM     30  C   UNL     1       9.430  10.347  19.466  0.00  0.00    +0.000 A 
ATOM     31  C   UNL     1       9.350  11.147  20.603  0.00  0.00    +0.000 A 
ATOM     32  C   UNL     1       9.445  12.532  20.483  0.00  0.00    +0.000 A 
ENDBRANCH  26  27
ENDBRANCH  25  26
ENDBRANCH  22  25
ENDBRANCH  10  19
TORSDOF 5
ENDMDL
MODEL 9
REMARK VINA RESULT:      -7.6      2.925      4.432
REMARK  Name = 
REMARK  5 active torsions:
REMARK  status: ('A' for Active; 'I' for Inactive)
REMARK    1  A    between atoms: C_10  and  C_11
REMARK    2  A    between atoms: C_14  and  O_15
REMARK    3  A    between atoms: O_15  and  C_16
REMARK    4  A    between atoms: C_16  and  C_17
REMARK    5  A    between atoms: N_25  and  C_26
REMARK                            x       y       z     vdW  Elec       q    Type
REMARK                         _______ _______ _______ _____ _____    ______ ____
ROOT
ATOM      1  O   UNL     1      -0.642  15.567  19.211  0.00  0.00    +0.000 OA
ATOM      2  C   UNL     1       0.134  14.843  19.840  0.00  0.00    +0.000 A 
ATOM      3  C   UNL     1       1.240  15.481  20.563  0.00  0.00    +0.000 A 
ATOM      4  C   UNL     1       1.358  16.876  20.616  0.00  0.00    +0.000 A 
ATOM      5  C   UNL     1       2.405  17.453  21.330  0.00  0.00    +0.000 A 
ATOM      6  C   UNL     1       3.336  16.638  21.971  0.00  0.00    +0.000 A 
ATOM      7  C   UNL     1       3.205  15.248  21.915  0.00  0.00    +0.000 A 
ATOM      8  C   UNL     1       2.143  14.660  21.223  0.00  0.00    +0.000 A 
ATOM      9  N   UNL     1       2.024  13.271  21.223  0.00  0.00    +0.000 NA
ATOM     10  C   UNL     1       1.016  12.709  20.622  0.00  0.00    +0.000 A 
ATOM     11  N   UNL     1       0.025  13.448  19.958  0.00  0.00    +0.000 N 
ENDROOT
BRANCH  11  12
ATOM     12  C   UNL     1      -1.175  12.875  19.451  0.00  0.00    +0.000 A 
ATOM     13  C   UNL     1      -2.330  12.867  20.248  0.00  0.00    +0.000 A 
ATOM     14  C   UNL     1      -3.509  12.290  19.780  0.00  0.00    +0.000 A 
ATOM     15  C   UNL     1      -3.525  11.685  18.526  0.00  0.00    +0.000 A 
ATOM     16 BR   UNL     1      -5.102  10.832  17.924  0.00  0.00    +0.000 Br
ATOM     17  C   UNL     1      -2.386  11.686  17.721  0.00  0.00    +0.000 A 
ATOM     18  C   UNL     1      -1.210  12.291  18.177  0.00  0.00    +0.000 A 
ENDBRANCH  11  12
BRANCH  10  19
ATOM     19  C   UNL     1       1.001  11.208  20.631  0.00  0.00    +0.000 A 
ATOM     20  C   UNL     1       0.679  10.570  21.838  0.00  0.00    +0.000 A 
ATOM     21  C   UNL     1       0.736   9.180  21.943  0.00  0.00    +0.000 A 
ATOM     22  C   UNL     1       1.078   8.411  20.833  0.00  0.00    +0.000 A 
ATOM     23  C   UNL     1       1.417   9.036  19.638  0.00  0.00    +0.000 A 
ATOM     24  C   UNL     1       1.411  10.429  19.546  0.00  0.00    +0.000 A 
BRANCH  22  25
ATOM     25  O   UNL     1       1.143   7.047  20.813  0.00  0.00    +0.000 OA
BRANCH  25  26
ATOM     26  C   UNL     1       2.199   6.497  20.027  0.00  0.00    +0.000 C 
BRANCH  26  27
ATOM     27  C   UNL     1       1.846   5.076  19.681  0.00  0.00    +0.000 A 
ATOM     28  C   UNL     1       1.342   4.208  20.656  0.00  0.00    +0.000 A 
ATOM     29  C   UNL     1       0.991   2.903  20.315  0.00  0.00    +0.000 A 
ATOM     30  C   UNL     1       1.136   2.461  19.000  0.00  0.00    +0.000 A 
ATOM     31  C   UNL     1       1.627   3.321  18.021  0.00  0.00    +0.000 A 
ATOM     32  C   UNL     1       1.978   4.626  18.359  0.00  0.00    +0.000 A 
ENDBRANCH  26  27
ENDBRANCH  25  26
ENDBRANCH  22  25
ENDBRANCH  10  19
TORSDOF 5
ENDMDL
