MODEL 1
REMARK VINA RESULT:      -8.1      0.000      0.000
REMARK  Name = 
REMARK  4 active torsions:
REMARK  status: ('A' for Active; 'I' for Inactive)
REMARK    1  A    between atoms: O_1  and  C_2
REMARK    2  A    between atoms: C_7  and  N_8
REMARK    3  A    between atoms: C_11  and  C_12
REMARK    4  A    between atoms: C_12  and  C_13
REMARK                            x       y       z     vdW  Elec       q    Type
REMARK                         _______ _______ _______ _____ _____    ______ ____
ROOT
ATOM      1  N   UNL     1       4.067   4.943  19.415  0.00  0.00    +0.000 NA
ATOM      2  C   UNL     1       3.441   5.470  18.218  0.00  0.00    +0.000 C 
ATOM      3  C   UNL     1       3.775   4.637  17.000  0.00  0.00    +0.000 C 
ATOM      4  C   UNL     1       5.291   4.464  16.775  0.00  0.00    +0.000 C 
ATOM      5  C   UNL     1       6.141   4.446  18.069  0.00  0.00    +0.000 C 
ATOM      6  C   UNL     1       5.517   5.086  19.310  0.00  0.00    +0.000 C 
ENDROOT
BRANCH   1  12
ATOM      7  C   UNL     1       2.349   3.931  21.021  0.00  0.00    +0.000 C 
ATOM      8  C   UNL     1       1.000   3.947  20.304  0.00  0.00    +0.000 C 
ATOM      9  C   UNL     1       0.740   2.699  19.469  0.00  0.00    +0.000 C 
ATOM     10  C   UNL     1       1.931   2.139  18.697  0.00  0.00    +0.000 C 
ATOM     11  C   UNL     1       3.323   2.409  19.273  0.00  0.00    +0.000 C 
ATOM     12  C   UNL     1       3.558   3.713  20.070  0.00  0.00    +0.000 C 
BRANCH   7  13
ATOM     13  O   UNL     1       2.333   2.858  21.980  0.00  0.00    +0.000 OA
ATOM     14  H   UNL     1       2.892   3.126  22.727  0.00  0.00    +0.000 HD
ENDBRANCH   7  13
ENDBRANCH   1  12
BRANCH   4  15
ATOM     15  C   UNL     1       5.822   5.509  15.772  0.00  0.00    +0.000 C 
BRANCH  15  16
ATOM     16  C   UNL     1       6.241   4.903  14.445  0.00  0.00    +0.000 A 
ATOM     17  C   UNL     1       7.411   5.338  13.811  0.00  0.00    +0.000 A 
ATOM     18  C   UNL     1       7.785   4.810  12.575  0.00  0.00    +0.000 A 
ATOM     19  C   UNL     1       6.997   3.836  11.963  0.00  0.00    +0.000 A 
ATOM     20  C   UNL     1       5.829   3.400  12.582  0.00  0.00    +0.000 A 
ATOM     21  C   UNL     1       5.451   3.927  13.818  0.00  0.00    +0.000 A 
ENDBRANCH  15  16
ENDBRANCH   4  15
TORSDOF 4
ENDMDL
MODEL 2
REMARK VINA RESULT:      -8.1      0.114      1.085
REMARK  Name = 
REMARK  4 active torsions:
REMARK  status: ('A' for Active; 'I' for Inactive)
REMARK    1  A    between atoms: O_1  and  C_2
REMARK    2  A    between atoms: C_7  and  N_8
REMARK    3  A    between atoms: C_11  and  C_12
REMARK    4  A    between atoms: C_12  and  C_13
REMARK                            x       y       z     vdW  Elec       q    Type
REMARK                         _______ _______ _______ _____ _____    ______ ____
ROOT
ATOM      1  N   UNL     1       4.091   4.893  19.400  0.00  0.00    +0.000 NA
ATOM      2  C   UNL     1       3.467   5.411  18.198  0.00  0.00    +0.000 C 
ATOM      3  C   UNL     1       3.834   4.590  16.980  0.00  0.00    +0.000 C 
ATOM      4  C   UNL     1       5.355   4.452  16.773  0.00  0.00    +0.000 C 
ATOM      5  C   UNL     1       6.191   4.448  18.076  0.00  0.00    +0.000 C 
ATOM      6  C   UNL     1       5.539   5.068  19.313  0.00  0.00    +0.000 C 
ENDROOT
BRANCH   1  12
ATOM      7  C   UNL     1       2.493   3.857  21.111  0.00  0.00    +0.000 C 
ATOM      8  C   UNL     1       1.086   3.947  20.523  0.00  0.00    +0.000 C 
ATOM      9  C   UNL     1       0.710   2.747  19.661  0.00  0.00    +0.000 C 
ATOM     10  C   UNL     1       1.806   2.189  18.758  0.00  0.00    +0.000 C 
ATOM     11  C   UNL     1       3.253   2.391  19.215  0.00  0.00    +0.000 C 
ATOM     12  C   UNL     1       3.602   3.649  20.044  0.00  0.00    +0.000 C 
BRANCH   7  13
ATOM     13  O   UNL     1       2.529   2.741  22.019  0.00  0.00    +0.000 OA
ATOM     14  H   UNL     1       1.678   2.279  21.948  0.00  0.00    +0.000 HD
ENDBRANCH   7  13
ENDBRANCH   1  12
BRANCH   4  15
ATOM     15  C   UNL     1       5.874   5.514  15.779  0.00  0.00    +0.000 C 
BRANCH  15  16
ATOM     16  C   UNL     1       6.249   4.933  14.428  0.00  0.00    +0.000 A 
ATOM     17  C   UNL     1       5.458   3.934  13.848  0.00  0.00    +0.000 A 
ATOM     18  C   UNL     1       5.816   3.371  12.623  0.00  0.00    +0.000 A 
ATOM     19  C   UNL     1       6.963   3.805  11.961  0.00  0.00    +0.000 A 
ATOM     20  C   UNL     1       7.760   4.793  12.532  0.00  0.00    +0.000 A 
ATOM     21  C   UNL     1       7.407   5.358  13.759  0.00  0.00    +0.000 A 
ENDBRANCH  15  16
ENDBRANCH   4  15
TORSDOF 4
ENDMDL
MODEL 3
REMARK VINA RESULT:      -7.5      1.066      1.178
REMARK  Name = 
REMARK  4 active torsions:
REMARK  status: ('A' for Active; 'I' for Inactive)
REMARK    1  A    between atoms: O_1  and  C_2
REMARK    2  A    between atoms: C_7  and  N_8
REMARK    3  A    between atoms: C_11  and  C_12
REMARK    4  A    between atoms: C_12  and  C_13
REMARK                            x       y       z     vdW  Elec       q    Type
REMARK                         _______ _______ _______ _____ _____    ______ ____
ROOT
ATOM      1  N   UNL     1       4.385   5.606  19.108  0.00  0.00    +0.000 NA
ATOM      2  C   UNL     1       4.151   6.094  17.763  0.00  0.00    +0.000 C 
ATOM      3  C   UNL     1       4.519   5.060  16.721  0.00  0.00    +0.000 C 
ATOM      4  C   UNL     1       5.966   4.545  16.856  0.00  0.00    +0.000 C 
ATOM      5  C   UNL     1       6.513   4.515  18.305  0.00  0.00    +0.000 C 
ATOM      6  C   UNL     1       5.820   5.426  19.319  0.00  0.00    +0.000 C 
ENDROOT
BRANCH   1  12
ATOM      7  C   UNL     1       1.981   4.765  19.370  0.00  0.00    +0.000 C 
ATOM      8  C   UNL     1       1.592   4.099  18.051  0.00  0.00    +0.000 C 
ATOM      9  C   UNL     1       1.950   2.619  17.988  0.00  0.00    +0.000 C 
ATOM     10  C   UNL     1       3.288   2.218  18.602  0.00  0.00    +0.000 C 
ATOM     11  C   UNL     1       3.827   3.097  19.732  0.00  0.00    +0.000 C 
ATOM     12  C   UNL     1       3.483   4.605  19.729  0.00  0.00    +0.000 C 
BRANCH   7  13
ATOM     13  O   UNL     1       1.202   4.166  20.420  0.00  0.00    +0.000 OA
ATOM     14  H   UNL     1       1.821   3.817  21.081  0.00  0.00    +0.000 HD
ENDBRANCH   7  13
ENDBRANCH   1  12
BRANCH   4  15
ATOM     15  C   UNL     1       6.915   5.318  15.916  0.00  0.00    +0.000 C 
BRANCH  15  16
ATOM     16  C   UNL     1       6.880   4.811  14.486  0.00  0.00    +0.000 A 
ATOM     17  C   UNL     1       7.720   5.376  13.519  0.00  0.00    +0.000 A 
ATOM     18  C   UNL     1       7.669   4.940  12.194  0.00  0.00    +0.000 A 
ATOM     19  C   UNL     1       6.783   3.929  11.824  0.00  0.00    +0.000 A 
ATOM     20  C   UNL     1       5.938   3.365  12.777  0.00  0.00    +0.000 A 
ATOM     21  C   UNL     1       5.986   3.800  14.103  0.00  0.00    +0.000 A 
ENDBRANCH  15  16
ENDBRANCH   4  15
TORSDOF 4
ENDMDL
MODEL 4
REMARK VINA RESULT:      -7.4      3.025      6.679
REMARK  Name = 
REMARK  4 active torsions:
REMARK  status: ('A' for Active; 'I' for Inactive)
REMARK    1  A    between atoms: O_1  and  C_2
REMARK    2  A    between atoms: C_7  and  N_8
REMARK    3  A    between atoms: C_11  and  C_12
REMARK    4  A    between atoms: C_12  and  C_13
REMARK                            x       y       z     vdW  Elec       q    Type
REMARK                         _______ _______ _______ _____ _____    ______ ____
ROOT
ATOM      1  N   UNL     1       5.210   4.127  17.477  0.00  0.00    +0.000 NA
ATOM      2  C   UNL     1       3.996   4.653  16.884  0.00  0.00    +0.000 C 
ATOM      3  C   UNL     1       3.733   6.078  17.321  0.00  0.00    +0.000 C 
ATOM      4  C   UNL     1       3.695   6.251  18.852  0.00  0.00    +0.000 C 
ATOM      5  C   UNL     1       4.614   5.283  19.638  0.00  0.00    +0.000 C 
ATOM      6  C   UNL     1       5.031   3.998  18.922  0.00  0.00    +0.000 C 
ENDROOT
BRANCH   1  12
ATOM      7  C   UNL     1       6.546   5.837  16.118  0.00  0.00    +0.000 C 
ATOM      8  C   UNL     1       6.559   7.137  16.921  0.00  0.00    +0.000 C 
ATOM      9  C   UNL     1       7.718   7.230  17.908  0.00  0.00    +0.000 C 
ATOM     10  C   UNL     1       8.080   5.949  18.653  0.00  0.00    +0.000 C 
ATOM     11  C   UNL     1       7.763   4.624  17.955  0.00  0.00    +0.000 C 
ATOM     12  C   UNL     1       6.547   4.559  17.001  0.00  0.00    +0.000 C 
BRANCH   7  13
ATOM     13  O   UNL     1       7.722   5.810  15.290  0.00  0.00    +0.000 OA
ATOM     14  H   UNL     1       7.620   5.079  14.660  0.00  0.00    +0.000 HD
ENDBRANCH   7  13
ENDBRANCH   1  12
BRANCH   4  15
ATOM     15  C   UNL     1       2.244   6.194  19.377  0.00  0.00    +0.000 C 
BRANCH  15  16
ATOM     16  C   UNL     1       1.853   4.825  19.901  0.00  0.00    +0.000 A 
ATOM     17  C   UNL     1       2.106   4.485  21.236  0.00  0.00    +0.000 A 
ATOM     18  C   UNL     1       1.781   3.216  21.717  0.00  0.00    +0.000 A 
ATOM     19  C   UNL     1       1.194   2.276  20.871  0.00  0.00    +0.000 A 
ATOM     20  C   UNL     1       0.944   2.601  19.540  0.00  0.00    +0.000 A 
ATOM     21  C   UNL     1       1.269   3.870  19.055  0.00  0.00    +0.000 A 
ENDBRANCH  15  16
ENDBRANCH   4  15
TORSDOF 4
ENDMDL
MODEL 5
REMARK VINA RESULT:      -7.4      3.032      6.734
REMARK  Name = 
REMARK  4 active torsions:
REMARK  status: ('A' for Active; 'I' for Inactive)
REMARK    1  A    between atoms: O_1  and  C_2
REMARK    2  A    between atoms: C_7  and  N_8
REMARK    3  A    between atoms: C_11  and  C_12
REMARK    4  A    between atoms: C_12  and  C_13
REMARK                            x       y       z     vdW  Elec       q    Type
REMARK                         _______ _______ _______ _____ _____    ______ ____
ROOT
ATOM      1  N   UNL     1       5.241   4.121  17.474  0.00  0.00    +0.000 NA
ATOM      2  C   UNL     1       4.020   4.626  16.879  0.00  0.00    +0.000 C 
ATOM      3  C   UNL     1       3.738   6.050  17.308  0.00  0.00    +0.000 C 
ATOM      4  C   UNL     1       3.699   6.231  18.838  0.00  0.00    +0.000 C 
ATOM      5  C   UNL     1       4.632   5.281  19.629  0.00  0.00    +0.000 C 
ATOM      6  C   UNL     1       5.066   3.997  18.919  0.00  0.00    +0.000 C 
ENDROOT
BRANCH   1  12
ATOM      7  C   UNL     1       6.555   5.850  16.117  0.00  0.00    +0.000 C 
ATOM      8  C   UNL     1       6.558   7.146  16.926  0.00  0.00    +0.000 C 
ATOM      9  C   UNL     1       7.720   7.247  17.908  0.00  0.00    +0.000 C 
ATOM     10  C   UNL     1       8.099   5.966  18.646  0.00  0.00    +0.000 C 
ATOM     11  C   UNL     1       7.792   4.641  17.942  0.00  0.00    +0.000 C 
ATOM     12  C   UNL     1       6.572   4.568  16.994  0.00  0.00    +0.000 C 
BRANCH   7  13
ATOM     13  O   UNL     1       7.727   5.839  15.283  0.00  0.00    +0.000 OA
ATOM     14  H   UNL     1       7.473   6.194  14.417  0.00  0.00    +0.000 HD
ENDBRANCH   7  13
ENDBRANCH   1  12
BRANCH   4  15
ATOM     15  C   UNL     1       2.250   6.157  19.364  0.00  0.00    +0.000 C 
BRANCH  15  16
ATOM     16  C   UNL     1       1.880   4.788  19.904  0.00  0.00    +0.000 A 
ATOM     17  C   UNL     1       1.258   3.848  19.073  0.00  0.00    +0.000 A 
ATOM     18  C   UNL     1       0.884   2.600  19.571  0.00  0.00    +0.000 A 
ATOM     19  C   UNL     1       1.135   2.274  20.903  0.00  0.00    +0.000 A 
ATOM     20  C   UNL     1       1.748   3.203  21.740  0.00  0.00    +0.000 A 
ATOM     21  C   UNL     1       2.122   4.454  21.245  0.00  0.00    +0.000 A 
ENDBRANCH  15  16
ENDBRANCH   4  15
TORSDOF 4
ENDMDL
MODEL 6
REMARK VINA RESULT:      -7.2      2.447      3.705
REMARK  Name = 
REMARK  4 active torsions:
REMARK  status: ('A' for Active; 'I' for Inactive)
REMARK    1  A    between atoms: O_1  and  C_2
REMARK    2  A    between atoms: C_7  and  N_8
REMARK    3  A    between atoms: C_11  and  C_12
REMARK    4  A    between atoms: C_12  and  C_13
REMARK                            x       y       z     vdW  Elec       q    Type
REMARK                         _______ _______ _______ _____ _____    ______ ____
ROOT
ATOM      1  N   UNL     1       3.543   1.974  19.381  0.00  0.00    +0.000 NA
ATOM      2  C   UNL     1       4.682   2.828  19.655  0.00  0.00    +0.000 C 
ATOM      3  C   UNL     1       4.510   4.202  19.043  0.00  0.00    +0.000 C 
ATOM      4  C   UNL     1       4.225   4.164  17.528  0.00  0.00    +0.000 C 
ATOM      5  C   UNL     1       3.439   2.921  17.045  0.00  0.00    +0.000 C 
ATOM      6  C   UNL     1       3.481   1.688  17.949  0.00  0.00    +0.000 C 
ENDROOT
BRANCH   1  12
ATOM      7  C   UNL     1       2.364   2.802  21.497  0.00  0.00    +0.000 C 
ATOM      8  C   UNL     1       2.430   4.329  21.480  0.00  0.00    +0.000 C 
ATOM      9  C   UNL     1       1.261   4.979  20.748  0.00  0.00    +0.000 C 
ATOM     10  C   UNL     1       0.791   4.288  19.471  0.00  0.00    +0.000 C 
ATOM     11  C   UNL     1       1.023   2.779  19.370  0.00  0.00    +0.000 C 
ATOM     12  C   UNL     1       2.251   2.167  20.084  0.00  0.00    +0.000 C 
BRANCH   7  13
ATOM     13  O   UNL     1       1.207   2.413  22.258  0.00  0.00    +0.000 OA
ATOM     14  H   UNL     1       1.256   2.864  23.116  0.00  0.00    +0.000 HD
ENDBRANCH   7  13
ENDBRANCH   1  12
BRANCH   4  15
ATOM     15  C   UNL     1       5.526   4.352  16.719  0.00  0.00    +0.000 C 
BRANCH  15  16
ATOM     16  C   UNL     1       6.443   5.412  17.300  0.00  0.00    +0.000 A 
ATOM     17  C   UNL     1       7.356   5.076  18.308  0.00  0.00    +0.000 A 
ATOM     18  C   UNL     1       8.177   6.053  18.872  0.00  0.00    +0.000 A 
ATOM     19  C   UNL     1       8.101   7.373  18.430  0.00  0.00    +0.000 A 
ATOM     20  C   UNL     1       7.193   7.718  17.434  0.00  0.00    +0.000 A 
ATOM     21  C   UNL     1       6.367   6.744  16.867  0.00  0.00    +0.000 A 
ENDBRANCH  15  16
ENDBRANCH   4  15
TORSDOF 4
ENDMDL
MODEL 7
REMARK VINA RESULT:      -7.1      2.516      3.727
REMARK  Name = 
REMARK  4 active torsions:
REMARK  status: ('A' for Active; 'I' for Inactive)
REMARK    1  A    between atoms: O_1  and  C_2
REMARK    2  A    between atoms: C_7  and  N_8
REMARK    3  A    between atoms: C_11  and  C_12
REMARK    4  A    between atoms: C_12  and  C_13
REMARK                            x       y       z     vdW  Elec       q    Type
REMARK                         _______ _______ _______ _____ _____    ______ ____
ROOT
ATOM      1  N   UNL     1       3.532   1.879  19.457  0.00  0.00    +0.000 NA
ATOM      2  C   UNL     1       4.689   2.699  19.758  0.00  0.00    +0.000 C 
ATOM      3  C   UNL     1       4.537   4.101  19.208  0.00  0.00    +0.000 C 
ATOM      4  C   UNL     1       4.239   4.135  17.696  0.00  0.00    +0.000 C 
ATOM      5  C   UNL     1       3.426   2.929  17.167  0.00  0.00    +0.000 C 
ATOM      6  C   UNL     1       3.452   1.656  18.015  0.00  0.00    +0.000 C 
ENDROOT
BRANCH   1  12
ATOM      7  C   UNL     1       2.352   2.889  21.493  0.00  0.00    +0.000 C 
ATOM      8  C   UNL     1       2.293   4.400  21.273  0.00  0.00    +0.000 C 
ATOM      9  C   UNL     1       1.054   4.855  20.509  0.00  0.00    +0.000 C 
ATOM     10  C   UNL     1       0.604   3.966  19.354  0.00  0.00    +0.000 C 
ATOM     11  C   UNL     1       0.956   2.479  19.442  0.00  0.00    +0.000 C 
ATOM     12  C   UNL     1       2.250   2.064  20.181  0.00  0.00    +0.000 C 
BRANCH   7  13
ATOM     13  O   UNL     1       1.253   2.517  22.344  0.00  0.00    +0.000 OA
ATOM     14  H   UNL     1       1.627   2.182  23.174  0.00  0.00    +0.000 HD
ENDBRANCH   7  13
ENDBRANCH   1  12
BRANCH   4  15
ATOM     15  C   UNL     1       5.537   4.334  16.883  0.00  0.00    +0.000 C 
BRANCH  15  16
ATOM     16  C   UNL     1       6.435   5.417  17.451  0.00  0.00    +0.000 A 
ATOM     17  C   UNL     1       6.392   6.714  16.925  0.00  0.00    +0.000 A 
ATOM     18  C   UNL     1       7.239   7.707  17.418  0.00  0.00    +0.000 A 
ATOM     19  C   UNL     1       8.134   7.415  18.447  0.00  0.00    +0.000 A 
ATOM     20  C   UNL     1       8.190   6.128  18.973  0.00  0.00    +0.000 A 
ATOM     21  C   UNL     1       7.344   5.131  18.481  0.00  0.00    +0.000 A 
ENDBRANCH  15  16
ENDBRANCH   4  15
TORSDOF 4
ENDMDL
MODEL 8
REMARK VINA RESULT:      -7.1      2.953      6.598
REMARK  Name = 
REMARK  4 active torsions:
REMARK  status: ('A' for Active; 'I' for Inactive)
REMARK    1  A    between atoms: O_1  and  C_2
REMARK    2  A    between atoms: C_7  and  N_8
REMARK    3  A    between atoms: C_11  and  C_12
REMARK    4  A    between atoms: C_12  and  C_13
REMARK                            x       y       z     vdW  Elec       q    Type
REMARK                         _______ _______ _______ _____ _____    ______ ____
ROOT
ATOM      1  N   UNL     1       5.625   4.177  18.711  0.00  0.00    +0.000 NA
ATOM      2  C   UNL     1       4.597   3.369  18.086  0.00  0.00    +0.000 C 
ATOM      3  C   UNL     1       3.825   4.153  17.045  0.00  0.00    +0.000 C 
ATOM      4  C   UNL     1       3.216   5.458  17.593  0.00  0.00    +0.000 C 
ATOM      5  C   UNL     1       4.031   6.132  18.724  0.00  0.00    +0.000 C 
ATOM      6  C   UNL     1       5.000   5.237  19.499  0.00  0.00    +0.000 C 
ENDROOT
BRANCH   1  12
ATOM      7  C   UNL     1       6.673   5.032  16.537  0.00  0.00    +0.000 C 
ATOM      8  C   UNL     1       6.367   6.527  16.449  0.00  0.00    +0.000 C 
ATOM      9  C   UNL     1       7.413   7.403  17.129  0.00  0.00    +0.000 C 
ATOM     10  C   UNL     1       7.977   6.886  18.449  0.00  0.00    +0.000 C 
ATOM     11  C   UNL     1       7.985   5.369  18.656  0.00  0.00    +0.000 C 
ATOM     12  C   UNL     1       6.875   4.522  17.990  0.00  0.00    +0.000 C 
BRANCH   7  13
ATOM     13  O   UNL     1       7.883   4.779  15.801  0.00  0.00    +0.000 OA
ATOM     14  H   UNL     1       8.207   5.632  15.470  0.00  0.00    +0.000 HD
ENDBRANCH   7  13
ENDBRANCH   1  12
BRANCH   4  15
ATOM     15  C   UNL     1       1.746   5.246  18.014  0.00  0.00    +0.000 C 
BRANCH  15  16
ATOM     16  C   UNL     1       1.592   4.287  19.180  0.00  0.00    +0.000 A 
ATOM     17  C   UNL     1       1.912   4.702  20.478  0.00  0.00    +0.000 A 
ATOM     18  C   UNL     1       1.807   3.816  21.551  0.00  0.00    +0.000 A 
ATOM     19  C   UNL     1       1.374   2.508  21.338  0.00  0.00    +0.000 A 
ATOM     20  C   UNL     1       1.059   2.083  20.050  0.00  0.00    +0.000 A 
ATOM     21  C   UNL     1       1.165   2.967  18.974  0.00  0.00    +0.000 A 
ENDBRANCH  15  16
ENDBRANCH   4  15
TORSDOF 4
ENDMDL
MODEL 9
REMARK VINA RESULT:      -7.0      1.757      2.502
REMARK  Name = 
REMARK  4 active torsions:
REMARK  status: ('A' for Active; 'I' for Inactive)
REMARK    1  A    between atoms: O_1  and  C_2
REMARK    2  A    between atoms: C_7  and  N_8
REMARK    3  A    between atoms: C_11  and  C_12
REMARK    4  A    between atoms: C_12  and  C_13
REMARK                            x       y       z     vdW  Elec       q    Type
REMARK                         _______ _______ _______ _____ _____    ______ ____
ROOT
ATOM      1  N   UNL     1       5.649   6.090  17.786  0.00  0.00    +0.000 NA
ATOM      2  C   UNL     1       5.017   6.392  16.516  0.00  0.00    +0.000 C 
ATOM      3  C   UNL     1       4.830   5.147  15.676  0.00  0.00    +0.000 C 
ATOM      4  C   UNL     1       6.137   4.363  15.447  0.00  0.00    +0.000 C 
ATOM      5  C   UNL     1       7.160   4.452  16.605  0.00  0.00    +0.000 C 
ATOM      6  C   UNL     1       7.021   5.643  17.555  0.00  0.00    +0.000 C 
ENDROOT
BRANCH   1  12
ATOM      7  C   UNL     1       3.472   5.981  19.130  0.00  0.00    +0.000 C 
ATOM      8  C   UNL     1       2.407   5.384  18.212  0.00  0.00    +0.000 C 
ATOM      9  C   UNL     1       2.345   3.862  18.263  0.00  0.00    +0.000 C 
ATOM     10  C   UNL     1       3.681   3.130  18.344  0.00  0.00    +0.000 C 
ATOM     11  C   UNL     1       4.846   3.879  18.996  0.00  0.00    +0.000 C 
ATOM     12  C   UNL     1       4.899   5.421  18.877  0.00  0.00    +0.000 C 
BRANCH   7  13
ATOM     13  O   UNL     1       3.109   5.685  20.490  0.00  0.00    +0.000 OA
ATOM     14  H   UNL     1       2.937   6.528  20.938  0.00  0.00    +0.000 HD
ENDBRANCH   7  13
ENDBRANCH   1  12
BRANCH   4  15
ATOM     15  C   UNL     1       6.783   4.750  14.099  0.00  0.00    +0.000 C 
BRANCH  15  16
ATOM     16  C   UNL     1       6.391   3.824  12.962  0.00  0.00    +0.000 A 
ATOM     17  C   UNL     1       5.045   3.679  12.605  0.00  0.00    +0.000 A 
ATOM     18  C   UNL     1       4.675   2.804  11.584  0.00  0.00    +0.000 A 
ATOM     19  C   UNL     1       5.646   2.069  10.905  0.00  0.00    +0.000 A 
ATOM     20  C   UNL     1       6.986   2.201  11.256  0.00  0.00    +0.000 A 
ATOM     21  C   UNL     1       7.361   3.075  12.279  0.00  0.00    +0.000 A 
ENDBRANCH  15  16
ENDBRANCH   4  15
TORSDOF 4
ENDMDL
