MODEL 1
REMARK VINA RESULT:      -8.4      0.000      0.000
REMARK  Name = 
REMARK  8 active torsions:
REMARK  status: ('A' for Active; 'I' for Inactive)
REMARK    1  A    between atoms: C_1  and  C_2
REMARK    2  A    between atoms: C_2  and  O_3
REMARK    3  A    between atoms: O_3  and  C_4
REMARK    4  A    between atoms: C_4  and  C_6
REMARK    5  A    between atoms: C_8  and  C_9
REMARK    6  A    between atoms: C_9  and  O_10
REMARK    7  A    between atoms: O_10  and  C_11
REMARK    8  A    between atoms: C_13  and  C_14
REMARK                            x       y       z     vdW  Elec       q    Type
REMARK                         _______ _______ _______ _____ _____    ______ ____
ROOT
ATOM      1  C   UNL     1       4.087   4.817  18.443  0.00  0.00    +0.000 A 
ATOM      2  C   UNL     1       3.659   6.080  18.044  0.00  0.00    +0.000 A 
ATOM      3  C   UNL     1       2.644   6.712  18.744  0.00  0.00    +0.000 A 
ATOM      4  N   UNL     1       2.011   6.106  19.782  0.00  0.00    +0.000 NA
ATOM      5  C   UNL     1       2.390   4.868  20.148  0.00  0.00    +0.000 A 
ATOM      6  C   UNL     1       1.720   4.262  21.200  0.00  0.00    +0.000 A 
ATOM      7  C   UNL     1       2.070   2.991  21.663  0.00  0.00    +0.000 A 
ATOM      8  C   UNL     1       3.120   2.305  21.066  0.00  0.00    +0.000 A 
ATOM      9  C   UNL     1       3.799   2.888  19.996  0.00  0.00    +0.000 A 
ATOM     10  C   UNL     1       3.442   4.170  19.519  0.00  0.00    +0.000 A 
ENDROOT
BRANCH   3  11
ATOM     11  C   UNL     1       2.253   8.134  18.351  0.00  0.00    +0.000 C 
ATOM     12  F   UNL     1       3.307   8.852  17.852  0.00  0.00    +0.000 F 
ATOM     13  F   UNL     1       1.294   8.186  17.385  0.00  0.00    +0.000 F 
ATOM     14  F   UNL     1       1.789   8.867  19.399  0.00  0.00    +0.000 F 
ENDBRANCH   3  11
BRANCH   1  15
ATOM     15  O   UNL     1       5.106   4.146  17.810  0.00  0.00    +0.000 OA
BRANCH  15  16
ATOM     16  C   UNL     1       6.260   4.935  17.516  0.00  0.00    +0.000 C 
BRANCH  16  19
ATOM     17  C   UNL     1       6.769   4.443  13.920  0.00  0.00    +0.000 A 
ATOM     18  C   UNL     1       6.018   4.062  15.059  0.00  0.00    +0.000 A 
ATOM     19  C   UNL     1       6.496   4.860  16.065  0.00  0.00    +0.000 A 
ATOM     20  O   UNL     1       7.458   5.680  15.571  0.00  0.00    +0.000 OA
ATOM     21  N   UNL     1       7.631   5.427  14.228  0.00  0.00    +0.000 NA
BRANCH  17  22
ATOM     22  C   UNL     1       6.725   3.828  12.600  0.00  0.00    +0.000 C 
ATOM     23  O   UNL     1       7.269   4.323  11.618  0.00  0.00    +0.000 OA
BRANCH  22  24
ATOM     24  O   UNL     1       5.940   2.712  12.570  0.00  0.00    +0.000 OA
BRANCH  24  26
ATOM     25  C   UNL     1       4.029   3.314  11.276  0.00  0.00    +0.000 C 
ATOM     26  C   UNL     1       5.279   2.454  11.329  0.00  0.00    +0.000 C 
ENDBRANCH  24  26
ENDBRANCH  22  24
ENDBRANCH  17  22
ENDBRANCH  16  19
ENDBRANCH  15  16
ENDBRANCH   1  15
TORSDOF 7
ENDMDL
MODEL 2
REMARK VINA RESULT:      -8.0      0.796      1.120
REMARK  Name = 
REMARK  8 active torsions:
REMARK  status: ('A' for Active; 'I' for Inactive)
REMARK    1  A    between atoms: C_1  and  C_2
REMARK    2  A    between atoms: C_2  and  O_3
REMARK    3  A    between atoms: O_3  and  C_4
REMARK    4  A    between atoms: C_4  and  C_6
REMARK    5  A    between atoms: C_8  and  C_9
REMARK    6  A    between atoms: C_9  and  O_10
REMARK    7  A    between atoms: O_10  and  C_11
REMARK    8  A    between atoms: C_13  and  C_14
REMARK                            x       y       z     vdW  Elec       q    Type
REMARK                         _______ _______ _______ _____ _____    ______ ____
ROOT
ATOM      1  C   UNL     1       3.967   4.657  18.175  0.00  0.00    +0.000 A 
ATOM      2  C   UNL     1       3.545   5.916  17.757  0.00  0.00    +0.000 A 
ATOM      3  C   UNL     1       2.627   6.619  18.521  0.00  0.00    +0.000 A 
ATOM      4  N   UNL     1       2.080   6.086  19.644  0.00  0.00    +0.000 NA
ATOM      5  C   UNL     1       2.451   4.852  20.032  0.00  0.00    +0.000 A 
ATOM      6  C   UNL     1       1.868   4.321  21.174  0.00  0.00    +0.000 A 
ATOM      7  C   UNL     1       2.218   3.061  21.663  0.00  0.00    +0.000 A 
ATOM      8  C   UNL     1       3.179   2.307  21.001  0.00  0.00    +0.000 A 
ATOM      9  C   UNL     1       3.768   2.814  19.842  0.00  0.00    +0.000 A 
ATOM     10  C   UNL     1       3.410   4.086  19.339  0.00  0.00    +0.000 A 
ENDROOT
BRANCH   3  11
ATOM     11  C   UNL     1       2.248   8.035  18.098  0.00  0.00    +0.000 C 
ATOM     12  F   UNL     1       1.057   8.084  17.423  0.00  0.00    +0.000 F 
ATOM     13  F   UNL     1       2.101   8.893  19.146  0.00  0.00    +0.000 F 
ATOM     14  F   UNL     1       3.156   8.600  17.258  0.00  0.00    +0.000 F 
ENDBRANCH   3  11
BRANCH   1  15
ATOM     15  O   UNL     1       4.894   3.918  17.479  0.00  0.00    +0.000 OA
BRANCH  15  16
ATOM     16  C   UNL     1       6.191   4.510  17.382  0.00  0.00    +0.000 C 
BRANCH  16  19
ATOM     17  C   UNL     1       6.920   4.555  13.790  0.00  0.00    +0.000 A 
ATOM     18  C   UNL     1       6.112   4.001  14.815  0.00  0.00    +0.000 A 
ATOM     19  C   UNL     1       6.512   4.651  15.953  0.00  0.00    +0.000 A 
ATOM     20  O   UNL     1       7.483   5.547  15.642  0.00  0.00    +0.000 OA
ATOM     21  N   UNL     1       7.740   5.496  14.290  0.00  0.00    +0.000 NA
BRANCH  17  22
ATOM     22  C   UNL     1       6.967   4.139  12.395  0.00  0.00    +0.000 C 
ATOM     23  O   UNL     1       7.424   4.849  11.505  0.00  0.00    +0.000 OA
BRANCH  22  24
ATOM     24  O   UNL     1       6.364   2.932  12.189  0.00  0.00    +0.000 OA
BRANCH  24  26
ATOM     25  C   UNL     1       6.156   0.825  11.093  0.00  0.00    +0.000 C 
ATOM     26  C   UNL     1       7.023   2.059  11.270  0.00  0.00    +0.000 C 
ENDBRANCH  24  26
ENDBRANCH  22  24
ENDBRANCH  17  22
ENDBRANCH  16  19
ENDBRANCH  15  16
ENDBRANCH   1  15
TORSDOF 7
ENDMDL
MODEL 3
REMARK VINA RESULT:      -7.9      4.397      7.528
REMARK  Name = 
REMARK  8 active torsions:
REMARK  status: ('A' for Active; 'I' for Inactive)
REMARK    1  A    between atoms: C_1  and  C_2
REMARK    2  A    between atoms: C_2  and  O_3
REMARK    3  A    between atoms: O_3  and  C_4
REMARK    4  A    between atoms: C_4  and  C_6
REMARK    5  A    between atoms: C_8  and  C_9
REMARK    6  A    between atoms: C_9  and  O_10
REMARK    7  A    between atoms: O_10  and  C_11
REMARK    8  A    between atoms: C_13  and  C_14
REMARK                            x       y       z     vdW  Elec       q    Type
REMARK                         _______ _______ _______ _____ _____    ______ ____
ROOT
ATOM      1  C   UNL     1       3.589   5.800  18.188  0.00  0.00    +0.000 A 
ATOM      2  C   UNL     1       4.948   5.988  17.952  0.00  0.00    +0.000 A 
ATOM      3  C   UNL     1       5.861   5.066  18.437  0.00  0.00    +0.000 A 
ATOM      4  N   UNL     1       5.469   4.006  19.191  0.00  0.00    +0.000 NA
ATOM      5  C   UNL     1       4.161   3.840  19.459  0.00  0.00    +0.000 A 
ATOM      6  C   UNL     1       3.784   2.759  20.244  0.00  0.00    +0.000 A 
ATOM      7  C   UNL     1       2.446   2.497  20.544  0.00  0.00    +0.000 A 
ATOM      8  C   UNL     1       1.452   3.331  20.047  0.00  0.00    +0.000 A 
ATOM      9  C   UNL     1       1.807   4.432  19.269  0.00  0.00    +0.000 A 
ATOM     10  C   UNL     1       3.162   4.706  18.969  0.00  0.00    +0.000 A 
ENDROOT
BRANCH   3  11
ATOM     11  C   UNL     1       7.337   5.236  18.088  0.00  0.00    +0.000 C 
ATOM     12  F   UNL     1       7.836   4.179  17.375  0.00  0.00    +0.000 F 
ATOM     13  F   UNL     1       7.590   6.336  17.325  0.00  0.00    +0.000 F 
ATOM     14  F   UNL     1       8.135   5.333  19.185  0.00  0.00    +0.000 F 
ENDBRANCH   3  11
BRANCH   1  15
ATOM     15  O   UNL     1       2.629   6.663  17.713  0.00  0.00    +0.000 OA
BRANCH  15  16
ATOM     16  C   UNL     1       2.955   8.049  17.819  0.00  0.00    +0.000 C 
BRANCH  16  19
ATOM     17  C   UNL     1       0.211   9.969  19.309  0.00  0.00    +0.000 A 
ATOM     18  C   UNL     1       0.926   9.676  18.120  0.00  0.00    +0.000 A 
ATOM     19  C   UNL     1       1.835   8.722  18.496  0.00  0.00    +0.000 A 
ATOM     20  O   UNL     1       1.676   8.442  19.815  0.00  0.00    +0.000 OA
ATOM     21  N   UNL     1       0.658   9.215  20.328  0.00  0.00    +0.000 NA
BRANCH  17  22
ATOM     22  C   UNL     1      -0.808  10.995  19.484  0.00  0.00    +0.000 C 
ATOM     23  O   UNL     1      -1.169  11.391  20.587  0.00  0.00    +0.000 OA
BRANCH  22  24
ATOM     24  O   UNL     1      -1.367  11.382  18.301  0.00  0.00    +0.000 OA
BRANCH  24  26
ATOM     25  C   UNL     1      -3.005   9.867  17.459  0.00  0.00    +0.000 C 
ATOM     26  C   UNL     1      -2.778  11.179  18.188  0.00  0.00    +0.000 C 
ENDBRANCH  24  26
ENDBRANCH  22  24
ENDBRANCH  17  22
ENDBRANCH  16  19
ENDBRANCH  15  16
ENDBRANCH   1  15
TORSDOF 7
ENDMDL
MODEL 4
REMARK VINA RESULT:      -7.8      4.686      8.426
REMARK  Name = 
REMARK  8 active torsions:
REMARK  status: ('A' for Active; 'I' for Inactive)
REMARK    1  A    between atoms: C_1  and  C_2
REMARK    2  A    between atoms: C_2  and  O_3
REMARK    3  A    between atoms: O_3  and  C_4
REMARK    4  A    between atoms: C_4  and  C_6
REMARK    5  A    between atoms: C_8  and  C_9
REMARK    6  A    between atoms: C_9  and  O_10
REMARK    7  A    between atoms: O_10  and  C_11
REMARK    8  A    between atoms: C_13  and  C_14
REMARK                            x       y       z     vdW  Elec       q    Type
REMARK                         _______ _______ _______ _____ _____    ______ ____
ROOT
ATOM      1  C   UNL     1       2.989   6.226  18.412  0.00  0.00    +0.000 A 
ATOM      2  C   UNL     1       2.108   5.378  19.077  0.00  0.00    +0.000 A 
ATOM      3  C   UNL     1       2.182   4.010  18.862  0.00  0.00    +0.000 A 
ATOM      4  N   UNL     1       3.058   3.476  17.971  0.00  0.00    +0.000 NA
ATOM      5  C   UNL     1       3.883   4.295  17.293  0.00  0.00    +0.000 A 
ATOM      6  C   UNL     1       4.759   3.729  16.377  0.00  0.00    +0.000 A 
ATOM      7  C   UNL     1       5.670   4.503  15.654  0.00  0.00    +0.000 A 
ATOM      8  C   UNL     1       5.715   5.877  15.849  0.00  0.00    +0.000 A 
ATOM      9  C   UNL     1       4.835   6.470  16.754  0.00  0.00    +0.000 A 
ATOM     10  C   UNL     1       3.905   5.692  17.482  0.00  0.00    +0.000 A 
ENDROOT
BRANCH   3  11
ATOM     11  C   UNL     1       1.274   3.088  19.670  0.00  0.00    +0.000 C 
ATOM     12  F   UNL     1       0.258   2.558  18.920  0.00  0.00    +0.000 F 
ATOM     13  F   UNL     1       1.925   2.015  20.201  0.00  0.00    +0.000 F 
ATOM     14  F   UNL     1       0.659   3.720  20.705  0.00  0.00    +0.000 F 
ENDBRANCH   3  11
BRANCH   1  15
ATOM     15  O   UNL     1       2.987   7.588  18.600  0.00  0.00    +0.000 OA
BRANCH  15  16
ATOM     16  C   UNL     1       2.068   8.311  17.779  0.00  0.00    +0.000 C 
BRANCH  16  19
ATOM     17  C   UNL     1       0.492  10.918  19.817  0.00  0.00    +0.000 A 
ATOM     18  C   UNL     1       0.653   9.524  19.618  0.00  0.00    +0.000 A 
ATOM     19  C   UNL     1       1.539   9.429  18.576  0.00  0.00    +0.000 A 
ATOM     20  O   UNL     1       1.903  10.674  18.179  0.00  0.00    +0.000 OA
ATOM     21  N   UNL     1       1.256  11.611  18.954  0.00  0.00    +0.000 NA
BRANCH  17  22
ATOM     22  C   UNL     1      -0.426  11.567  20.743  0.00  0.00    +0.000 C 
ATOM     23  O   UNL     1      -1.451  12.132  20.376  0.00  0.00    +0.000 OA
BRANCH  22  24
ATOM     24  O   UNL     1       0.035  11.556  22.027  0.00  0.00    +0.000 OA
BRANCH  24  26
ATOM     25  C   UNL     1      -0.187   9.506  23.226  0.00  0.00    +0.000 C 
ATOM     26  C   UNL     1      -0.791  10.877  22.976  0.00  0.00    +0.000 C 
ENDBRANCH  24  26
ENDBRANCH  22  24
ENDBRANCH  17  22
ENDBRANCH  16  19
ENDBRANCH  15  16
ENDBRANCH   1  15
TORSDOF 7
ENDMDL
MODEL 5
REMARK VINA RESULT:      -7.7      0.891      1.259
REMARK  Name = 
REMARK  8 active torsions:
REMARK  status: ('A' for Active; 'I' for Inactive)
REMARK    1  A    between atoms: C_1  and  C_2
REMARK    2  A    between atoms: C_2  and  O_3
REMARK    3  A    between atoms: O_3  and  C_4
REMARK    4  A    between atoms: C_4  and  C_6
REMARK    5  A    between atoms: C_8  and  C_9
REMARK    6  A    between atoms: C_9  and  O_10
REMARK    7  A    between atoms: O_10  and  C_11
REMARK    8  A    between atoms: C_13  and  C_14
REMARK                            x       y       z     vdW  Elec       q    Type
REMARK                         _______ _______ _______ _____ _____    ______ ____
ROOT
ATOM      1  C   UNL     1       3.385   5.928  17.996  0.00  0.00    +0.000 A 
ATOM      2  C   UNL     1       2.910   7.226  17.837  0.00  0.00    +0.000 A 
ATOM      3  C   UNL     1       2.100   7.784  18.814  0.00  0.00    +0.000 A 
ATOM      4  N   UNL     1       1.708   7.074  19.903  0.00  0.00    +0.000 NA
ATOM      5  C   UNL     1       2.128   5.803  20.044  0.00  0.00    +0.000 A 
ATOM      6  C   UNL     1       1.703   5.091  21.156  0.00  0.00    +0.000 A 
ATOM      7  C   UNL     1       2.117   3.778  21.394  0.00  0.00    +0.000 A 
ATOM      8  C   UNL     1       2.982   3.157  20.503  0.00  0.00    +0.000 A 
ATOM      9  C   UNL     1       3.411   3.847  19.370  0.00  0.00    +0.000 A 
ATOM     10  C   UNL     1       2.988   5.173  19.121  0.00  0.00    +0.000 A 
ENDROOT
BRANCH   3  11
ATOM     11  C   UNL     1       1.666   9.240  18.669  0.00  0.00    +0.000 C 
ATOM     12  F   UNL     1       0.519   9.378  17.934  0.00  0.00    +0.000 F 
ATOM     13  F   UNL     1       1.406   9.849  19.859  0.00  0.00    +0.000 F 
ATOM     14  F   UNL     1       2.591  10.009  18.033  0.00  0.00    +0.000 F 
ENDBRANCH   3  11
BRANCH   1  15
ATOM     15  O   UNL     1       4.212   5.325  17.079  0.00  0.00    +0.000 OA
BRANCH  15  16
ATOM     16  C   UNL     1       5.525   5.881  16.990  0.00  0.00    +0.000 C 
BRANCH  16  19
ATOM     17  C   UNL     1       6.742   4.654  13.758  0.00  0.00    +0.000 A 
ATOM     18  C   UNL     1       5.629   4.750  14.631  0.00  0.00    +0.000 A 
ATOM     19  C   UNL     1       6.089   5.490  15.688  0.00  0.00    +0.000 A 
ATOM     20  O   UNL     1       7.384   5.835  15.469  0.00  0.00    +0.000 OA
ATOM     21  N   UNL     1       7.797   5.318  14.259  0.00  0.00    +0.000 NA
BRANCH  17  22
ATOM     22  C   UNL     1       6.819   3.882  12.524  0.00  0.00    +0.000 C 
ATOM     23  O   UNL     1       7.415   4.279  11.529  0.00  0.00    +0.000 OA
BRANCH  22  24
ATOM     24  O   UNL     1       6.081   2.736  12.579  0.00  0.00    +0.000 OA
BRANCH  24  26
ATOM     25  C   UNL     1       4.149   3.192  11.258  0.00  0.00    +0.000 C 
ATOM     26  C   UNL     1       5.419   2.367  11.367  0.00  0.00    +0.000 C 
ENDBRANCH  24  26
ENDBRANCH  22  24
ENDBRANCH  17  22
ENDBRANCH  16  19
ENDBRANCH  15  16
ENDBRANCH   1  15
TORSDOF 7
ENDMDL
MODEL 6
REMARK VINA RESULT:      -7.6      4.754      8.456
REMARK  Name = 
REMARK  8 active torsions:
REMARK  status: ('A' for Active; 'I' for Inactive)
REMARK    1  A    between atoms: C_1  and  C_2
REMARK    2  A    between atoms: C_2  and  O_3
REMARK    3  A    between atoms: O_3  and  C_4
REMARK    4  A    between atoms: C_4  and  C_6
REMARK    5  A    between atoms: C_8  and  C_9
REMARK    6  A    between atoms: C_9  and  O_10
REMARK    7  A    between atoms: O_10  and  C_11
REMARK    8  A    between atoms: C_13  and  C_14
REMARK                            x       y       z     vdW  Elec       q    Type
REMARK                         _______ _______ _______ _____ _____    ______ ____
ROOT
ATOM      1  C   UNL     1       3.273   5.839  18.380  0.00  0.00    +0.000 A 
ATOM      2  C   UNL     1       4.277   5.817  17.416  0.00  0.00    +0.000 A 
ATOM      3  C   UNL     1       4.518   4.652  16.706  0.00  0.00    +0.000 A 
ATOM      4  N   UNL     1       3.836   3.506  16.965  0.00  0.00    +0.000 NA
ATOM      5  C   UNL     1       2.893   3.508  17.925  0.00  0.00    +0.000 A 
ATOM      6  C   UNL     1       2.220   2.322  18.184  0.00  0.00    +0.000 A 
ATOM      7  C   UNL     1       1.206   2.245  19.142  0.00  0.00    +0.000 A 
ATOM      8  C   UNL     1       0.848   3.378  19.860  0.00  0.00    +0.000 A 
ATOM      9  C   UNL     1       1.521   4.577  19.628  0.00  0.00    +0.000 A 
ATOM     10  C   UNL     1       2.554   4.659  18.665  0.00  0.00    +0.000 A 
ENDROOT
BRANCH   3  11
ATOM     11  C   UNL     1       5.557   4.672  15.588  0.00  0.00    +0.000 C 
ATOM     12  F   UNL     1       5.971   5.940  15.276  0.00  0.00    +0.000 F 
ATOM     13  F   UNL     1       6.695   3.987  15.892  0.00  0.00    +0.000 F 
ATOM     14  F   UNL     1       5.091   4.153  14.420  0.00  0.00    +0.000 F 
ENDBRANCH   3  11
BRANCH   1  15
ATOM     15  O   UNL     1       2.965   6.967  19.102  0.00  0.00    +0.000 OA
BRANCH  15  16
ATOM     16  C   UNL     1       2.267   7.980  18.374  0.00  0.00    +0.000 C 
BRANCH  16  19
ATOM     17  C   UNL     1       0.524   9.861  20.993  0.00  0.00    +0.000 A 
ATOM     18  C   UNL     1       1.432   8.809  20.713  0.00  0.00    +0.000 A 
ATOM     19  C   UNL     1       1.577   8.837  19.351  0.00  0.00    +0.000 A 
ATOM     20  O   UNL     1       0.823   9.843  18.838  0.00  0.00    +0.000 OA
ATOM     21  N   UNL     1       0.165  10.491  19.861  0.00  0.00    +0.000 NA
BRANCH  17  22
ATOM     22  C   UNL     1      -0.048  10.199  22.290  0.00  0.00    +0.000 C 
ATOM     23  O   UNL     1       0.419   9.790  23.348  0.00  0.00    +0.000 OA
BRANCH  22  24
ATOM     24  O   UNL     1      -1.197  10.926  22.180  0.00  0.00    +0.000 OA
BRANCH  24  26
ATOM     25  C   UNL     1      -2.894  12.159  23.315  0.00  0.00    +0.000 C 
ATOM     26  C   UNL     1      -1.400  11.920  23.187  0.00  0.00    +0.000 C 
ENDBRANCH  24  26
ENDBRANCH  22  24
ENDBRANCH  17  22
ENDBRANCH  16  19
ENDBRANCH  15  16
ENDBRANCH   1  15
TORSDOF 7
ENDMDL
MODEL 7
REMARK VINA RESULT:      -7.6      4.388      7.953
REMARK  Name = 
REMARK  8 active torsions:
REMARK  status: ('A' for Active; 'I' for Inactive)
REMARK    1  A    between atoms: C_1  and  C_2
REMARK    2  A    between atoms: C_2  and  O_3
REMARK    3  A    between atoms: O_3  and  C_4
REMARK    4  A    between atoms: C_4  and  C_6
REMARK    5  A    between atoms: C_8  and  C_9
REMARK    6  A    between atoms: C_9  and  O_10
REMARK    7  A    between atoms: O_10  and  C_11
REMARK    8  A    between atoms: C_13  and  C_14
REMARK                            x       y       z     vdW  Elec       q    Type
REMARK                         _______ _______ _______ _____ _____    ______ ____
ROOT
ATOM      1  C   UNL     1       3.506   5.712  18.093  0.00  0.00    +0.000 A 
ATOM      2  C   UNL     1       4.796   5.783  17.575  0.00  0.00    +0.000 A 
ATOM      3  C   UNL     1       5.733   4.829  17.939  0.00  0.00    +0.000 A 
ATOM      4  N   UNL     1       5.442   3.852  18.837  0.00  0.00    +0.000 NA
ATOM      5  C   UNL     1       4.209   3.802  19.375  0.00  0.00    +0.000 A 
ATOM      6  C   UNL     1       3.939   2.806  20.302  0.00  0.00    +0.000 A 
ATOM      7  C   UNL     1       2.677   2.664  20.884  0.00  0.00    +0.000 A 
ATOM      8  C   UNL     1       1.654   3.534  20.533  0.00  0.00    +0.000 A 
ATOM      9  C   UNL     1       1.906   4.553  19.614  0.00  0.00    +0.000 A 
ATOM     10  C   UNL     1       3.184   4.706  19.028  0.00  0.00    +0.000 A 
ENDROOT
BRANCH   3  11
ATOM     11  C   UNL     1       7.113   4.866  17.289  0.00  0.00    +0.000 C 
ATOM     12  F   UNL     1       7.160   4.172  16.110  0.00  0.00    +0.000 F 
ATOM     13  F   UNL     1       7.534   6.125  16.981  0.00  0.00    +0.000 F 
ATOM     14  F   UNL     1       8.082   4.312  18.066  0.00  0.00    +0.000 F 
ENDBRANCH   3  11
BRANCH   1  15
ATOM     15  O   UNL     1       2.522   6.610  17.754  0.00  0.00    +0.000 OA
BRANCH  15  16
ATOM     16  C   UNL     1       2.905   7.984  17.827  0.00  0.00    +0.000 C 
BRANCH  16  19
ATOM     17  C   UNL     1       0.357  10.025  19.494  0.00  0.00    +0.000 A 
ATOM     18  C   UNL     1       1.030   9.756  18.276  0.00  0.00    +0.000 A 
ATOM     19  C   UNL     1       1.856   8.702  18.568  0.00  0.00    +0.000 A 
ATOM     20  O   UNL     1       1.687   8.344  19.867  0.00  0.00    +0.000 OA
ATOM     21  N   UNL     1       0.747   9.165  20.451  0.00  0.00    +0.000 NA
BRANCH  17  22
ATOM     22  C   UNL     1      -0.566  11.121  19.757  0.00  0.00    +0.000 C 
ATOM     23  O   UNL     1      -1.399  11.498  18.940  0.00  0.00    +0.000 OA
BRANCH  22  24
ATOM     24  O   UNL     1      -0.328  11.726  20.957  0.00  0.00    +0.000 OA
BRANCH  24  26
ATOM     25  C   UNL     1      -1.214  11.025  23.057  0.00  0.00    +0.000 C 
ATOM     26  C   UNL     1      -1.462  11.865  21.816  0.00  0.00    +0.000 C 
ENDBRANCH  24  26
ENDBRANCH  22  24
ENDBRANCH  17  22
ENDBRANCH  16  19
ENDBRANCH  15  16
ENDBRANCH   1  15
TORSDOF 7
ENDMDL
MODEL 8
REMARK VINA RESULT:      -7.6      4.533      8.063
REMARK  Name = 
REMARK  8 active torsions:
REMARK  status: ('A' for Active; 'I' for Inactive)
REMARK    1  A    between atoms: C_1  and  C_2
REMARK    2  A    between atoms: C_2  and  O_3
REMARK    3  A    between atoms: O_3  and  C_4
REMARK    4  A    between atoms: C_4  and  C_6
REMARK    5  A    between atoms: C_8  and  C_9
REMARK    6  A    between atoms: C_9  and  O_10
REMARK    7  A    between atoms: O_10  and  C_11
REMARK    8  A    between atoms: C_13  and  C_14
REMARK                            x       y       z     vdW  Elec       q    Type
REMARK                         _______ _______ _______ _____ _____    ______ ____
ROOT
ATOM      1  C   UNL     1       3.265   6.241  18.160  0.00  0.00    +0.000 A 
ATOM      2  C   UNL     1       4.565   6.648  17.874  0.00  0.00    +0.000 A 
ATOM      3  C   UNL     1       5.506   5.708  17.483  0.00  0.00    +0.000 A 
ATOM      4  N   UNL     1       5.208   4.384  17.426  0.00  0.00    +0.000 NA
ATOM      5  C   UNL     1       3.965   3.978  17.742  0.00  0.00    +0.000 A 
ATOM      6  C   UNL     1       3.687   2.619  17.692  0.00  0.00    +0.000 A 
ATOM      7  C   UNL     1       2.415   2.116  17.974  0.00  0.00    +0.000 A 
ATOM      8  C   UNL     1       1.388   2.988  18.313  0.00  0.00    +0.000 A 
ATOM      9  C   UNL     1       1.647   4.357  18.385  0.00  0.00    +0.000 A 
ATOM     10  C   UNL     1       2.936   4.870  18.107  0.00  0.00    +0.000 A 
ENDROOT
BRANCH   3  11
ATOM     11  C   UNL     1       6.899   6.184  17.082  0.00  0.00    +0.000 C 
ATOM     12  F   UNL     1       7.876   5.729  17.927  0.00  0.00    +0.000 F 
ATOM     13  F   UNL     1       7.277   5.769  15.840  0.00  0.00    +0.000 F 
ATOM     14  F   UNL     1       7.022   7.538  17.093  0.00  0.00    +0.000 F 
ENDBRANCH   3  11
BRANCH   1  15
ATOM     15  O   UNL     1       2.277   7.123  18.528  0.00  0.00    +0.000 OA
BRANCH  15  16
ATOM     16  C   UNL     1       2.161   8.282  17.699  0.00  0.00    +0.000 C 
BRANCH  16  19
ATOM     17  C   UNL     1       0.969  10.912  19.956  0.00  0.00    +0.000 A 
ATOM     18  C   UNL     1       1.137   9.517  19.768  0.00  0.00    +0.000 A 
ATOM     19  C   UNL     1       1.776   9.411  18.560  0.00  0.00    +0.000 A 
ATOM     20  O   UNL     1       1.995  10.652  18.055  0.00  0.00    +0.000 OA
ATOM     21  N   UNL     1       1.497  11.596  18.926  0.00  0.00    +0.000 NA
BRANCH  17  22
ATOM     22  C   UNL     1       0.252  11.566  21.042  0.00  0.00    +0.000 C 
ATOM     23  O   UNL     1       0.655  12.591  21.582  0.00  0.00    +0.000 OA
BRANCH  22  24
ATOM     24  O   UNL     1      -0.845  10.861  21.442  0.00  0.00    +0.000 OA
BRANCH  24  26
ATOM     25  C   UNL     1      -0.077   9.526  23.263  0.00  0.00    +0.000 C 
ATOM     26  C   UNL     1      -0.981  10.675  22.853  0.00  0.00    +0.000 C 
ENDBRANCH  24  26
ENDBRANCH  22  24
ENDBRANCH  17  22
ENDBRANCH  16  19
ENDBRANCH  15  16
ENDBRANCH   1  15
TORSDOF 7
ENDMDL
MODEL 9
REMARK VINA RESULT:      -7.6      4.496      7.961
REMARK  Name = 
REMARK  8 active torsions:
REMARK  status: ('A' for Active; 'I' for Inactive)
REMARK    1  A    between atoms: C_1  and  C_2
REMARK    2  A    between atoms: C_2  and  O_3
REMARK    3  A    between atoms: O_3  and  C_4
REMARK    4  A    between atoms: C_4  and  C_6
REMARK    5  A    between atoms: C_8  and  C_9
REMARK    6  A    between atoms: C_9  and  O_10
REMARK    7  A    between atoms: O_10  and  C_11
REMARK    8  A    between atoms: C_13  and  C_14
REMARK                            x       y       z     vdW  Elec       q    Type
REMARK                         _______ _______ _______ _____ _____    ______ ____
ROOT
ATOM      1  C   UNL     1       2.906   5.886  18.271  0.00  0.00    +0.000 A 
ATOM      2  C   UNL     1       3.915   5.790  17.316  0.00  0.00    +0.000 A 
ATOM      3  C   UNL     1       4.727   4.668  17.289  0.00  0.00    +0.000 A 
ATOM      4  N   UNL     1       4.603   3.676  18.209  0.00  0.00    +0.000 NA
ATOM      5  C   UNL     1       3.658   3.781  19.161  0.00  0.00    +0.000 A 
ATOM      6  C   UNL     1       3.559   2.765  20.101  0.00  0.00    +0.000 A 
ATOM      7  C   UNL     1       2.587   2.780  21.103  0.00  0.00    +0.000 A 
ATOM      8  C   UNL     1       1.684   3.833  21.173  0.00  0.00    +0.000 A 
ATOM      9  C   UNL     1       1.774   4.874  20.249  0.00  0.00    +0.000 A 
ATOM     10  C   UNL     1       2.761   4.867  19.236  0.00  0.00    +0.000 A 
ENDROOT
BRANCH   3  11
ATOM     11  C   UNL     1       5.764   4.537  16.177  0.00  0.00    +0.000 C 
ATOM     12  F   UNL     1       6.998   5.000  16.549  0.00  0.00    +0.000 F 
ATOM     13  F   UNL     1       5.970   3.251  15.776  0.00  0.00    +0.000 F 
ATOM     14  F   UNL     1       5.441   5.244  15.061  0.00  0.00    +0.000 F 
ENDBRANCH   3  11
BRANCH   1  15
ATOM     15  O   UNL     1       2.050   6.959  18.338  0.00  0.00    +0.000 OA
BRANCH  15  16
ATOM     16  C   UNL     1       2.591   8.196  17.871  0.00  0.00    +0.000 C 
BRANCH  16  19
ATOM     17  C   UNL     1       0.625  10.692  19.698  0.00  0.00    +0.000 A 
ATOM     18  C   UNL     1       1.035   9.336  19.641  0.00  0.00    +0.000 A 
ATOM     19  C   UNL     1       1.890   9.283  18.571  0.00  0.00    +0.000 A 
ATOM     20  O   UNL     1       2.005  10.521  18.025  0.00  0.00    +0.000 OA
ATOM     21  N   UNL     1       1.220  11.408  18.728  0.00  0.00    +0.000 NA
BRANCH  17  22
ATOM     22  C   UNL     1      -0.367  11.267  20.597  0.00  0.00    +0.000 C 
ATOM     23  O   UNL     1      -1.472  11.639  20.215  0.00  0.00    +0.000 OA
BRANCH  22  24
ATOM     24  O   UNL     1       0.109  11.429  21.865  0.00  0.00    +0.000 OA
BRANCH  24  26
ATOM     25  C   UNL     1      -0.370   9.488  23.164  0.00  0.00    +0.000 C 
ATOM     26  C   UNL     1      -0.734  10.940  22.910  0.00  0.00    +0.000 C 
ENDBRANCH  24  26
ENDBRANCH  22  24
ENDBRANCH  17  22
ENDBRANCH  16  19
ENDBRANCH  15  16
ENDBRANCH   1  15
TORSDOF 7
ENDMDL
