MODEL 1
REMARK VINA RESULT:      -8.1      0.000      0.000
REMARK  Name = 
REMARK  7 active torsions:
REMARK  status: ('A' for Active; 'I' for Inactive)
REMARK    1  A    between atoms: C_1  and  C_2
REMARK    2  A    between atoms: N_10  and  C_11
REMARK    3  A    between atoms: N_14  and  C_15
REMARK    4  A    between atoms: C_15  and  C_16
REMARK    5  A    between atoms: N_18  and  C_19
REMARK    6  A    between atoms: C_19  and  C_20
REMARK    7  A    between atoms: C_20  and  C_21
REMARK                            x       y       z     vdW  Elec       q    Type
REMARK                         _______ _______ _______ _____ _____    ______ ____
ROOT
ATOM      1  C   UNL     1       2.234   6.908  20.512  0.00  0.00    +0.000 C 
ENDROOT
BRANCH   1   5
ATOM      2  C   UNL     1      -0.017  10.609  19.949  0.00  0.00    +0.000 C 
ATOM      3  C   UNL     1      -0.341   9.659  21.112  0.00  0.00    +0.000 C 
ATOM      4  C   UNL     1       0.768   8.645  21.412  0.00  0.00    +0.000 C 
ATOM      5  N   UNL     1       1.228   7.956  20.198  0.00  0.00    +0.000 NA
ATOM      6  C   UNL     1       1.704   8.893  19.182  0.00  0.00    +0.000 C 
ATOM      7  C   UNL     1       0.596   9.857  18.764  0.00  0.00    +0.000 C 
BRANCH   2  17
ATOM      8  C   UNL     1       3.744  15.937  18.081  0.00  0.00    +0.000 C 
ATOM      9  C   UNL     1       3.006  14.742  18.620  0.00  0.00    +0.000 A 
ATOM     10  C   UNL     1       2.801  13.605  17.827  0.00  0.00    +0.000 A 
ATOM     11  C   UNL     1       2.076  12.497  18.294  0.00  0.00    +0.000 A 
ATOM     12  C   UNL     1       1.569  12.572  19.597  0.00  0.00    +0.000 A 
ATOM     13  C   UNL     1       1.803  13.665  20.426  0.00  0.00    +0.000 A 
ATOM     14  C   UNL     1       2.518  14.770  19.937  0.00  0.00    +0.000 A 
ATOM     15  N   UNL     1       1.239  13.443  21.650  0.00  0.00    +0.000 NA
ATOM     16  N   UNL     1       0.622  12.270  21.613  0.00  0.00    +0.000 NA
ATOM     17  N   UNL     1       0.761  11.769  20.370  0.00  0.00    +0.000 N 
ENDBRANCH   2  17
ENDBRANCH   1   5
BRANCH   1  18
ATOM     18  C   UNL     1       1.888   5.513  19.970  0.00  0.00    +0.000 C 
ATOM     19  O   UNL     1       1.384   4.638  20.670  0.00  0.00    +0.000 OA
ATOM     20  N   UNL     1       2.153   5.335  18.626  0.00  0.00    +0.000 N 
ATOM     21  H   UNL     1       2.530   6.096  18.074  0.00  0.00    +0.000 HD
BRANCH  20  22
ATOM     22  C   UNL     1       1.931   4.065  17.953  0.00  0.00    +0.000 C 
BRANCH  22  23
ATOM     23  C   UNL     1       3.203   3.482  17.330  0.00  0.00    +0.000 C 
BRANCH  23  24
ATOM     24  C   UNL     1       4.376   4.389  17.498  0.00  0.00    +0.000 A 
ATOM     25  N   UNL     1       4.597   5.523  16.864  0.00  0.00    +0.000 NA
ATOM     26  C   UNL     1       5.777   6.011  17.371  0.00  0.00    +0.000 A 
ATOM     27  C   UNL     1       6.470   7.191  17.063  0.00  0.00    +0.000 A 
ATOM     28  C   UNL     1       7.667   7.464  17.739  0.00  0.00    +0.000 A 
ATOM     29  C   UNL     1       8.166   6.577  18.696  0.00  0.00    +0.000 A 
ATOM     30  C   UNL     1       7.489   5.391  19.014  0.00  0.00    +0.000 A 
ATOM     31  C   UNL     1       6.297   5.147  18.328  0.00  0.00    +0.000 A 
ATOM     32  N   UNL     1       5.389   4.122  18.388  0.00  0.00    +0.000 N 
ATOM     33  H   UNL     1       5.445   3.315  18.992  0.00  0.00    +0.000 HD
ENDBRANCH  23  24
ENDBRANCH  22  23
ENDBRANCH  20  22
ENDBRANCH   1  18
TORSDOF 6
ENDMDL
MODEL 2
REMARK VINA RESULT:      -8.1      0.861      1.321
REMARK  Name = 
REMARK  7 active torsions:
REMARK  status: ('A' for Active; 'I' for Inactive)
REMARK    1  A    between atoms: C_1  and  C_2
REMARK    2  A    between atoms: N_10  and  C_11
REMARK    3  A    between atoms: N_14  and  C_15
REMARK    4  A    between atoms: C_15  and  C_16
REMARK    5  A    between atoms: N_18  and  C_19
REMARK    6  A    between atoms: C_19  and  C_20
REMARK    7  A    between atoms: C_20  and  C_21
REMARK                            x       y       z     vdW  Elec       q    Type
REMARK                         _______ _______ _______ _____ _____    ______ ____
ROOT
ATOM      1  C   UNL     1       2.408   6.856  20.071  0.00  0.00    +0.000 C 
ENDROOT
BRANCH   1   5
ATOM      2  C   UNL     1       0.159  10.582  19.702  0.00  0.00    +0.000 C 
ATOM      3  C   UNL     1      -0.193   9.555  20.787  0.00  0.00    +0.000 C 
ATOM      4  C   UNL     1       0.911   8.524  21.048  0.00  0.00    +0.000 C 
ATOM      5  N   UNL     1       1.406   7.922  19.802  0.00  0.00    +0.000 NA
ATOM      6  C   UNL     1       1.906   8.926  18.866  0.00  0.00    +0.000 C 
ATOM      7  C   UNL     1       0.806   9.915  18.485  0.00  0.00    +0.000 C 
BRANCH   2  17
ATOM      8  C   UNL     1       3.821  16.120  18.306  0.00  0.00    +0.000 C 
ATOM      9  C   UNL     1       3.106  14.869  18.737  0.00  0.00    +0.000 A 
ATOM     10  C   UNL     1       2.914  13.804  17.846  0.00  0.00    +0.000 A 
ATOM     11  C   UNL     1       2.210  12.647  18.214  0.00  0.00    +0.000 A 
ATOM     12  C   UNL     1       1.710  12.595  19.521  0.00  0.00    +0.000 A 
ATOM     13  C   UNL     1       1.932  13.612  20.444  0.00  0.00    +0.000 A 
ATOM     14  C   UNL     1       2.626  14.769  20.054  0.00  0.00    +0.000 A 
ATOM     15  N   UNL     1       1.380  13.271  21.646  0.00  0.00    +0.000 NA
ATOM     16  N   UNL     1       0.782  12.097  21.506  0.00  0.00    +0.000 NA
ATOM     17  N   UNL     1       0.921  11.712  20.222  0.00  0.00    +0.000 N 
ENDBRANCH   2  17
ENDBRANCH   1   5
BRANCH   1  18
ATOM     18  C   UNL     1       2.280   5.621  19.166  0.00  0.00    +0.000 C 
ATOM     19  O   UNL     1       1.958   5.700  17.983  0.00  0.00    +0.000 OA
ATOM     20  N   UNL     1       2.593   4.423  19.777  0.00  0.00    +0.000 N 
ATOM     21  H   UNL     1       2.895   4.406  20.743  0.00  0.00    +0.000 HD
BRANCH  20  22
ATOM     22  C   UNL     1       2.484   3.148  19.086  0.00  0.00    +0.000 C 
BRANCH  22  23
ATOM     23  C   UNL     1       3.806   2.682  18.469  0.00  0.00    +0.000 C 
BRANCH  23  24
ATOM     24  C   UNL     1       4.814   3.781  18.405  0.00  0.00    +0.000 A 
ATOM     25  N   UNL     1       5.754   4.045  19.290  0.00  0.00    +0.000 NA
ATOM     26  C   UNL     1       6.449   5.119  18.788  0.00  0.00    +0.000 A 
ATOM     27  C   UNL     1       7.556   5.800  19.314  0.00  0.00    +0.000 A 
ATOM     28  C   UNL     1       8.090   6.875  18.591  0.00  0.00    +0.000 A 
ATOM     29  C   UNL     1       7.528   7.266  17.372  0.00  0.00    +0.000 A 
ATOM     30  C   UNL     1       6.420   6.599  16.833  0.00  0.00    +0.000 A 
ATOM     31  C   UNL     1       5.911   5.530  17.573  0.00  0.00    +0.000 A 
ATOM     32  N   UNL     1       4.871   4.665  17.354  0.00  0.00    +0.000 N 
ATOM     33  H   UNL     1       4.259   4.665  16.551  0.00  0.00    +0.000 HD
ENDBRANCH  23  24
ENDBRANCH  22  23
ENDBRANCH  20  22
ENDBRANCH   1  18
TORSDOF 6
ENDMDL
MODEL 3
REMARK VINA RESULT:      -8.0      1.281      1.776
REMARK  Name = 
REMARK  7 active torsions:
REMARK  status: ('A' for Active; 'I' for Inactive)
REMARK    1  A    between atoms: C_1  and  C_2
REMARK    2  A    between atoms: N_10  and  C_11
REMARK    3  A    between atoms: N_14  and  C_15
REMARK    4  A    between atoms: C_15  and  C_16
REMARK    5  A    between atoms: N_18  and  C_19
REMARK    6  A    between atoms: C_19  and  C_20
REMARK    7  A    between atoms: C_20  and  C_21
REMARK                            x       y       z     vdW  Elec       q    Type
REMARK                         _______ _______ _______ _____ _____    ______ ____
ROOT
ATOM      1  C   UNL     1       2.681   7.053  20.092  0.00  0.00    +0.000 C 
ENDROOT
BRANCH   1   5
ATOM      2  C   UNL     1      -0.090  10.427  19.961  0.00  0.00    +0.000 C 
ATOM      3  C   UNL     1      -0.201   9.359  21.059  0.00  0.00    +0.000 C 
ATOM      4  C   UNL     1       1.055   8.494  21.213  0.00  0.00    +0.000 C 
ATOM      5  N   UNL     1       1.521   7.967  19.922  0.00  0.00    +0.000 NA
ATOM      6  C   UNL     1       1.793   9.033  18.959  0.00  0.00    +0.000 C 
ATOM      7  C   UNL     1       0.538   9.858  18.685  0.00  0.00    +0.000 C 
BRANCH   2  17
ATOM      8  C   UNL     1       3.134  16.165  18.319  0.00  0.00    +0.000 C 
ATOM      9  C   UNL     1       2.513  14.886  18.810  0.00  0.00    +0.000 A 
ATOM     10  C   UNL     1       2.452  13.753  17.988  0.00  0.00    +0.000 A 
ATOM     11  C   UNL     1       1.836  12.564  18.410  0.00  0.00    +0.000 A 
ATOM     12  C   UNL     1       1.287  12.554  19.698  0.00  0.00    +0.000 A 
ATOM     13  C   UNL     1       1.381  13.646  20.555  0.00  0.00    +0.000 A 
ATOM     14  C   UNL     1       1.988  14.831  20.112  0.00  0.00    +0.000 A 
ATOM     15  N   UNL     1       0.810  13.337  21.757  0.00  0.00    +0.000 NA
ATOM     16  N   UNL     1       0.322  12.107  21.678  0.00  0.00    +0.000 NA
ATOM     17  N   UNL     1       0.549  11.652  20.429  0.00  0.00    +0.000 N 
ENDBRANCH   2  17
ENDBRANCH   1   5
BRANCH   1  18
ATOM     18  C   UNL     1       2.384   5.582  19.759  0.00  0.00    +0.000 C 
ATOM     19  O   UNL     1       1.855   5.237  18.705  0.00  0.00    +0.000 OA
ATOM     20  N   UNL     1       2.793   4.679  20.721  0.00  0.00    +0.000 N 
ATOM     21  H   UNL     1       3.264   5.002  21.557  0.00  0.00    +0.000 HD
BRANCH  20  22
ATOM     22  C   UNL     1       2.553   3.250  20.595  0.00  0.00    +0.000 C 
BRANCH  22  23
ATOM     23  C   UNL     1       3.780   2.473  20.110  0.00  0.00    +0.000 C 
BRANCH  23  24
ATOM     24  C   UNL     1       4.547   3.226  19.073  0.00  0.00    +0.000 A 
ATOM     25  N   UNL     1       5.603   3.989  19.268  0.00  0.00    +0.000 NA
ATOM     26  C   UNL     1       5.974   4.438  18.023  0.00  0.00    +0.000 A 
ATOM     27  C   UNL     1       7.040   5.269  17.647  0.00  0.00    +0.000 A 
ATOM     28  C   UNL     1       7.207   5.576  16.291  0.00  0.00    +0.000 A 
ATOM     29  C   UNL     1       6.327   5.069  15.330  0.00  0.00    +0.000 A 
ATOM     30  C   UNL     1       5.255   4.240  15.687  0.00  0.00    +0.000 A 
ATOM     31  C   UNL     1       5.116   3.949  17.046  0.00  0.00    +0.000 A 
ATOM     32  N   UNL     1       4.215   3.183  17.740  0.00  0.00    +0.000 N 
ATOM     33  H   UNL     1       3.446   2.665  17.340  0.00  0.00    +0.000 HD
ENDBRANCH  23  24
ENDBRANCH  22  23
ENDBRANCH  20  22
ENDBRANCH   1  18
TORSDOF 6
ENDMDL
MODEL 4
REMARK VINA RESULT:      -8.0      3.260      4.717
REMARK  Name = 
REMARK  7 active torsions:
REMARK  status: ('A' for Active; 'I' for Inactive)
REMARK    1  A    between atoms: C_1  and  C_2
REMARK    2  A    between atoms: N_10  and  C_11
REMARK    3  A    between atoms: N_14  and  C_15
REMARK    4  A    between atoms: C_15  and  C_16
REMARK    5  A    between atoms: N_18  and  C_19
REMARK    6  A    between atoms: C_19  and  C_20
REMARK    7  A    between atoms: C_20  and  C_21
REMARK                            x       y       z     vdW  Elec       q    Type
REMARK                         _______ _______ _______ _____ _____    ______ ____
ROOT
ATOM      1  C   UNL     1       2.218   6.745  20.118  0.00  0.00    +0.000 C 
ENDROOT
BRANCH   1   5
ATOM      2  C   UNL     1       0.638  10.615  18.850  0.00  0.00    +0.000 C 
ATOM      3  C   UNL     1       1.531   9.785  17.916  0.00  0.00    +0.000 C 
ATOM      4  C   UNL     1       1.662   8.314  18.328  0.00  0.00    +0.000 C 
ATOM      5  N   UNL     1       1.999   8.170  19.751  0.00  0.00    +0.000 NA
ATOM      6  C   UNL     1       1.018   8.820  20.618  0.00  0.00    +0.000 C 
ATOM      7  C   UNL     1       0.933  10.315  20.322  0.00  0.00    +0.000 C 
BRANCH   2  17
ATOM      8  C   UNL     1      -5.598  13.175  19.608  0.00  0.00    +0.000 C 
ATOM      9  C   UNL     1      -4.284  12.465  19.436  0.00  0.00    +0.000 A 
ATOM     10  C   UNL     1      -3.236  12.657  20.347  0.00  0.00    +0.000 A 
ATOM     11  C   UNL     1      -1.986  12.040  20.179  0.00  0.00    +0.000 A 
ATOM     12  C   UNL     1      -1.830  11.213  19.060  0.00  0.00    +0.000 A 
ATOM     13  C   UNL     1      -2.868  10.962  18.169  0.00  0.00    +0.000 A 
ATOM     14  C   UNL     1      -4.107  11.598  18.344  0.00  0.00    +0.000 A 
ATOM     15  N   UNL     1      -2.449  10.082  17.211  0.00  0.00    +0.000 NA
ATOM     16  N   UNL     1      -1.174   9.801  17.439  0.00  0.00    +0.000 NA
ATOM     17  N   UNL     1      -0.777  10.520  18.507  0.00  0.00    +0.000 N 
ENDBRANCH   2  17
ENDBRANCH   1   5
BRANCH   1  18
ATOM     18  C   UNL     1       3.013   5.937  19.081  0.00  0.00    +0.000 C 
ATOM     19  O   UNL     1       2.502   5.494  18.056  0.00  0.00    +0.000 OA
ATOM     20  N   UNL     1       4.354   5.784  19.374  0.00  0.00    +0.000 N 
ATOM     21  H   UNL     1       4.745   6.202  20.210  0.00  0.00    +0.000 HD
BRANCH  20  22
ATOM     22  C   UNL     1       5.250   5.011  18.529  0.00  0.00    +0.000 C 
BRANCH  22  23
ATOM     23  C   UNL     1       6.223   5.880  17.728  0.00  0.00    +0.000 C 
BRANCH  23  24
ATOM     24  C   UNL     1       6.357   5.416  16.315  0.00  0.00    +0.000 A 
ATOM     25  N   UNL     1       7.285   5.772  15.450  0.00  0.00    +0.000 NA
ATOM     26  C   UNL     1       7.016   5.066  14.302  0.00  0.00    +0.000 A 
ATOM     27  C   UNL     1       7.694   5.051  13.075  0.00  0.00    +0.000 A 
ATOM     28  C   UNL     1       7.212   4.227  12.050  0.00  0.00    +0.000 A 
ATOM     29  C   UNL     1       6.074   3.438  12.243  0.00  0.00    +0.000 A 
ATOM     30  C   UNL     1       5.382   3.442  13.461  0.00  0.00    +0.000 A 
ATOM     31  C   UNL     1       5.887   4.271  14.465  0.00  0.00    +0.000 A 
ATOM     32  N   UNL     1       5.486   4.514  15.753  0.00  0.00    +0.000 N 
ATOM     33  H   UNL     1       4.693   4.093  16.216  0.00  0.00    +0.000 HD
ENDBRANCH  23  24
ENDBRANCH  22  23
ENDBRANCH  20  22
ENDBRANCH   1  18
TORSDOF 6
ENDMDL
MODEL 5
REMARK VINA RESULT:      -7.9      3.033      4.504
REMARK  Name = 
REMARK  7 active torsions:
REMARK  status: ('A' for Active; 'I' for Inactive)
REMARK    1  A    between atoms: C_1  and  C_2
REMARK    2  A    between atoms: N_10  and  C_11
REMARK    3  A    between atoms: N_14  and  C_15
REMARK    4  A    between atoms: C_15  and  C_16
REMARK    5  A    between atoms: N_18  and  C_19
REMARK    6  A    between atoms: C_19  and  C_20
REMARK    7  A    between atoms: C_20  and  C_21
REMARK                            x       y       z     vdW  Elec       q    Type
REMARK                         _______ _______ _______ _____ _____    ______ ____
ROOT
ATOM      1  C   UNL     1       2.025   6.291  20.351  0.00  0.00    +0.000 C 
ENDROOT
BRANCH   1   5
ATOM      2  C   UNL     1       0.996  10.366  19.161  0.00  0.00    +0.000 C 
ATOM      3  C   UNL     1       1.805   9.454  18.227  0.00  0.00    +0.000 C 
ATOM      4  C   UNL     1       1.734   7.968  18.596  0.00  0.00    +0.000 C 
ATOM      5  N   UNL     1       2.003   7.741  20.023  0.00  0.00    +0.000 NA
ATOM      6  C   UNL     1       1.085   8.488  20.881  0.00  0.00    +0.000 C 
ATOM      7  C   UNL     1       1.202   9.990  20.631  0.00  0.00    +0.000 C 
BRANCH   2  17
ATOM      8  C   UNL     1      -4.995  13.392  20.150  0.00  0.00    +0.000 C 
ATOM      9  C   UNL     1      -3.748  12.589  19.903  0.00  0.00    +0.000 A 
ATOM     10  C   UNL     1      -2.722  12.538  20.857  0.00  0.00    +0.000 A 
ATOM     11  C   UNL     1      -1.530  11.831  20.628  0.00  0.00    +0.000 A 
ATOM     12  C   UNL     1      -1.410  11.168  19.400  0.00  0.00    +0.000 A 
ATOM     13  C   UNL     1      -2.433  11.156  18.457  0.00  0.00    +0.000 A 
ATOM     14  C   UNL     1      -3.612  11.879  18.698  0.00  0.00    +0.000 A 
ATOM     15  N   UNL     1      -2.063  10.391  17.388  0.00  0.00    +0.000 NA
ATOM     16  N   UNL     1      -0.830   9.954  17.600  0.00  0.00    +0.000 NA
ATOM     17  N   UNL     1      -0.407  10.464  18.774  0.00  0.00    +0.000 N 
ENDBRANCH   2  17
ENDBRANCH   1   5
BRANCH   1  18
ATOM     18  C   UNL     1       2.934   5.449  19.443  0.00  0.00    +0.000 C 
ATOM     19  O   UNL     1       2.493   4.605  18.667  0.00  0.00    +0.000 OA
ATOM     20  N   UNL     1       4.280   5.744  19.540  0.00  0.00    +0.000 N 
ATOM     21  H   UNL     1       4.598   6.478  20.162  0.00  0.00    +0.000 HD
BRANCH  20  22
ATOM     22  C   UNL     1       5.290   5.016  18.789  0.00  0.00    +0.000 C 
BRANCH  22  23
ATOM     23  C   UNL     1       6.114   5.914  17.861  0.00  0.00    +0.000 C 
BRANCH  23  24
ATOM     24  C   UNL     1       6.213   5.354  16.481  0.00  0.00    +0.000 A 
ATOM     25  N   UNL     1       5.395   4.487  15.919  0.00  0.00    +0.000 NA
ATOM     26  C   UNL     1       5.870   4.299  14.643  0.00  0.00    +0.000 A 
ATOM     27  C   UNL     1       5.375   3.492  13.608  0.00  0.00    +0.000 A 
ATOM     28  C   UNL     1       6.051   3.483  12.381  0.00  0.00    +0.000 A 
ATOM     29  C   UNL     1       7.199   4.257  12.191  0.00  0.00    +0.000 A 
ATOM     30  C   UNL     1       7.710   5.066  13.215  0.00  0.00    +0.000 A 
ATOM     31  C   UNL     1       7.014   5.058  14.426  0.00  0.00    +0.000 A 
ATOM     32  N   UNL     1       7.212   5.718  15.611  0.00  0.00    +0.000 N 
ATOM     33  H   UNL     1       7.957   6.370  15.809  0.00  0.00    +0.000 HD
ENDBRANCH  23  24
ENDBRANCH  22  23
ENDBRANCH  20  22
ENDBRANCH   1  18
TORSDOF 6
ENDMDL
MODEL 6
REMARK VINA RESULT:      -7.9      5.494      7.801
REMARK  Name = 
REMARK  7 active torsions:
REMARK  status: ('A' for Active; 'I' for Inactive)
REMARK    1  A    between atoms: C_1  and  C_2
REMARK    2  A    between atoms: N_10  and  C_11
REMARK    3  A    between atoms: N_14  and  C_15
REMARK    4  A    between atoms: C_15  and  C_16
REMARK    5  A    between atoms: N_18  and  C_19
REMARK    6  A    between atoms: C_19  and  C_20
REMARK    7  A    between atoms: C_20  and  C_21
REMARK                            x       y       z     vdW  Elec       q    Type
REMARK                         _______ _______ _______ _____ _____    ______ ____
ROOT
ATOM      1  C   UNL     1       8.386   9.746  17.867  0.00  0.00    +0.000 C 
ENDROOT
BRANCH   1   5
ATOM      2  C   UNL     1      11.016  12.378  20.155  0.00  0.00    +0.000 C 
ATOM      3  C   UNL     1      11.422  11.878  18.762  0.00  0.00    +0.000 C 
ATOM      4  C   UNL     1      10.256  11.319  17.938  0.00  0.00    +0.000 C 
ATOM      5  N   UNL     1       9.456  10.353  18.703  0.00  0.00    +0.000 NA
ATOM      6  C   UNL     1       8.931  10.929  19.939  0.00  0.00    +0.000 C 
ATOM      7  C   UNL     1      10.064  11.399  20.849  0.00  0.00    +0.000 C 
BRANCH   2  17
ATOM      8  C   UNL     1      11.407  18.535  17.334  0.00  0.00    +0.000 C 
ATOM      9  C   UNL     1      11.296  17.244  18.097  0.00  0.00    +0.000 A 
ATOM     10  C   UNL     1      12.318  16.286  18.047  0.00  0.00    +0.000 A 
ATOM     11  C   UNL     1      12.215  15.056  18.715  0.00  0.00    +0.000 A 
ATOM     12  C   UNL     1      11.042  14.824  19.443  0.00  0.00    +0.000 A 
ATOM     13  C   UNL     1      10.034  15.777  19.555  0.00  0.00    +0.000 A 
ATOM     14  C   UNL     1      10.149  16.997  18.869  0.00  0.00    +0.000 A 
ATOM     15  N   UNL     1       9.041  15.304  20.365  0.00  0.00    +0.000 NA
ATOM     16  N   UNL     1       9.363  14.073  20.735  0.00  0.00    +0.000 NA
ATOM     17  N   UNL     1      10.529  13.753  20.140  0.00  0.00    +0.000 N 
ENDBRANCH   2  17
ENDBRANCH   1   5
BRANCH   1  18
ATOM     18  C   UNL     1       8.208   8.233  18.064  0.00  0.00    +0.000 C 
ATOM     19  O   UNL     1       8.654   7.637  19.041  0.00  0.00    +0.000 OA
ATOM     20  N   UNL     1       7.474   7.605  17.076  0.00  0.00    +0.000 N 
ATOM     21  H   UNL     1       7.087   8.142  16.308  0.00  0.00    +0.000 HD
BRANCH  20  22
ATOM     22  C   UNL     1       7.243   6.170  17.075  0.00  0.00    +0.000 C 
BRANCH  22  23
ATOM     23  C   UNL     1       6.922   5.609  18.463  0.00  0.00    +0.000 C 
BRANCH  23  24
ATOM     24  C   UNL     1       5.587   4.943  18.504  0.00  0.00    +0.000 A 
ATOM     25  N   UNL     1       4.447   5.426  18.053  0.00  0.00    +0.000 NA
ATOM     26  C   UNL     1       3.510   4.447  18.281  0.00  0.00    +0.000 A 
ATOM     27  C   UNL     1       2.140   4.427  17.985  0.00  0.00    +0.000 A 
ATOM     28  C   UNL     1       1.396   3.287  18.320  0.00  0.00    +0.000 A 
ATOM     29  C   UNL     1       2.005   2.193  18.941  0.00  0.00    +0.000 A 
ATOM     30  C   UNL     1       3.373   2.197  19.248  0.00  0.00    +0.000 A 
ATOM     31  C   UNL     1       4.089   3.345  18.899  0.00  0.00    +0.000 A 
ATOM     32  N   UNL     1       5.410   3.686  19.032  0.00  0.00    +0.000 N 
ATOM     33  H   UNL     1       6.133   3.110  19.437  0.00  0.00    +0.000 HD
ENDBRANCH  23  24
ENDBRANCH  22  23
ENDBRANCH  20  22
ENDBRANCH   1  18
TORSDOF 6
ENDMDL
MODEL 7
REMARK VINA RESULT:      -7.9      1.200      1.310
REMARK  Name = 
REMARK  7 active torsions:
REMARK  status: ('A' for Active; 'I' for Inactive)
REMARK    1  A    between atoms: C_1  and  C_2
REMARK    2  A    between atoms: N_10  and  C_11
REMARK    3  A    between atoms: N_14  and  C_15
REMARK    4  A    between atoms: C_15  and  C_16
REMARK    5  A    between atoms: N_18  and  C_19
REMARK    6  A    between atoms: C_19  and  C_20
REMARK    7  A    between atoms: C_20  and  C_21
REMARK                            x       y       z     vdW  Elec       q    Type
REMARK                         _______ _______ _______ _____ _____    ______ ____
ROOT
ATOM      1  C   UNL     1       2.221   7.352  20.332  0.00  0.00    +0.000 C 
ENDROOT
BRANCH   1   5
ATOM      2  C   UNL     1      -0.206  10.977  20.116  0.00  0.00    +0.000 C 
ATOM      3  C   UNL     1      -0.268  10.061  21.346  0.00  0.00    +0.000 C 
ATOM      4  C   UNL     1       0.908   9.083  21.452  0.00  0.00    +0.000 C 
ATOM      5  N   UNL     1       1.141   8.365  20.191  0.00  0.00    +0.000 NA
ATOM      6  C   UNL     1       1.381   9.277  19.075  0.00  0.00    +0.000 C 
ATOM      7  C   UNL     1       0.184  10.200  18.855  0.00  0.00    +0.000 C 
BRANCH   2  17
ATOM      8  C   UNL     1       0.519  17.651  19.137  0.00  0.00    +0.000 C 
ATOM      9  C   UNL     1       0.515  16.161  19.340  0.00  0.00    +0.000 A 
ATOM     10  C   UNL     1      -0.268  15.325  18.532  0.00  0.00    +0.000 A 
ATOM     11  C   UNL     1      -0.322  13.937  18.733  0.00  0.00    +0.000 A 
ATOM     12  C   UNL     1       0.451  13.416  19.779  0.00  0.00    +0.000 A 
ATOM     13  C   UNL     1       1.279  14.213  20.562  0.00  0.00    +0.000 A 
ATOM     14  C   UNL     1       1.309  15.602  20.355  0.00  0.00    +0.000 A 
ATOM     15  N   UNL     1       1.950  13.435  21.462  0.00  0.00    +0.000 NA
ATOM     16  N   UNL     1       1.546  12.182  21.305  0.00  0.00    +0.000 NA
ATOM     17  N   UNL     1       0.604  12.169  20.342  0.00  0.00    +0.000 N 
ENDBRANCH   2  17
ENDBRANCH   1   5
BRANCH   1  18
ATOM     18  C   UNL     1       1.827   5.937  19.879  0.00  0.00    +0.000 C 
ATOM     19  O   UNL     1       1.295   5.127  20.634  0.00  0.00    +0.000 OA
ATOM     20  N   UNL     1       2.081   5.665  18.549  0.00  0.00    +0.000 N 
ATOM     21  H   UNL     1       2.482   6.377  17.950  0.00  0.00    +0.000 HD
BRANCH  20  22
ATOM     22  C   UNL     1       1.815   4.363  17.959  0.00  0.00    +0.000 C 
BRANCH  22  23
ATOM     23  C   UNL     1       3.068   3.690  17.393  0.00  0.00    +0.000 C 
BRANCH  23  24
ATOM     24  C   UNL     1       4.283   4.544  17.549  0.00  0.00    +0.000 A 
ATOM     25  N   UNL     1       4.601   5.604  16.834  0.00  0.00    +0.000 NA
ATOM     26  C   UNL     1       5.781   6.071  17.363  0.00  0.00    +0.000 A 
ATOM     27  C   UNL     1       6.555   7.181  16.996  0.00  0.00    +0.000 A 
ATOM     28  C   UNL     1       7.730   7.447  17.711  0.00  0.00    +0.000 A 
ATOM     29  C   UNL     1       8.128   6.621  18.766  0.00  0.00    +0.000 A 
ATOM     30  C   UNL     1       7.368   5.506  19.145  0.00  0.00    +0.000 A 
ATOM     31  C   UNL     1       6.200   5.267  18.417  0.00  0.00    +0.000 A 
ATOM     32  N   UNL     1       5.232   4.302  18.513  0.00  0.00    +0.000 N 
ATOM     33  H   UNL     1       5.211   3.548  19.184  0.00  0.00    +0.000 HD
ENDBRANCH  23  24
ENDBRANCH  22  23
ENDBRANCH  20  22
ENDBRANCH   1  18
TORSDOF 6
ENDMDL
MODEL 8
REMARK VINA RESULT:      -7.8      3.759      6.169
REMARK  Name = 
REMARK  7 active torsions:
REMARK  status: ('A' for Active; 'I' for Inactive)
REMARK    1  A    between atoms: C_1  and  C_2
REMARK    2  A    between atoms: N_10  and  C_11
REMARK    3  A    between atoms: N_14  and  C_15
REMARK    4  A    between atoms: C_15  and  C_16
REMARK    5  A    between atoms: N_18  and  C_19
REMARK    6  A    between atoms: C_19  and  C_20
REMARK    7  A    between atoms: C_20  and  C_21
REMARK                            x       y       z     vdW  Elec       q    Type
REMARK                         _______ _______ _______ _____ _____    ______ ____
ROOT
ATOM      1  C   UNL     1       6.364   4.478  18.358  0.00  0.00    +0.000 C 
ENDROOT
BRANCH   1   5
ATOM      2  C   UNL     1       2.395   6.265  17.996  0.00  0.00    +0.000 C 
ATOM      3  C   UNL     1       2.561   4.792  18.396  0.00  0.00    +0.000 C 
ATOM      4  C   UNL     1       3.974   4.433  18.870  0.00  0.00    +0.000 C 
ATOM      5  N   UNL     1       5.005   4.913  17.939  0.00  0.00    +0.000 NA
ATOM      6  C   UNL     1       4.927   6.357  17.728  0.00  0.00    +0.000 C 
ATOM      7  C   UNL     1       3.572   6.753  17.146  0.00  0.00    +0.000 C 
BRANCH   2  17
ATOM      8  C   UNL     1       0.145  12.290  20.153  0.00  0.00    +0.000 C 
ATOM      9  C   UNL     1       0.745  10.958  19.795  0.00  0.00    +0.000 A 
ATOM     10  C   UNL     1       1.270  10.723  18.517  0.00  0.00    +0.000 A 
ATOM     11  C   UNL     1       1.793   9.474  18.149  0.00  0.00    +0.000 A 
ATOM     12  C   UNL     1       1.775   8.465  19.120  0.00  0.00    +0.000 A 
ATOM     13  C   UNL     1       1.310   8.685  20.413  0.00  0.00    +0.000 A 
ATOM     14  C   UNL     1       0.778   9.937  20.760  0.00  0.00    +0.000 A 
ATOM     15  N   UNL     1       1.461   7.548  21.155  0.00  0.00    +0.000 NA
ATOM     16  N   UNL     1       1.965   6.607  20.370  0.00  0.00    +0.000 NA
ATOM     17  N   UNL     1       2.099   7.128  19.134  0.00  0.00    +0.000 N 
ENDBRANCH   2  17
ENDBRANCH   1   5
BRANCH   1  18
ATOM     18  C   UNL     1       7.213   5.583  19.004  0.00  0.00    +0.000 C 
ATOM     19  O   UNL     1       7.531   5.563  20.191  0.00  0.00    +0.000 OA
ATOM     20  N   UNL     1       7.621   6.578  18.138  0.00  0.00    +0.000 N 
ATOM     21  H   UNL     1       7.372   6.535  17.157  0.00  0.00    +0.000 HD
BRANCH  20  22
ATOM     22  C   UNL     1       8.392   7.727  18.584  0.00  0.00    +0.000 C 
BRANCH  22  23
ATOM     23  C   UNL     1       8.080   9.005  17.800  0.00  0.00    +0.000 C 
BRANCH  23  24
ATOM     24  C   UNL     1       8.763  10.200  18.379  0.00  0.00    +0.000 A 
ATOM     25  N   UNL     1       9.499  10.239  19.471  0.00  0.00    +0.000 NA
ATOM     26  C   UNL     1       9.936  11.537  19.580  0.00  0.00    +0.000 A 
ATOM     27  C   UNL     1      10.761  12.130  20.547  0.00  0.00    +0.000 A 
ATOM     28  C   UNL     1      11.067  13.492  20.425  0.00  0.00    +0.000 A 
ATOM     29  C   UNL     1      10.557  14.248  19.366  0.00  0.00    +0.000 A 
ATOM     30  C   UNL     1       9.728  13.673  18.393  0.00  0.00    +0.000 A 
ATOM     31  C   UNL     1       9.443  12.313  18.538  0.00  0.00    +0.000 A 
ATOM     32  N   UNL     1       8.697  11.440  17.789  0.00  0.00    +0.000 N 
ATOM     33  H   UNL     1       8.196  11.664  16.942  0.00  0.00    +0.000 HD
ENDBRANCH  23  24
ENDBRANCH  22  23
ENDBRANCH  20  22
ENDBRANCH   1  18
TORSDOF 6
ENDMDL
MODEL 9
REMARK VINA RESULT:      -7.7      1.542      2.015
REMARK  Name = 
REMARK  7 active torsions:
REMARK  status: ('A' for Active; 'I' for Inactive)
REMARK    1  A    between atoms: C_1  and  C_2
REMARK    2  A    between atoms: N_10  and  C_11
REMARK    3  A    between atoms: N_14  and  C_15
REMARK    4  A    between atoms: C_15  and  C_16
REMARK    5  A    between atoms: N_18  and  C_19
REMARK    6  A    between atoms: C_19  and  C_20
REMARK    7  A    between atoms: C_20  and  C_21
REMARK                            x       y       z     vdW  Elec       q    Type
REMARK                         _______ _______ _______ _____ _____    ______ ____
ROOT
ATOM      1  C   UNL     1       2.481   7.102  19.707  0.00  0.00    +0.000 C 
ENDROOT
BRANCH   1   5
ATOM      2  C   UNL     1      -0.084  10.638  19.757  0.00  0.00    +0.000 C 
ATOM      3  C   UNL     1      -0.135   9.611  20.898  0.00  0.00    +0.000 C 
ATOM      4  C   UNL     1       1.076   8.674  20.945  0.00  0.00    +0.000 C 
ATOM      5  N   UNL     1       1.365   8.082  19.631  0.00  0.00    +0.000 NA
ATOM      6  C   UNL     1       1.592   9.100  18.607  0.00  0.00    +0.000 C 
ATOM      7  C   UNL     1       0.364   9.993  18.442  0.00  0.00    +0.000 C 
BRANCH   2  17
ATOM      8  C   UNL     1       0.464  17.383  19.291  0.00  0.00    +0.000 C 
ATOM      9  C   UNL     1       0.500  15.883  19.387  0.00  0.00    +0.000 A 
ATOM     10  C   UNL     1      -0.212  15.084  18.482  0.00  0.00    +0.000 A 
ATOM     11  C   UNL     1      -0.229  13.684  18.582  0.00  0.00    +0.000 A 
ATOM     12  C   UNL     1       0.506  13.112  19.628  0.00  0.00    +0.000 A 
ATOM     13  C   UNL     1       1.266  13.876  20.509  0.00  0.00    +0.000 A 
ATOM     14  C   UNL     1       1.260  15.276  20.402  0.00  0.00    +0.000 A 
ATOM     15  N   UNL     1       1.917  13.055  21.386  0.00  0.00    +0.000 NA
ATOM     16  N   UNL     1       1.564  11.806  21.120  0.00  0.00    +0.000 NA
ATOM     17  N   UNL     1       0.673  11.834  20.109  0.00  0.00    +0.000 N 
ENDBRANCH   2  17
ENDBRANCH   1   5
BRANCH   1  18
ATOM     18  C   UNL     1       2.049   5.676  20.083  0.00  0.00    +0.000 C 
ATOM     19  O   UNL     1       2.007   5.284  21.246  0.00  0.00    +0.000 OA
ATOM     20  N   UNL     1       1.676   4.886  19.013  0.00  0.00    +0.000 N 
ATOM     21  H   UNL     1       1.685   5.262  18.073  0.00  0.00    +0.000 HD
BRANCH  20  22
ATOM     22  C   UNL     1       1.283   3.496  19.176  0.00  0.00    +0.000 C 
BRANCH  22  23
ATOM     23  C   UNL     1       2.325   2.507  18.645  0.00  0.00    +0.000 C 
BRANCH  23  24
ATOM     24  C   UNL     1       3.528   3.201  18.098  0.00  0.00    +0.000 A 
ATOM     25  N   UNL     1       4.577   3.619  18.777  0.00  0.00    +0.000 NA
ATOM     26  C   UNL     1       5.432   4.162  17.848  0.00  0.00    +0.000 A 
ATOM     27  C   UNL     1       6.698   4.740  18.019  0.00  0.00    +0.000 A 
ATOM     28  C   UNL     1       7.376   5.221  16.891  0.00  0.00    +0.000 A 
ATOM     29  C   UNL     1       6.801   5.132  15.620  0.00  0.00    +0.000 A 
ATOM     30  C   UNL     1       5.535   4.560  15.431  0.00  0.00    +0.000 A 
ATOM     31  C   UNL     1       4.885   4.087  16.572  0.00  0.00    +0.000 A 
ATOM     32  N   UNL     1       3.673   3.474  16.759  0.00  0.00    +0.000 N 
ATOM     33  H   UNL     1       3.005   3.249  16.036  0.00  0.00    +0.000 HD
ENDBRANCH  23  24
ENDBRANCH  22  23
ENDBRANCH  20  22
ENDBRANCH   1  18
TORSDOF 6
ENDMDL
