MODEL 1
REMARK VINA RESULT:      -6.7      0.000      0.000
REMARK  Name = 
REMARK  4 active torsions:
REMARK  status: ('A' for Active; 'I' for Inactive)
REMARK    1  A    between atoms: N_2  and  C_4
REMARK    2  A    between atoms: C_7  and  N_8
REMARK    3  A    between atoms: N_8  and  C_9
REMARK    4  A    between atoms: C_9  and  N_11
REMARK                            x       y       z     vdW  Elec       q    Type
REMARK                         _______ _______ _______ _____ _____    ______ ____
ROOT
ATOM      1  N   UNL     1       4.424   5.848  19.221  0.00  0.00    +0.000 N 
ATOM      2  H   UNL     1       5.005   6.212  19.966  0.00  0.00    +0.000 HD
ENDROOT
BRANCH   1   6
ATOM      3  C   UNL     1       6.298   5.062  15.542  0.00  0.00    +0.000 A 
ATOM      4  C   UNL     1       6.671   4.351  16.688  0.00  0.00    +0.000 A 
ATOM      5  C   UNL     1       6.038   4.626  17.907  0.00  0.00    +0.000 A 
ATOM      6  C   UNL     1       5.061   5.628  17.985  0.00  0.00    +0.000 A 
ATOM      7  C   UNL     1       4.677   6.310  16.828  0.00  0.00    +0.000 A 
ATOM      8  C   UNL     1       5.293   6.034  15.603  0.00  0.00    +0.000 A 
BRANCH   3  10
ATOM      9  O   UNL     1       6.533   3.819  13.598  0.00  0.00    +0.000 OA
ATOM     10  N   UNL     1       6.953   4.785  14.255  0.00  0.00    +0.000 N 
ATOM     11  O   UNL     1       7.879   5.528  13.897  0.00  0.00    +0.000 OA
ENDBRANCH   3  10
ENDBRANCH   1   6
BRANCH   1  12
ATOM     12  C   UNL     1       3.063   5.906  19.502  0.00  0.00    +0.000 C 
ATOM     13  S   UNL     1       2.186   7.342  19.545  0.00  0.00    +0.000 S 
BRANCH  12  14
ATOM     14  N   UNL     1       2.538   4.646  19.841  0.00  0.00    +0.000 N 
ATOM     15  C   UNL     1       2.172   4.284  21.226  0.00  0.00    +0.000 C 
ATOM     16  C   UNL     1       2.230   2.765  21.438  0.00  0.00    +0.000 C 
ATOM     17  O   UNL     1       1.442   2.064  20.466  0.00  0.00    +0.000 OA
ATOM     18  C   UNL     1       1.890   2.362  19.138  0.00  0.00    +0.000 C 
ATOM     19  C   UNL     1       1.782   3.859  18.850  0.00  0.00    +0.000 C 
ENDBRANCH  12  14
ENDBRANCH   1  12
TORSDOF 4
ENDMDL
MODEL 2
REMARK VINA RESULT:      -6.7      0.650      1.501
REMARK  Name = 
REMARK  4 active torsions:
REMARK  status: ('A' for Active; 'I' for Inactive)
REMARK    1  A    between atoms: N_2  and  C_4
REMARK    2  A    between atoms: C_7  and  N_8
REMARK    3  A    between atoms: N_8  and  C_9
REMARK    4  A    between atoms: C_9  and  N_11
REMARK                            x       y       z     vdW  Elec       q    Type
REMARK                         _______ _______ _______ _____ _____    ______ ____
ROOT
ATOM      1  N   UNL     1       4.172   5.869  19.155  0.00  0.00    +0.000 N 
ATOM      2  H   UNL     1       4.749   6.186  19.925  0.00  0.00    +0.000 HD
ENDROOT
BRANCH   1   6
ATOM      3  C   UNL     1       6.214   5.135  15.555  0.00  0.00    +0.000 A 
ATOM      4  C   UNL     1       5.293   6.186  15.641  0.00  0.00    +0.000 A 
ATOM      5  C   UNL     1       4.620   6.416  16.848  0.00  0.00    +0.000 A 
ATOM      6  C   UNL     1       4.842   5.580  17.951  0.00  0.00    +0.000 A 
ATOM      7  C   UNL     1       5.785   4.554  17.861  0.00  0.00    +0.000 A 
ATOM      8  C   UNL     1       6.473   4.323  16.665  0.00  0.00    +0.000 A 
BRANCH   3  10
ATOM      9  O   UNL     1       7.939   5.565  14.067  0.00  0.00    +0.000 OA
ATOM     10  N   UNL     1       6.929   4.881  14.297  0.00  0.00    +0.000 N 
ATOM     11  O   UNL     1       6.490   4.001  13.541  0.00  0.00    +0.000 OA
ENDBRANCH   3  10
ENDBRANCH   1   6
BRANCH   1  12
ATOM     12  C   UNL     1       2.810   6.052  19.372  0.00  0.00    +0.000 C 
ATOM     13  S   UNL     1       2.116   7.552  19.690  0.00  0.00    +0.000 S 
BRANCH  12  14
ATOM     14  N   UNL     1       2.108   4.833  19.394  0.00  0.00    +0.000 N 
ATOM     15  C   UNL     1       1.254   4.428  20.530  0.00  0.00    +0.000 C 
ATOM     16  C   UNL     1       1.123   2.902  20.610  0.00  0.00    +0.000 C 
ATOM     17  O   UNL     1       0.676   2.342  19.367  0.00  0.00    +0.000 OA
ATOM     18  C   UNL     1       1.583   2.672  18.308  0.00  0.00    +0.000 C 
ATOM     19  C   UNL     1       1.692   4.186  18.137  0.00  0.00    +0.000 C 
ENDBRANCH  12  14
ENDBRANCH   1  12
TORSDOF 4
ENDMDL
MODEL 3
REMARK VINA RESULT:      -6.6      0.413      1.806
REMARK  Name = 
REMARK  4 active torsions:
REMARK  status: ('A' for Active; 'I' for Inactive)
REMARK    1  A    between atoms: N_2  and  C_4
REMARK    2  A    between atoms: C_7  and  N_8
REMARK    3  A    between atoms: N_8  and  C_9
REMARK    4  A    between atoms: C_9  and  N_11
REMARK                            x       y       z     vdW  Elec       q    Type
REMARK                         _______ _______ _______ _____ _____    ______ ____
ROOT
ATOM      1  N   UNL     1       4.409   5.724  19.169  0.00  0.00    +0.000 N 
ATOM      2  H   UNL     1       4.988   6.063  19.928  0.00  0.00    +0.000 HD
ENDROOT
BRANCH   1   6
ATOM      3  C   UNL     1       6.378   5.119  15.505  0.00  0.00    +0.000 A 
ATOM      4  C   UNL     1       5.269   5.971  15.577  0.00  0.00    +0.000 A 
ATOM      5  C   UNL     1       4.623   6.160  16.806  0.00  0.00    +0.000 A 
ATOM      6  C   UNL     1       5.064   5.477  17.948  0.00  0.00    +0.000 A 
ATOM      7  C   UNL     1       6.189   4.654  17.869  0.00  0.00    +0.000 A 
ATOM      8  C   UNL     1       6.850   4.468  16.650  0.00  0.00    +0.000 A 
BRANCH   3  10
ATOM      9  O   UNL     1       8.069   5.605  13.996  0.00  0.00    +0.000 OA
ATOM     10  N   UNL     1       7.067   4.910  14.224  0.00  0.00    +0.000 N 
ATOM     11  O   UNL     1       6.615   4.054  13.449  0.00  0.00    +0.000 OA
ENDBRANCH   3  10
ENDBRANCH   1   6
BRANCH   1  12
ATOM     12  C   UNL     1       3.046   5.842  19.419  0.00  0.00    +0.000 C 
ATOM     13  S   UNL     1       2.251   7.319  19.556  0.00  0.00    +0.000 S 
BRANCH  12  14
ATOM     14  N   UNL     1       2.439   4.592  19.642  0.00  0.00    +0.000 N 
ATOM     15  C   UNL     1       2.017   3.705  18.538  0.00  0.00    +0.000 C 
ATOM     16  C   UNL     1       0.883   2.770  18.978  0.00  0.00    +0.000 C 
ATOM     17  O   UNL     1       1.229   2.037  20.162  0.00  0.00    +0.000 OA
ATOM     18  C   UNL     1       1.535   2.931  21.239  0.00  0.00    +0.000 C 
ATOM     19  C   UNL     1       2.711   3.837  20.878  0.00  0.00    +0.000 C 
ENDBRANCH  12  14
ENDBRANCH   1  12
TORSDOF 4
ENDMDL
MODEL 4
REMARK VINA RESULT:      -6.6      0.506      1.209
REMARK  Name = 
REMARK  4 active torsions:
REMARK  status: ('A' for Active; 'I' for Inactive)
REMARK    1  A    between atoms: N_2  and  C_4
REMARK    2  A    between atoms: C_7  and  N_8
REMARK    3  A    between atoms: N_8  and  C_9
REMARK    4  A    between atoms: C_9  and  N_11
REMARK                            x       y       z     vdW  Elec       q    Type
REMARK                         _______ _______ _______ _____ _____    ______ ____
ROOT
ATOM      1  N   UNL     1       4.361   5.779  19.228  0.00  0.00    +0.000 N 
ATOM      2  H   UNL     1       4.922   6.133  19.993  0.00  0.00    +0.000 HD
ENDROOT
BRANCH   1   6
ATOM      3  C   UNL     1       6.317   5.116  15.567  0.00  0.00    +0.000 A 
ATOM      4  C   UNL     1       6.675   4.378  16.700  0.00  0.00    +0.000 A 
ATOM      5  C   UNL     1       6.014   4.612  17.914  0.00  0.00    +0.000 A 
ATOM      6  C   UNL     1       5.025   5.601  17.999  0.00  0.00    +0.000 A 
ATOM      7  C   UNL     1       4.656   6.310  16.854  0.00  0.00    +0.000 A 
ATOM      8  C   UNL     1       5.299   6.075  15.634  0.00  0.00    +0.000 A 
BRANCH   3  10
ATOM      9  O   UNL     1       6.562   3.972  13.565  0.00  0.00    +0.000 OA
ATOM     10  N   UNL     1       7.000   4.882  14.287  0.00  0.00    +0.000 N 
ATOM     11  O   UNL     1       7.966   5.604  13.998  0.00  0.00    +0.000 OA
ENDBRANCH   3  10
ENDBRANCH   1   6
BRANCH   1  12
ATOM     12  C   UNL     1       2.994   5.809  19.483  0.00  0.00    +0.000 C 
ATOM     13  S   UNL     1       2.143   7.223  19.811  0.00  0.00    +0.000 S 
BRANCH  12  14
ATOM     14  N   UNL     1       2.436   4.518  19.534  0.00  0.00    +0.000 N 
ATOM     15  C   UNL     1       1.936   3.820  18.331  0.00  0.00    +0.000 C 
ATOM     16  C   UNL     1       0.866   2.783  18.695  0.00  0.00    +0.000 C 
ATOM     17  O   UNL     1       1.333   1.870  19.699  0.00  0.00    +0.000 OA
ATOM     18  C   UNL     1       1.715   2.574  20.886  0.00  0.00    +0.000 C 
ATOM     19  C   UNL     1       2.834   3.572  20.591  0.00  0.00    +0.000 C 
ENDBRANCH  12  14
ENDBRANCH   1  12
TORSDOF 4
ENDMDL
MODEL 5
REMARK VINA RESULT:      -6.4      3.100      6.480
REMARK  Name = 
REMARK  4 active torsions:
REMARK  status: ('A' for Active; 'I' for Inactive)
REMARK    1  A    between atoms: N_2  and  C_4
REMARK    2  A    between atoms: C_7  and  N_8
REMARK    3  A    between atoms: N_8  and  C_9
REMARK    4  A    between atoms: C_9  and  N_11
REMARK                            x       y       z     vdW  Elec       q    Type
REMARK                         _______ _______ _______ _____ _____    ______ ____
ROOT
ATOM      1  N   UNL     1       5.374   3.215  16.660  0.00  0.00    +0.000 N 
ATOM      2  H   UNL     1       5.443   2.280  16.276  0.00  0.00    +0.000 HD
ENDROOT
BRANCH   1   6
ATOM      3  C   UNL     1       2.291   3.737  19.469  0.00  0.00    +0.000 A 
ATOM      4  C   UNL     1       2.017   3.818  18.099  0.00  0.00    +0.000 A 
ATOM      5  C   UNL     1       3.056   3.644  17.176  0.00  0.00    +0.000 A 
ATOM      6  C   UNL     1       4.366   3.421  17.621  0.00  0.00    +0.000 A 
ATOM      7  C   UNL     1       4.622   3.313  18.990  0.00  0.00    +0.000 A 
ATOM      8  C   UNL     1       3.589   3.472  19.921  0.00  0.00    +0.000 A 
BRANCH   3  10
ATOM      9  O   UNL     1       0.815   5.076  20.655  0.00  0.00    +0.000 OA
ATOM     10  N   UNL     1       1.212   3.918  20.451  0.00  0.00    +0.000 N 
ATOM     11  O   UNL     1       0.757   2.910  21.012  0.00  0.00    +0.000 OA
ENDBRANCH   3  10
ENDBRANCH   1   6
BRANCH   1  12
ATOM     12  C   UNL     1       6.109   4.160  15.952  0.00  0.00    +0.000 C 
ATOM     13  S   UNL     1       6.283   4.136  14.278  0.00  0.00    +0.000 S 
BRANCH  12  14
ATOM     14  N   UNL     1       6.765   5.068  16.804  0.00  0.00    +0.000 N 
ATOM     15  C   UNL     1       7.725   4.635  17.840  0.00  0.00    +0.000 C 
ATOM     16  C   UNL     1       7.809   5.656  18.982  0.00  0.00    +0.000 C 
ATOM     17  O   UNL     1       8.094   6.974  18.494  0.00  0.00    +0.000 OA
ATOM     18  C   UNL     1       7.088   7.400  17.567  0.00  0.00    +0.000 C 
ATOM     19  C   UNL     1       7.015   6.454  16.369  0.00  0.00    +0.000 C 
ENDBRANCH  12  14
ENDBRANCH   1  12
TORSDOF 4
ENDMDL
MODEL 6
REMARK VINA RESULT:      -6.4      3.028      6.371
REMARK  Name = 
REMARK  4 active torsions:
REMARK  status: ('A' for Active; 'I' for Inactive)
REMARK    1  A    between atoms: N_2  and  C_4
REMARK    2  A    between atoms: C_7  and  N_8
REMARK    3  A    between atoms: N_8  and  C_9
REMARK    4  A    between atoms: C_9  and  N_11
REMARK                            x       y       z     vdW  Elec       q    Type
REMARK                         _______ _______ _______ _____ _____    ______ ____
ROOT
ATOM      1  N   UNL     1       4.455   4.940  16.417  0.00  0.00    +0.000 N 
ATOM      2  H   UNL     1       3.904   5.599  15.881  0.00  0.00    +0.000 HD
ENDROOT
BRANCH   1   6
ATOM      3  C   UNL     1       2.786   3.365  19.938  0.00  0.00    +0.000 A 
ATOM      4  C   UNL     1       3.343   2.511  18.979  0.00  0.00    +0.000 A 
ATOM      5  C   UNL     1       3.894   3.052  17.810  0.00  0.00    +0.000 A 
ATOM      6  C   UNL     1       3.859   4.435  17.588  0.00  0.00    +0.000 A 
ATOM      7  C   UNL     1       3.327   5.279  18.566  0.00  0.00    +0.000 A 
ATOM      8  C   UNL     1       2.786   4.750  19.743  0.00  0.00    +0.000 A 
BRANCH   3  10
ATOM      9  O   UNL     1       0.969   2.861  21.289  0.00  0.00    +0.000 OA
ATOM     10  N   UNL     1       2.204   2.813  21.170  0.00  0.00    +0.000 N 
ATOM     11  O   UNL     1       2.972   2.328  22.014  0.00  0.00    +0.000 OA
ENDBRANCH   3  10
ENDBRANCH   1   6
BRANCH   1  12
ATOM     12  C   UNL     1       5.789   4.891  16.028  0.00  0.00    +0.000 C 
ATOM     13  S   UNL     1       6.334   4.034  14.686  0.00  0.00    +0.000 S 
BRANCH  12  14
ATOM     14  N   UNL     1       6.632   5.553  16.941  0.00  0.00    +0.000 N 
ATOM     15  C   UNL     1       7.395   4.835  17.983  0.00  0.00    +0.000 C 
ATOM     16  C   UNL     1       7.707   5.750  19.174  0.00  0.00    +0.000 C 
ATOM     17  O   UNL     1       8.359   6.959  18.757  0.00  0.00    +0.000 OA
ATOM     18  C   UNL     1       7.545   7.678  17.823  0.00  0.00    +0.000 C 
ATOM     19  C   UNL     1       7.267   6.833  16.580  0.00  0.00    +0.000 C 
ENDBRANCH  12  14
ENDBRANCH   1  12
TORSDOF 4
ENDMDL
MODEL 7
REMARK VINA RESULT:      -6.4      3.048      6.438
REMARK  Name = 
REMARK  4 active torsions:
REMARK  status: ('A' for Active; 'I' for Inactive)
REMARK    1  A    between atoms: N_2  and  C_4
REMARK    2  A    between atoms: C_7  and  N_8
REMARK    3  A    between atoms: N_8  and  C_9
REMARK    4  A    between atoms: C_9  and  N_11
REMARK                            x       y       z     vdW  Elec       q    Type
REMARK                         _______ _______ _______ _____ _____    ______ ____
ROOT
ATOM      1  N   UNL     1       4.499   4.695  16.347  0.00  0.00    +0.000 N 
ATOM      2  H   UNL     1       3.877   5.262  15.783  0.00  0.00    +0.000 HD
ENDROOT
BRANCH   1   6
ATOM      3  C   UNL     1       2.801   3.276  19.920  0.00  0.00    +0.000 A 
ATOM      4  C   UNL     1       2.916   4.652  19.694  0.00  0.00    +0.000 A 
ATOM      5  C   UNL     1       3.487   5.108  18.498  0.00  0.00    +0.000 A 
ATOM      6  C   UNL     1       3.966   4.194  17.550  0.00  0.00    +0.000 A 
ATOM      7  C   UNL     1       3.818   2.824  17.775  0.00  0.00    +0.000 A 
ATOM      8  C   UNL     1       3.238   2.357  18.960  0.00  0.00    +0.000 A 
BRANCH   3  10
ATOM      9  O   UNL     1       0.967   2.817  21.264  0.00  0.00    +0.000 OA
ATOM     10  N   UNL     1       2.204   2.781  21.169  0.00  0.00    +0.000 N 
ATOM     11  O   UNL     1       2.964   2.353  22.051  0.00  0.00    +0.000 OA
ENDBRANCH   3  10
ENDBRANCH   1   6
BRANCH   1  12
ATOM     12  C   UNL     1       5.828   4.764  15.944  0.00  0.00    +0.000 C 
ATOM     13  S   UNL     1       6.419   4.011  14.560  0.00  0.00    +0.000 S 
BRANCH  12  14
ATOM     14  N   UNL     1       6.630   5.446  16.878  0.00  0.00    +0.000 N 
ATOM     15  C   UNL     1       7.393   4.745  17.932  0.00  0.00    +0.000 C 
ATOM     16  C   UNL     1       7.650   5.663  19.135  0.00  0.00    +0.000 C 
ATOM     17  O   UNL     1       8.272   6.893  18.740  0.00  0.00    +0.000 OA
ATOM     18  C   UNL     1       7.456   7.593  17.792  0.00  0.00    +0.000 C 
ATOM     19  C   UNL     1       7.231   6.748  16.539  0.00  0.00    +0.000 C 
ENDBRANCH  12  14
ENDBRANCH   1  12
TORSDOF 4
ENDMDL
MODEL 8
REMARK VINA RESULT:      -6.3      1.372      1.779
REMARK  Name = 
REMARK  4 active torsions:
REMARK  status: ('A' for Active; 'I' for Inactive)
REMARK    1  A    between atoms: N_2  and  C_4
REMARK    2  A    between atoms: C_7  and  N_8
REMARK    3  A    between atoms: N_8  and  C_9
REMARK    4  A    between atoms: C_9  and  N_11
REMARK                            x       y       z     vdW  Elec       q    Type
REMARK                         _______ _______ _______ _____ _____    ______ ____
ROOT
ATOM      1  N   UNL     1       4.738   4.382  17.945  0.00  0.00    +0.000 N 
ATOM      2  H   UNL     1       5.139   3.797  18.668  0.00  0.00    +0.000 HD
ENDROOT
BRANCH   1   6
ATOM      3  C   UNL     1       6.946   4.949  14.413  0.00  0.00    +0.000 A 
ATOM      4  C   UNL     1       5.738   4.242  14.383  0.00  0.00    +0.000 A 
ATOM      5  C   UNL     1       5.015   4.060  15.569  0.00  0.00    +0.000 A 
ATOM      6  C   UNL     1       5.513   4.555  16.782  0.00  0.00    +0.000 A 
ATOM      7  C   UNL     1       6.705   5.284  16.794  0.00  0.00    +0.000 A 
ATOM      8  C   UNL     1       7.428   5.483  15.613  0.00  0.00    +0.000 A 
BRANCH   3  10
ATOM      9  O   UNL     1       8.694   5.911  13.231  0.00  0.00    +0.000 OA
ATOM     10  N   UNL     1       7.716   5.148  13.177  0.00  0.00    +0.000 N 
ATOM     11  O   UNL     1       7.352   4.545  12.157  0.00  0.00    +0.000 OA
ENDBRANCH   3  10
ENDBRANCH   1   6
BRANCH   1  12
ATOM     12  C   UNL     1       3.633   5.110  18.371  0.00  0.00    +0.000 C 
ATOM     13  S   UNL     1       3.389   6.732  17.994  0.00  0.00    +0.000 S 
BRANCH  12  14
ATOM     14  N   UNL     1       2.806   4.364  19.230  0.00  0.00    +0.000 N 
ATOM     15  C   UNL     1       2.408   4.846  20.569  0.00  0.00    +0.000 C 
ATOM     16  C   UNL     1       2.071   3.678  21.504  0.00  0.00    +0.000 C 
ATOM     17  O   UNL     1       1.090   2.803  20.928  0.00  0.00    +0.000 OA
ATOM     18  C   UNL     1       1.553   2.276  19.678  0.00  0.00    +0.000 C 
ATOM     19  C   UNL     1       1.833   3.401  18.683  0.00  0.00    +0.000 C 
ENDBRANCH  12  14
ENDBRANCH   1  12
TORSDOF 4
ENDMDL
MODEL 9
REMARK VINA RESULT:      -6.3      1.282      1.591
REMARK  Name = 
REMARK  4 active torsions:
REMARK  status: ('A' for Active; 'I' for Inactive)
REMARK    1  A    between atoms: N_2  and  C_4
REMARK    2  A    between atoms: C_7  and  N_8
REMARK    3  A    between atoms: N_8  and  C_9
REMARK    4  A    between atoms: C_9  and  N_11
REMARK                            x       y       z     vdW  Elec       q    Type
REMARK                         _______ _______ _______ _____ _____    ______ ____
ROOT
ATOM      1  N   UNL     1       4.576   4.501  18.010  0.00  0.00    +0.000 N 
ATOM      2  H   UNL     1       5.035   3.974  18.743  0.00  0.00    +0.000 HD
ENDROOT
BRANCH   1   6
ATOM      3  C   UNL     1       6.837   4.923  14.492  0.00  0.00    +0.000 A 
ATOM      4  C   UNL     1       7.277   5.505  15.686  0.00  0.00    +0.000 A 
ATOM      5  C   UNL     1       6.511   5.356  16.849  0.00  0.00    +0.000 A 
ATOM      6  C   UNL     1       5.297   4.657  16.811  0.00  0.00    +0.000 A 
ATOM      7  C   UNL     1       4.884   4.056  15.619  0.00  0.00    +0.000 A 
ATOM      8  C   UNL     1       5.647   4.187  14.455  0.00  0.00    +0.000 A 
BRANCH   3  10
ATOM      9  O   UNL     1       8.608   5.833  13.303  0.00  0.00    +0.000 OA
ATOM     10  N   UNL     1       7.630   5.070  13.263  0.00  0.00    +0.000 N 
ATOM     11  O   UNL     1       7.283   4.425  12.262  0.00  0.00    +0.000 OA
ENDBRANCH   3  10
ENDBRANCH   1   6
BRANCH   1  12
ATOM     12  C   UNL     1       3.450   5.190  18.446  0.00  0.00    +0.000 C 
ATOM     13  S   UNL     1       3.167   6.814  18.107  0.00  0.00    +0.000 S 
BRANCH  12  14
ATOM     14  N   UNL     1       2.636   4.401  19.279  0.00  0.00    +0.000 N 
ATOM     15  C   UNL     1       2.432   4.706  20.711  0.00  0.00    +0.000 C 
ATOM     16  C   UNL     1       2.063   3.443  21.501  0.00  0.00    +0.000 C 
ATOM     17  O   UNL     1       0.937   2.766  20.924  0.00  0.00    +0.000 OA
ATOM     18  C   UNL     1       1.209   2.398  19.566  0.00  0.00    +0.000 C 
ATOM     19  C   UNL     1       1.511   3.632  18.717  0.00  0.00    +0.000 C 
ENDBRANCH  12  14
ENDBRANCH   1  12
TORSDOF 4
ENDMDL
