MODEL 1
REMARK VINA RESULT:      -8.4      0.000      0.000
REMARK  Name = 
REMARK  8 active torsions:
REMARK  status: ('A' for Active; 'I' for Inactive)
REMARK    1  A    between atoms: C_1  and  O_2
REMARK    2  A    between atoms: O_2  and  C_3
REMARK    3  A    between atoms: C_6  and  N_7
REMARK    4  A    between atoms: N_18  and  C_19
REMARK    5  A    between atoms: C_19  and  C_20
REMARK    6  A    between atoms: C_20  and  C_21
REMARK    7  A    between atoms: C_21  and  C_22
REMARK    8  A    between atoms: C_22  and  C_24
REMARK                            x       y       z     vdW  Elec       q    Type
REMARK                         _______ _______ _______ _____ _____    ______ ____
ROOT
ATOM      1  N   UNL     1       3.652   6.192  18.593  0.00  0.00    +0.000 N 
ATOM      2  C   UNL     1       5.036   6.188  18.376  0.00  0.00    +0.000 A 
ATOM      3  C   UNL     1       5.531   4.925  18.643  0.00  0.00    +0.000 A 
ATOM      4  C   UNL     1       4.434   4.092  18.932  0.00  0.00    +0.000 A 
ATOM      5  C   UNL     1       4.374   2.704  19.144  0.00  0.00    +0.000 A 
ATOM      6  C   UNL     1       3.250   2.035  18.696  0.00  0.00    +0.000 A 
ATOM      7  F   UNL     1       3.270   0.696  18.661  0.00  0.00    +0.000 F 
ATOM      8  C   UNL     1       2.168   2.721  18.166  0.00  0.00    +0.000 A 
ATOM      9  C   UNL     1       2.139   4.125  18.149  0.00  0.00    +0.000 A 
ATOM     10  C   UNL     1       3.293   4.823  18.560  0.00  0.00    +0.000 A 
ATOM     11  C   UNL     1       6.910   4.475  18.259  0.00  0.00    +0.000 C 
ATOM     12  N   UNL     1       7.291   5.102  16.964  0.00  0.00    +0.000 NA
ATOM     13  C   UNL     1       7.169   6.575  17.073  0.00  0.00    +0.000 C 
ATOM     14  C   UNL     1       5.879   7.211  17.687  0.00  0.00    +0.000 C 
ENDROOT
BRANCH   1  18
ATOM     15  C   UNL     1       1.053   9.603  19.039  0.00  0.00    +0.000 A 
ATOM     16  C   UNL     1       1.271   8.723  20.092  0.00  0.00    +0.000 A 
ATOM     17  C   UNL     1       2.116   7.609  19.944  0.00  0.00    +0.000 A 
ATOM     18  C   UNL     1       2.774   7.340  18.735  0.00  0.00    +0.000 A 
ATOM     19  C   UNL     1       2.471   8.191  17.658  0.00  0.00    +0.000 A 
ATOM     20  C   UNL     1       1.637   9.321  17.810  0.00  0.00    +0.000 A 
BRANCH  15  22
ATOM     21  C   UNL     1       0.592  11.922  18.814  0.00  0.00    +0.000 C 
ATOM     22  O   UNL     1       0.212  10.645  19.314  0.00  0.00    +0.000 OA
ENDBRANCH  15  22
ENDBRANCH   1  18
BRANCH  12  23
ATOM     23  C   UNL     1       6.564   4.484  15.837  0.00  0.00    +0.000 C 
BRANCH  23  24
ATOM     24  C   UNL     1       6.481   5.290  14.532  0.00  0.00    +0.000 C 
BRANCH  24  25
ATOM     25  C   UNL     1       7.756   5.322  13.680  0.00  0.00    +0.000 C 
BRANCH  25  26
ATOM     26  C   UNL     1       7.431   5.003  12.219  0.00  0.00    +0.000 C 
ATOM     27  O   UNL     1       7.573   5.829  11.327  0.00  0.00    +0.000 OA
BRANCH  26  28
ATOM     28  C   UNL     1       6.898   3.647  11.857  0.00  0.00    +0.000 A 
ATOM     29  C   UNL     1       5.538   3.326  11.941  0.00  0.00    +0.000 A 
ATOM     30  C   UNL     1       5.103   2.046  11.593  0.00  0.00    +0.000 A 
ATOM     31  C   UNL     1       6.026   1.093  11.155  0.00  0.00    +0.000 A 
ATOM     32  F   UNL     1       5.601  -0.132  10.810  0.00  0.00    +0.000 F 
ATOM     33  C   UNL     1       7.381   1.402  11.065  0.00  0.00    +0.000 A 
ATOM     34  C   UNL     1       7.816   2.671  11.426  0.00  0.00    +0.000 A 
ENDBRANCH  26  28
ENDBRANCH  25  26
ENDBRANCH  24  25
ENDBRANCH  23  24
ENDBRANCH  12  23
TORSDOF 7
ENDMDL
MODEL 2
REMARK VINA RESULT:      -7.9      0.698      1.086
REMARK  Name = 
REMARK  8 active torsions:
REMARK  status: ('A' for Active; 'I' for Inactive)
REMARK    1  A    between atoms: C_1  and  O_2
REMARK    2  A    between atoms: O_2  and  C_3
REMARK    3  A    between atoms: C_6  and  N_7
REMARK    4  A    between atoms: N_18  and  C_19
REMARK    5  A    between atoms: C_19  and  C_20
REMARK    6  A    between atoms: C_20  and  C_21
REMARK    7  A    between atoms: C_21  and  C_22
REMARK    8  A    between atoms: C_22  and  C_24
REMARK                            x       y       z     vdW  Elec       q    Type
REMARK                         _______ _______ _______ _____ _____    ______ ____
ROOT
ATOM      1  N   UNL     1       3.103   6.284  18.841  0.00  0.00    +0.000 N 
ATOM      2  C   UNL     1       4.472   6.142  18.584  0.00  0.00    +0.000 A 
ATOM      3  C   UNL     1       4.860   4.854  18.906  0.00  0.00    +0.000 A 
ATOM      4  C   UNL     1       3.702   4.142  19.274  0.00  0.00    +0.000 A 
ATOM      5  C   UNL     1       3.525   2.779  19.564  0.00  0.00    +0.000 A 
ATOM      6  C   UNL     1       2.330   2.194  19.188  0.00  0.00    +0.000 A 
ATOM      7  F   UNL     1       2.227   0.858  19.228  0.00  0.00    +0.000 F 
ATOM      8  C   UNL     1       1.297   2.947  18.653  0.00  0.00    +0.000 A 
ATOM      9  C   UNL     1       1.395   4.345  18.558  0.00  0.00    +0.000 A 
ATOM     10  C   UNL     1       2.620   4.955  18.895  0.00  0.00    +0.000 A 
ATOM     11  C   UNL     1       6.179   4.259  18.508  0.00  0.00    +0.000 C 
ATOM     12  N   UNL     1       6.569   4.778  17.169  0.00  0.00    +0.000 NA
ATOM     13  C   UNL     1       6.585   6.260  17.199  0.00  0.00    +0.000 C 
ATOM     14  C   UNL     1       5.380   7.044  17.814  0.00  0.00    +0.000 C 
ENDROOT
BRANCH   1  18
ATOM     15  C   UNL     1       0.840   9.940  19.172  0.00  0.00    +0.000 A 
ATOM     16  C   UNL     1       1.038   9.115  20.272  0.00  0.00    +0.000 A 
ATOM     17  C   UNL     1       1.774   7.921  20.162  0.00  0.00    +0.000 A 
ATOM     18  C   UNL     1       2.338   7.514  18.944  0.00  0.00    +0.000 A 
ATOM     19  C   UNL     1       2.050   8.316  17.826  0.00  0.00    +0.000 A 
ATOM     20  C   UNL     1       1.328   9.525  17.938  0.00  0.00    +0.000 A 
BRANCH  15  22
ATOM     21  C   UNL     1       0.719  12.063  20.229  0.00  0.00    +0.000 C 
ATOM     22  O   UNL     1       0.110  11.070  19.413  0.00  0.00    +0.000 OA
ENDBRANCH  15  22
ENDBRANCH   1  18
BRANCH  12  23
ATOM     23  C   UNL     1       5.752   4.171  16.101  0.00  0.00    +0.000 C 
BRANCH  23  24
ATOM     24  C   UNL     1       5.826   4.818  14.709  0.00  0.00    +0.000 C 
BRANCH  24  25
ATOM     25  C   UNL     1       7.225   5.232  14.235  0.00  0.00    +0.000 C 
BRANCH  25  26
ATOM     26  C   UNL     1       7.372   4.995  12.731  0.00  0.00    +0.000 C 
ATOM     27  O   UNL     1       7.803   5.856  11.976  0.00  0.00    +0.000 OA
BRANCH  26  28
ATOM     28  C   UNL     1       6.956   3.676  12.145  0.00  0.00    +0.000 A 
ATOM     29  C   UNL     1       7.877   2.769  11.606  0.00  0.00    +0.000 A 
ATOM     30  C   UNL     1       7.430   1.558  11.073  0.00  0.00    +0.000 A 
ATOM     31  C   UNL     1       6.066   1.254  11.087  0.00  0.00    +0.000 A 
ATOM     32  F   UNL     1       5.643   0.084  10.585  0.00  0.00    +0.000 F 
ATOM     33  C   UNL     1       5.142   2.148  11.623  0.00  0.00    +0.000 A 
ATOM     34  C   UNL     1       5.586   3.359  12.140  0.00  0.00    +0.000 A 
ENDBRANCH  26  28
ENDBRANCH  25  26
ENDBRANCH  24  25
ENDBRANCH  23  24
ENDBRANCH  12  23
TORSDOF 7
ENDMDL
MODEL 3
REMARK VINA RESULT:      -7.8      0.842      1.179
REMARK  Name = 
REMARK  8 active torsions:
REMARK  status: ('A' for Active; 'I' for Inactive)
REMARK    1  A    between atoms: C_1  and  O_2
REMARK    2  A    between atoms: O_2  and  C_3
REMARK    3  A    between atoms: C_6  and  N_7
REMARK    4  A    between atoms: N_18  and  C_19
REMARK    5  A    between atoms: C_19  and  C_20
REMARK    6  A    between atoms: C_20  and  C_21
REMARK    7  A    between atoms: C_21  and  C_22
REMARK    8  A    between atoms: C_22  and  C_24
REMARK                            x       y       z     vdW  Elec       q    Type
REMARK                         _______ _______ _______ _____ _____    ______ ____
ROOT
ATOM      1  N   UNL     1       2.962   6.361  18.984  0.00  0.00    +0.000 N 
ATOM      2  C   UNL     1       4.324   6.248  18.680  0.00  0.00    +0.000 A 
ATOM      3  C   UNL     1       4.753   4.972  18.995  0.00  0.00    +0.000 A 
ATOM      4  C   UNL     1       3.625   4.235  19.407  0.00  0.00    +0.000 A 
ATOM      5  C   UNL     1       3.489   2.870  19.710  0.00  0.00    +0.000 A 
ATOM      6  C   UNL     1       2.295   2.256  19.379  0.00  0.00    +0.000 A 
ATOM      7  F   UNL     1       2.225   0.919  19.430  0.00  0.00    +0.000 F 
ATOM      8  C   UNL     1       1.227   2.983  18.877  0.00  0.00    +0.000 A 
ATOM      9  C   UNL     1       1.290   4.382  18.772  0.00  0.00    +0.000 A 
ATOM     10  C   UNL     1       2.512   5.021  19.062  0.00  0.00    +0.000 A 
ATOM     11  C   UNL     1       6.070   4.404  18.553  0.00  0.00    +0.000 C 
ATOM     12  N   UNL     1       6.402   4.924  17.199  0.00  0.00    +0.000 NA
ATOM     13  C   UNL     1       6.384   6.406  17.220  0.00  0.00    +0.000 C 
ATOM     14  C   UNL     1       5.184   7.166  17.873  0.00  0.00    +0.000 C 
ENDROOT
BRANCH   1  18
ATOM     15  C   UNL     1       0.612   9.960  19.325  0.00  0.00    +0.000 A 
ATOM     16  C   UNL     1       1.172   9.580  18.112  0.00  0.00    +0.000 A 
ATOM     17  C   UNL     1       1.942   8.407  18.003  0.00  0.00    +0.000 A 
ATOM     18  C   UNL     1       2.173   7.574  19.107  0.00  0.00    +0.000 A 
ATOM     19  C   UNL     1       1.673   8.023  20.342  0.00  0.00    +0.000 A 
ATOM     20  C   UNL     1       0.885   9.190  20.449  0.00  0.00    +0.000 A 
BRANCH  15  22
ATOM     21  C   UNL     1      -1.098  11.230  18.274  0.00  0.00    +0.000 C 
ATOM     22  O   UNL     1      -0.114  11.118  19.295  0.00  0.00    +0.000 OA
ENDBRANCH  15  22
ENDBRANCH   1  18
BRANCH  12  23
ATOM     23  C   UNL     1       5.561   4.292  16.163  0.00  0.00    +0.000 C 
BRANCH  23  24
ATOM     24  C   UNL     1       5.720   4.805  14.724  0.00  0.00    +0.000 C 
BRANCH  24  25
ATOM     25  C   UNL     1       7.142   5.195  14.303  0.00  0.00    +0.000 C 
BRANCH  25  26
ATOM     26  C   UNL     1       7.343   4.952  12.806  0.00  0.00    +0.000 C 
ATOM     27  O   UNL     1       7.871   5.780  12.078  0.00  0.00    +0.000 OA
BRANCH  26  28
ATOM     28  C   UNL     1       6.860   3.668  12.193  0.00  0.00    +0.000 A 
ATOM     29  C   UNL     1       5.502   3.337  12.114  0.00  0.00    +0.000 A 
ATOM     30  C   UNL     1       5.114   2.128  11.534  0.00  0.00    +0.000 A 
ATOM     31  C   UNL     1       6.083   1.256  11.029  0.00  0.00    +0.000 A 
ATOM     32  F   UNL     1       5.704   0.101  10.462  0.00  0.00    +0.000 F 
ATOM     33  C   UNL     1       7.436   1.577  11.101  0.00  0.00    +0.000 A 
ATOM     34  C   UNL     1       7.823   2.774  11.691  0.00  0.00    +0.000 A 
ENDBRANCH  26  28
ENDBRANCH  25  26
ENDBRANCH  24  25
ENDBRANCH  23  24
ENDBRANCH  12  23
TORSDOF 7
ENDMDL
MODEL 4
REMARK VINA RESULT:      -7.8      0.632      1.325
REMARK  Name = 
REMARK  8 active torsions:
REMARK  status: ('A' for Active; 'I' for Inactive)
REMARK    1  A    between atoms: C_1  and  O_2
REMARK    2  A    between atoms: O_2  and  C_3
REMARK    3  A    between atoms: C_6  and  N_7
REMARK    4  A    between atoms: N_18  and  C_19
REMARK    5  A    between atoms: C_19  and  C_20
REMARK    6  A    between atoms: C_20  and  C_21
REMARK    7  A    between atoms: C_21  and  C_22
REMARK    8  A    between atoms: C_22  and  C_24
REMARK                            x       y       z     vdW  Elec       q    Type
REMARK                         _______ _______ _______ _____ _____    ______ ____
ROOT
ATOM      1  N   UNL     1       3.301   6.500  18.586  0.00  0.00    +0.000 N 
ATOM      2  C   UNL     1       4.676   6.578  18.332  0.00  0.00    +0.000 A 
ATOM      3  C   UNL     1       5.233   5.320  18.475  0.00  0.00    +0.000 A 
ATOM      4  C   UNL     1       4.181   4.416  18.720  0.00  0.00    +0.000 A 
ATOM      5  C   UNL     1       4.187   3.014  18.812  0.00  0.00    +0.000 A 
ATOM      6  C   UNL     1       3.079   2.336  18.338  0.00  0.00    +0.000 A 
ATOM      7  F   UNL     1       3.155   1.007  18.187  0.00  0.00    +0.000 F 
ATOM      8  C   UNL     1       1.954   3.015  17.899  0.00  0.00    +0.000 A 
ATOM      9  C   UNL     1       1.865   4.413  18.005  0.00  0.00    +0.000 A 
ATOM     10  C   UNL     1       3.000   5.125  18.444  0.00  0.00    +0.000 A 
ATOM     11  C   UNL     1       6.618   4.967  18.016  0.00  0.00    +0.000 C 
ATOM     12  N   UNL     1       6.931   5.719  16.771  0.00  0.00    +0.000 NA
ATOM     13  C   UNL     1       6.750   7.170  17.010  0.00  0.00    +0.000 C 
ATOM     14  C   UNL     1       5.453   7.692  17.711  0.00  0.00    +0.000 C 
ENDROOT
BRANCH   1  18
ATOM     15  C   UNL     1       0.556   9.739  19.345  0.00  0.00    +0.000 A 
ATOM     16  C   UNL     1       1.084   9.526  18.078  0.00  0.00    +0.000 A 
ATOM     17  C   UNL     1       1.982   8.471  17.832  0.00  0.00    +0.000 A 
ATOM     18  C   UNL     1       2.380   7.592  18.850  0.00  0.00    +0.000 A 
ATOM     19  C   UNL     1       1.904   7.878  20.141  0.00  0.00    +0.000 A 
ATOM     20  C   UNL     1       0.988   8.925  20.386  0.00  0.00    +0.000 A 
BRANCH  15  22
ATOM     21  C   UNL     1      -0.521  11.316  20.756  0.00  0.00    +0.000 C 
ATOM     22  O   UNL     1      -0.305  10.795  19.450  0.00  0.00    +0.000 OA
ENDBRANCH  15  22
ENDBRANCH   1  18
BRANCH  12  23
ATOM     23  C   UNL     1       6.198   5.167  15.615  0.00  0.00    +0.000 C 
BRANCH  23  24
ATOM     24  C   UNL     1       7.017   4.399  14.567  0.00  0.00    +0.000 C 
BRANCH  24  25
ATOM     25  C   UNL     1       7.842   5.256  13.598  0.00  0.00    +0.000 C 
BRANCH  25  26
ATOM     26  C   UNL     1       7.440   4.963  12.152  0.00  0.00    +0.000 C 
ATOM     27  O   UNL     1       7.492   5.818  11.278  0.00  0.00    +0.000 OA
BRANCH  26  28
ATOM     28  C   UNL     1       6.944   3.595  11.782  0.00  0.00    +0.000 A 
ATOM     29  C   UNL     1       7.806   2.560  11.402  0.00  0.00    +0.000 A 
ATOM     30  C   UNL     1       7.285   1.308  11.068  0.00  0.00    +0.000 A 
ATOM     31  C   UNL     1       5.905   1.093  11.122  0.00  0.00    +0.000 A 
ATOM     32  F   UNL     1       5.410  -0.115  10.811  0.00  0.00    +0.000 F 
ATOM     33  C   UNL     1       5.039   2.115  11.500  0.00  0.00    +0.000 A 
ATOM     34  C   UNL     1       5.556   3.365  11.819  0.00  0.00    +0.000 A 
ENDBRANCH  26  28
ENDBRANCH  25  26
ENDBRANCH  24  25
ENDBRANCH  23  24
ENDBRANCH  12  23
TORSDOF 7
ENDMDL
MODEL 5
REMARK VINA RESULT:      -7.7      6.522     10.585
REMARK  Name = 
REMARK  8 active torsions:
REMARK  status: ('A' for Active; 'I' for Inactive)
REMARK    1  A    between atoms: C_1  and  O_2
REMARK    2  A    between atoms: O_2  and  C_3
REMARK    3  A    between atoms: C_6  and  N_7
REMARK    4  A    between atoms: N_18  and  C_19
REMARK    5  A    between atoms: C_19  and  C_20
REMARK    6  A    between atoms: C_20  and  C_21
REMARK    7  A    between atoms: C_21  and  C_22
REMARK    8  A    between atoms: C_22  and  C_24
REMARK                            x       y       z     vdW  Elec       q    Type
REMARK                         _______ _______ _______ _____ _____    ______ ____
ROOT
ATOM      1  N   UNL     1      -0.589  13.528  19.688  0.00  0.00    +0.000 N 
ATOM      2  C   UNL     1      -1.125  13.833  20.945  0.00  0.00    +0.000 A 
ATOM      3  C   UNL     1      -2.476  13.539  20.943  0.00  0.00    +0.000 A 
ATOM      4  C   UNL     1      -2.778  12.943  19.703  0.00  0.00    +0.000 A 
ATOM      5  C   UNL     1      -3.966  12.350  19.242  0.00  0.00    +0.000 A 
ATOM      6  C   UNL     1      -3.852  11.262  18.396  0.00  0.00    +0.000 A 
ATOM      7  F   UNL     1      -4.945  10.531  18.139  0.00  0.00    +0.000 F 
ATOM      8  C   UNL     1      -2.618  10.845  17.923  0.00  0.00    +0.000 A 
ATOM      9  C   UNL     1      -1.449  11.567  18.214  0.00  0.00    +0.000 A 
ATOM     10  C   UNL     1      -1.538  12.652  19.110  0.00  0.00    +0.000 A 
ATOM     11  C   UNL     1      -3.316  13.476  22.185  0.00  0.00    +0.000 C 
ATOM     12  N   UNL     1      -2.499  12.936  23.305  0.00  0.00    +0.000 NA
ATOM     13  C   UNL     1      -1.278  13.760  23.469  0.00  0.00    +0.000 C 
ATOM     14  C   UNL     1      -0.410  14.131  22.223  0.00  0.00    +0.000 C 
ENDROOT
BRANCH   1  18
ATOM     15  C   UNL     1       3.202  14.793  18.068  0.00  0.00    +0.000 A 
ATOM     16  C   UNL     1       2.188  15.707  18.323  0.00  0.00    +0.000 A 
ATOM     17  C   UNL     1       0.951  15.293  18.848  0.00  0.00    +0.000 A 
ATOM     18  C   UNL     1       0.689  13.946  19.138  0.00  0.00    +0.000 A 
ATOM     19  C   UNL     1       1.694  13.027  18.791  0.00  0.00    +0.000 A 
ATOM     20  C   UNL     1       2.944  13.443  18.281  0.00  0.00    +0.000 A 
BRANCH  15  22
ATOM     21  C   UNL     1       5.563  14.638  17.865  0.00  0.00    +0.000 C 
ATOM     22  O   UNL     1       4.354  15.324  17.561  0.00  0.00    +0.000 OA
ENDBRANCH  15  22
ENDBRANCH   1  18
BRANCH  12  23
ATOM     23  C   UNL     1      -2.272  11.486  23.151  0.00  0.00    +0.000 C 
BRANCH  23  24
ATOM     24  C   UNL     1      -0.815  11.015  23.020  0.00  0.00    +0.000 C 
BRANCH  24  25
ATOM     25  C   UNL     1      -0.438  10.362  21.685  0.00  0.00    +0.000 C 
BRANCH  25  26
ATOM     26  C   UNL     1       0.781   9.454  21.859  0.00  0.00    +0.000 C 
ATOM     27  O   UNL     1       1.332   9.307  22.941  0.00  0.00    +0.000 OA
BRANCH  26  28
ATOM     28  C   UNL     1       1.344   8.732  20.668  0.00  0.00    +0.000 A 
ATOM     29  C   UNL     1       1.895   7.449  20.758  0.00  0.00    +0.000 A 
ATOM     30  C   UNL     1       2.405   6.829  19.615  0.00  0.00    +0.000 A 
ATOM     31  C   UNL     1       2.355   7.490  18.386  0.00  0.00    +0.000 A 
ATOM     32  F   UNL     1       2.836   6.885  17.288  0.00  0.00    +0.000 F 
ATOM     33  C   UNL     1       1.808   8.766  18.284  0.00  0.00    +0.000 A 
ATOM     34  C   UNL     1       1.313   9.389  19.424  0.00  0.00    +0.000 A 
ENDBRANCH  26  28
ENDBRANCH  25  26
ENDBRANCH  24  25
ENDBRANCH  23  24
ENDBRANCH  12  23
TORSDOF 7
ENDMDL
MODEL 6
REMARK VINA RESULT:      -7.7      6.719     11.824
REMARK  Name = 
REMARK  8 active torsions:
REMARK  status: ('A' for Active; 'I' for Inactive)
REMARK    1  A    between atoms: C_1  and  O_2
REMARK    2  A    between atoms: O_2  and  C_3
REMARK    3  A    between atoms: C_6  and  N_7
REMARK    4  A    between atoms: N_18  and  C_19
REMARK    5  A    between atoms: C_19  and  C_20
REMARK    6  A    between atoms: C_20  and  C_21
REMARK    7  A    between atoms: C_21  and  C_22
REMARK    8  A    between atoms: C_22  and  C_24
REMARK                            x       y       z     vdW  Elec       q    Type
REMARK                         _______ _______ _______ _____ _____    ______ ____
ROOT
ATOM      1  N   UNL     1       0.133  12.194  20.852  0.00  0.00    +0.000 N 
ATOM      2  C   UNL     1      -0.586  12.278  22.051  0.00  0.00    +0.000 A 
ATOM      3  C   UNL     1      -0.583  13.589  22.489  0.00  0.00    +0.000 A 
ATOM      4  C   UNL     1       0.056  14.364  21.502  0.00  0.00    +0.000 A 
ATOM      5  C   UNL     1       0.209  15.757  21.395  0.00  0.00    +0.000 A 
ATOM      6  C   UNL     1       0.184  16.308  20.127  0.00  0.00    +0.000 A 
ATOM      7  F   UNL     1       0.082  17.639  20.007  0.00  0.00    +0.000 F 
ATOM      8  C   UNL     1       0.131  15.509  18.996  0.00  0.00    +0.000 A 
ATOM      9  C   UNL     1       0.191  14.109  19.095  0.00  0.00    +0.000 A 
ATOM     10  C   UNL     1       0.172  13.528  20.379  0.00  0.00    +0.000 A 
ATOM     11  C   UNL     1      -1.476  14.103  23.581  0.00  0.00    +0.000 C 
ATOM     12  N   UNL     1      -2.788  13.405  23.514  0.00  0.00    +0.000 NA
ATOM     13  C   UNL     1      -2.573  11.940  23.579  0.00  0.00    +0.000 C 
ATOM     14  C   UNL     1      -1.493  11.266  22.673  0.00  0.00    +0.000 C 
ENDROOT
BRANCH   1  18
ATOM     15  C   UNL     1       1.644   8.639  18.936  0.00  0.00    +0.000 A 
ATOM     16  C   UNL     1       1.425   8.679  20.308  0.00  0.00    +0.000 A 
ATOM     17  C   UNL     1       0.935   9.841  20.932  0.00  0.00    +0.000 A 
ATOM     18  C   UNL     1       0.646  11.002  20.201  0.00  0.00    +0.000 A 
ATOM     19  C   UNL     1       0.959  10.970  18.831  0.00  0.00    +0.000 A 
ATOM     20  C   UNL     1       1.433   9.799  18.199  0.00  0.00    +0.000 A 
BRANCH  15  22
ATOM     21  C   UNL     1       2.490   6.473  19.419  0.00  0.00    +0.000 C 
ATOM     22  O   UNL     1       2.119   7.452  18.455  0.00  0.00    +0.000 OA
ENDBRANCH  15  22
ENDBRANCH   1  18
BRANCH  12  23
ATOM     23  C   UNL     1      -3.589  13.880  22.368  0.00  0.00    +0.000 C 
BRANCH  23  24
ATOM     24  C   UNL     1      -4.171  12.813  21.429  0.00  0.00    +0.000 C 
BRANCH  24  25
ATOM     25  C   UNL     1      -3.556  12.745  20.026  0.00  0.00    +0.000 C 
BRANCH  25  26
ATOM     26  C   UNL     1      -4.443  11.919  19.092  0.00  0.00    +0.000 C 
ATOM     27  O   UNL     1      -5.633  11.744  19.314  0.00  0.00    +0.000 OA
BRANCH  26  28
ATOM     28  C   UNL     1      -3.842  11.279  17.874  0.00  0.00    +0.000 A 
ATOM     29  C   UNL     1      -2.638  10.567  17.915  0.00  0.00    +0.000 A 
ATOM     30  C   UNL     1      -2.127   9.995  16.748  0.00  0.00    +0.000 A 
ATOM     31  C   UNL     1      -2.826  10.130  15.545  0.00  0.00    +0.000 A 
ATOM     32  F   UNL     1      -2.337   9.569  14.428  0.00  0.00    +0.000 F 
ATOM     33  C   UNL     1      -4.026  10.835  15.493  0.00  0.00    +0.000 A 
ATOM     34  C   UNL     1      -4.526  11.416  16.652  0.00  0.00    +0.000 A 
ENDBRANCH  26  28
ENDBRANCH  25  26
ENDBRANCH  24  25
ENDBRANCH  23  24
ENDBRANCH  12  23
TORSDOF 7
ENDMDL
MODEL 7
REMARK VINA RESULT:      -7.7      6.570     11.891
REMARK  Name = 
REMARK  8 active torsions:
REMARK  status: ('A' for Active; 'I' for Inactive)
REMARK    1  A    between atoms: C_1  and  O_2
REMARK    2  A    between atoms: O_2  and  C_3
REMARK    3  A    between atoms: C_6  and  N_7
REMARK    4  A    between atoms: N_18  and  C_19
REMARK    5  A    between atoms: C_19  and  C_20
REMARK    6  A    between atoms: C_20  and  C_21
REMARK    7  A    between atoms: C_21  and  C_22
REMARK    8  A    between atoms: C_22  and  C_24
REMARK                            x       y       z     vdW  Elec       q    Type
REMARK                         _______ _______ _______ _____ _____    ______ ____
ROOT
ATOM      1  N   UNL     1       0.037  12.104  21.421  0.00  0.00    +0.000 N 
ATOM      2  C   UNL     1      -0.832  12.371  22.486  0.00  0.00    +0.000 A 
ATOM      3  C   UNL     1      -0.790  13.723  22.776  0.00  0.00    +0.000 A 
ATOM      4  C   UNL     1       0.037  14.336  21.815  0.00  0.00    +0.000 A 
ATOM      5  C   UNL     1       0.310  15.695  21.581  0.00  0.00    +0.000 A 
ATOM      6  C   UNL     1       0.502  16.093  20.271  0.00  0.00    +0.000 A 
ATOM      7  F   UNL     1       0.519  17.404  19.993  0.00  0.00    +0.000 F 
ATOM      8  C   UNL     1       0.544  15.171  19.237  0.00  0.00    +0.000 A 
ATOM      9  C   UNL     1       0.483  13.791  19.495  0.00  0.00    +0.000 A 
ATOM     10  C   UNL     1       0.243  13.368  20.818  0.00  0.00    +0.000 A 
ATOM     11  C   UNL     1      -1.783  14.415  23.663  0.00  0.00    +0.000 C 
ATOM     12  N   UNL     1      -3.122  13.794  23.482  0.00  0.00    +0.000 NA
ATOM     13  C   UNL     1      -3.031  12.337  23.736  0.00  0.00    +0.000 C 
ATOM     14  C   UNL     1      -1.890  11.496  23.075  0.00  0.00    +0.000 C 
ENDROOT
BRANCH   1  18
ATOM     15  C   UNL     1       1.527   8.264  20.145  0.00  0.00    +0.000 A 
ATOM     16  C   UNL     1       1.383   8.568  21.494  0.00  0.00    +0.000 A 
ATOM     17  C   UNL     1       0.900   9.822  21.908  0.00  0.00    +0.000 A 
ATOM     18  C   UNL     1       0.543  10.815  20.984  0.00  0.00    +0.000 A 
ATOM     19  C   UNL     1       0.780  10.520  19.631  0.00  0.00    +0.000 A 
ATOM     20  C   UNL     1       1.247   9.255  19.211  0.00  0.00    +0.000 A 
BRANCH  15  22
ATOM     21  C   UNL     1       2.713   6.847  18.653  0.00  0.00    +0.000 C 
ATOM     22  O   UNL     1       2.004   7.012  19.876  0.00  0.00    +0.000 OA
ENDBRANCH  15  22
ENDBRANCH   1  18
BRANCH  12  23
ATOM     23  C   UNL     1      -3.719  14.178  22.187  0.00  0.00    +0.000 C 
BRANCH  23  24
ATOM     24  C   UNL     1      -4.344  13.056  21.343  0.00  0.00    +0.000 C 
BRANCH  24  25
ATOM     25  C   UNL     1      -3.595  12.686  20.057  0.00  0.00    +0.000 C 
BRANCH  25  26
ATOM     26  C   UNL     1      -4.522  11.943  19.094  0.00  0.00    +0.000 C 
ATOM     27  O   UNL     1      -5.719  11.818  19.311  0.00  0.00    +0.000 OA
BRANCH  26  28
ATOM     28  C   UNL     1      -3.954  11.322  17.850  0.00  0.00    +0.000 A 
ATOM     29  C   UNL     1      -4.533  11.501  16.588  0.00  0.00    +0.000 A 
ATOM     30  C   UNL     1      -3.960  10.896  15.468  0.00  0.00    +0.000 A 
ATOM     31  C   UNL     1      -2.806  10.120  15.610  0.00  0.00    +0.000 A 
ATOM     32  F   UNL     1      -2.252   9.551  14.529  0.00  0.00    +0.000 F 
ATOM     33  C   UNL     1      -2.221   9.937  16.861  0.00  0.00    +0.000 A 
ATOM     34  C   UNL     1      -2.799  10.528  17.978  0.00  0.00    +0.000 A 
ENDBRANCH  26  28
ENDBRANCH  25  26
ENDBRANCH  24  25
ENDBRANCH  23  24
ENDBRANCH  12  23
TORSDOF 7
ENDMDL
MODEL 8
REMARK VINA RESULT:      -7.6      6.282     10.811
REMARK  Name = 
REMARK  8 active torsions:
REMARK  status: ('A' for Active; 'I' for Inactive)
REMARK    1  A    between atoms: C_1  and  O_2
REMARK    2  A    between atoms: O_2  and  C_3
REMARK    3  A    between atoms: C_6  and  N_7
REMARK    4  A    between atoms: N_18  and  C_19
REMARK    5  A    between atoms: C_19  and  C_20
REMARK    6  A    between atoms: C_20  and  C_21
REMARK    7  A    between atoms: C_21  and  C_22
REMARK    8  A    between atoms: C_22  and  C_24
REMARK                            x       y       z     vdW  Elec       q    Type
REMARK                         _______ _______ _______ _____ _____    ______ ____
ROOT
ATOM      1  N   UNL     1      -3.210  11.951  18.870  0.00  0.00    +0.000 N 
ATOM      2  C   UNL     1      -2.109  12.350  19.638  0.00  0.00    +0.000 A 
ATOM      3  C   UNL     1      -2.550  13.151  20.676  0.00  0.00    +0.000 A 
ATOM      4  C   UNL     1      -3.957  13.174  20.626  0.00  0.00    +0.000 A 
ATOM      5  C   UNL     1      -4.892  13.727  21.516  0.00  0.00    +0.000 A 
ATOM      6  C   UNL     1      -6.090  13.058  21.686  0.00  0.00    +0.000 A 
ATOM      7  F   UNL     1      -6.891  13.420  22.697  0.00  0.00    +0.000 F 
ATOM      8  C   UNL     1      -6.409  11.949  20.919  0.00  0.00    +0.000 A 
ATOM      9  C   UNL     1      -5.566  11.520  19.880  0.00  0.00    +0.000 A 
ATOM     10  C   UNL     1      -4.321  12.162  19.721  0.00  0.00    +0.000 A 
ATOM     11  C   UNL     1      -1.698  13.533  21.851  0.00  0.00    +0.000 C 
ATOM     12  N   UNL     1      -0.794  12.401  22.193  0.00  0.00    +0.000 NA
ATOM     13  C   UNL     1      -0.003  12.022  20.999  0.00  0.00    +0.000 C 
ATOM     14  C   UNL     1      -0.712  11.822  19.620  0.00  0.00    +0.000 C 
ENDROOT
BRANCH   1  18
ATOM     15  C   UNL     1      -3.185  10.211  14.924  0.00  0.00    +0.000 A 
ATOM     16  C   UNL     1      -2.213   9.882  15.861  0.00  0.00    +0.000 A 
ATOM     17  C   UNL     1      -2.221  10.453  17.147  0.00  0.00    +0.000 A 
ATOM     18  C   UNL     1      -3.205  11.372  17.538  0.00  0.00    +0.000 A 
ATOM     19  C   UNL     1      -4.125  11.758  16.548  0.00  0.00    +0.000 A 
ATOM     20  C   UNL     1      -4.131  11.172  15.262  0.00  0.00    +0.000 A 
BRANCH  15  22
ATOM     21  C   UNL     1      -4.085   9.848  12.756  0.00  0.00    +0.000 C 
ATOM     22  O   UNL     1      -3.066   9.586  13.715  0.00  0.00    +0.000 OA
ENDBRANCH  15  22
ENDBRANCH   1  18
BRANCH  12  23
ATOM     23  C   UNL     1      -1.536  11.302  22.841  0.00  0.00    +0.000 C 
BRANCH  23  24
ATOM     24  C   UNL     1      -0.728  10.066  23.265  0.00  0.00    +0.000 C 
BRANCH  24  25
ATOM     25  C   UNL     1      -0.460   9.029  22.167  0.00  0.00    +0.000 C 
BRANCH  25  26
ATOM     26  C   UNL     1       1.043   8.893  21.916  0.00  0.00    +0.000 C 
ATOM     27  O   UNL     1       1.874   9.403  22.654  0.00  0.00    +0.000 OA
BRANCH  26  28
ATOM     28  C   UNL     1       1.527   8.132  20.715  0.00  0.00    +0.000 A 
ATOM     29  C   UNL     1       1.748   8.745  19.475  0.00  0.00    +0.000 A 
ATOM     30  C   UNL     1       2.197   7.984  18.394  0.00  0.00    +0.000 A 
ATOM     31  C   UNL     1       2.431   6.616  18.556  0.00  0.00    +0.000 A 
ATOM     32  F   UNL     1       2.873   5.892  17.517  0.00  0.00    +0.000 F 
ATOM     33  C   UNL     1       2.216   5.997  19.785  0.00  0.00    +0.000 A 
ATOM     34  C   UNL     1       1.756   6.752  20.857  0.00  0.00    +0.000 A 
ENDBRANCH  26  28
ENDBRANCH  25  26
ENDBRANCH  24  25
ENDBRANCH  23  24
ENDBRANCH  12  23
TORSDOF 7
ENDMDL
MODEL 9
REMARK VINA RESULT:      -7.6      7.077     10.946
REMARK  Name = 
REMARK  8 active torsions:
REMARK  status: ('A' for Active; 'I' for Inactive)
REMARK    1  A    between atoms: C_1  and  O_2
REMARK    2  A    between atoms: O_2  and  C_3
REMARK    3  A    between atoms: C_6  and  N_7
REMARK    4  A    between atoms: N_18  and  C_19
REMARK    5  A    between atoms: C_19  and  C_20
REMARK    6  A    between atoms: C_20  and  C_21
REMARK    7  A    between atoms: C_21  and  C_22
REMARK    8  A    between atoms: C_22  and  C_24
REMARK                            x       y       z     vdW  Elec       q    Type
REMARK                         _______ _______ _______ _____ _____    ______ ____
ROOT
ATOM      1  N   UNL     1      -0.862  13.776  19.848  0.00  0.00    +0.000 N 
ATOM      2  C   UNL     1      -1.365  14.031  21.130  0.00  0.00    +0.000 A 
ATOM      3  C   UNL     1      -2.707  13.701  21.163  0.00  0.00    +0.000 A 
ATOM      4  C   UNL     1      -3.034  13.133  19.916  0.00  0.00    +0.000 A 
ATOM      5  C   UNL     1      -4.220  12.521  19.477  0.00  0.00    +0.000 A 
ATOM      6  C   UNL     1      -4.106  11.461  18.596  0.00  0.00    +0.000 A 
ATOM      7  F   UNL     1      -5.188  10.708  18.353  0.00  0.00    +0.000 F 
ATOM      8  C   UNL     1      -2.878  11.091  18.072  0.00  0.00    +0.000 A 
ATOM      9  C   UNL     1      -1.719  11.836  18.346  0.00  0.00    +0.000 A 
ATOM     10  C   UNL     1      -1.807  12.892  19.275  0.00  0.00    +0.000 A 
ATOM     11  C   UNL     1      -3.503  13.580  22.429  0.00  0.00    +0.000 C 
ATOM     12  N   UNL     1      -2.636  13.031  23.506  0.00  0.00    +0.000 NA
ATOM     13  C   UNL     1      -1.432  13.882  23.654  0.00  0.00    +0.000 C 
ATOM     14  C   UNL     1      -0.616  14.311  22.392  0.00  0.00    +0.000 C 
ENDROOT
BRANCH   1  18
ATOM     15  C   UNL     1       2.845  15.141  18.119  0.00  0.00    +0.000 A 
ATOM     16  C   UNL     1       2.654  13.805  18.447  0.00  0.00    +0.000 A 
ATOM     17  C   UNL     1       1.445  13.361  19.015  0.00  0.00    +0.000 A 
ATOM     18  C   UNL     1       0.385  14.244  19.270  0.00  0.00    +0.000 A 
ATOM     19  C   UNL     1       0.632  15.604  19.013  0.00  0.00    +0.000 A 
ATOM     20  C   UNL     1       1.837  16.048  18.427  0.00  0.00    +0.000 A 
BRANCH  15  22
ATOM     21  C   UNL     1       5.167  14.655  18.006  0.00  0.00    +0.000 C 
ATOM     22  O   UNL     1       4.062  15.441  17.574  0.00  0.00    +0.000 OA
ENDBRANCH  15  22
ENDBRANCH   1  18
BRANCH  12  23
ATOM     23  C   UNL     1      -2.376  11.592  23.302  0.00  0.00    +0.000 C 
BRANCH  23  24
ATOM     24  C   UNL     1      -0.916  11.168  23.084  0.00  0.00    +0.000 C 
BRANCH  24  25
ATOM     25  C   UNL     1      -0.676   9.667  22.878  0.00  0.00    +0.000 C 
BRANCH  25  26
ATOM     26  C   UNL     1       0.787   9.403  22.519  0.00  0.00    +0.000 C 
ATOM     27  O   UNL     1       1.681   9.459  23.352  0.00  0.00    +0.000 OA
BRANCH  26  28
ATOM     28  C   UNL     1       1.156   9.088  21.097  0.00  0.00    +0.000 A 
ATOM     29  C   UNL     1       0.916   9.977  20.043  0.00  0.00    +0.000 A 
ATOM     30  C   UNL     1       1.279   9.626  18.741  0.00  0.00    +0.000 A 
ATOM     31  C   UNL     1       1.888   8.392  18.498  0.00  0.00    +0.000 A 
ATOM     32  F   UNL     1       2.246   8.065  17.247  0.00  0.00    +0.000 F 
ATOM     33  C   UNL     1       2.133   7.501  19.540  0.00  0.00    +0.000 A 
ATOM     34  C   UNL     1       1.759   7.844  20.833  0.00  0.00    +0.000 A 
ENDBRANCH  26  28
ENDBRANCH  25  26
ENDBRANCH  24  25
ENDBRANCH  23  24
ENDBRANCH  12  23
TORSDOF 7
ENDMDL
