MODEL 1
REMARK VINA RESULT:      -8.0      0.000      0.000
REMARK  Name = 
REMARK  12 active torsions:
REMARK  status: ('A' for Active; 'I' for Inactive)
REMARK    1  A    between atoms: C_2  and  C_5
REMARK    2  A    between atoms: N_3  and  O_4
REMARK    3  A    between atoms: C_5  and  C_6
REMARK    4  A    between atoms: C_5  and  O_8
REMARK    5  A    between atoms: C_6  and  O_7
REMARK    6  A    between atoms: O_8  and  C_9
REMARK    7  A    between atoms: C_9  and  C_10
REMARK    8  A    between atoms: C_9  and  C_12
REMARK    9  A    between atoms: C_10  and  O_11
REMARK   10  A    between atoms: C_15  and  C_16
REMARK   11  A    between atoms: C_17  and  C_18
REMARK   12  A    between atoms: C_19  and  C_20
REMARK                            x       y       z     vdW  Elec       q    Type
REMARK                         _______ _______ _______ _____ _____    ______ ____
ROOT
ATOM      1  C   UNL     1       3.436   4.762  19.379  0.00  0.00    +0.000 A 
ATOM      2  C   UNL     1       2.570   4.574  20.468  0.00  0.00    +0.000 A 
ATOM      3  C   UNL     1       1.809   5.638  20.964  0.00  0.00    +0.000 A 
ATOM      4  C   UNL     1       1.905   6.898  20.379  0.00  0.00    +0.000 A 
ATOM      5  C   UNL     1       2.746   7.100  19.290  0.00  0.00    +0.000 A 
ATOM      6  C   UNL     1       3.515   6.043  18.801  0.00  0.00    +0.000 A 
ENDROOT
BRANCH   4   7
ATOM      7  C   UNL     1       1.158   7.993  20.914  0.00  0.00    +0.000 C 
ATOM      8  C   UNL     1       0.557   8.928  21.355  0.00  0.00    +0.000 C 
BRANCH   8   9
ATOM      9  C   UNL     1      -0.182  10.130  21.932  0.00  0.00    +0.000 C 
ATOM     10  C   UNL     1      -0.790  11.051  22.414  0.00  0.00    +0.000 C 
BRANCH  10  11
ATOM     11  C   UNL     1      -1.540  12.109  23.003  0.00  0.00    +0.000 A 
ATOM     12  C   UNL     1      -0.989  13.390  23.066  0.00  0.00    +0.000 A 
ATOM     13  C   UNL     1      -1.734  14.440  23.605  0.00  0.00    +0.000 A 
ATOM     14  C   UNL     1      -3.024  14.207  24.078  0.00  0.00    +0.000 A 
ATOM     15  C   UNL     1      -3.573  12.925  24.018  0.00  0.00    +0.000 A 
ATOM     16  C   UNL     1      -2.829  11.875  23.479  0.00  0.00    +0.000 A 
ENDBRANCH  10  11
ENDBRANCH   8   9
ENDBRANCH   4   7
BRANCH   1  17
ATOM     17  C   UNL     1       4.279   3.623  18.797  0.00  0.00    +0.000 C 
BRANCH  17  18
ATOM     18  O   UNL     1       5.672   3.921  19.001  0.00  0.00    +0.000 OA
BRANCH  18  19
ATOM     19  C   UNL     1       6.256   5.016  18.281  0.00  0.00    +0.000 C 
BRANCH  19  21
ATOM     20  O   UNL     1       7.646   5.519  20.222  0.00  0.00    +0.000 OA
ATOM     21  C   UNL     1       7.349   5.763  19.052  0.00  0.00    +0.000 C 
ATOM     22  N   UNL     1       7.939   6.791  18.345  0.00  0.00    +0.000 N 
ATOM     23  H   UNL     1       7.404   7.251  17.611  0.00  0.00    +0.000 HD
BRANCH  22  24
ATOM     24  O   UNL     1       8.720   7.667  19.145  0.00  0.00    +0.000 OA
ATOM     25  H   UNL     1       9.505   7.119  19.365  0.00  0.00    +0.000 HD
ENDBRANCH  22  24
ENDBRANCH  19  21
BRANCH  19  26
ATOM     26  C   UNL     1       6.758   4.642  16.878  0.00  0.00    +0.000 C 
BRANCH  26  27
ATOM     27  O   UNL     1       8.072   4.089  16.924  0.00  0.00    +0.000 OA
ATOM     28  H   UNL     1       7.988   3.126  17.041  0.00  0.00    +0.000 HD
ENDBRANCH  26  27
ENDBRANCH  19  26
ENDBRANCH  18  19
ENDBRANCH  17  18
BRANCH  17  29
ATOM     29  C   UNL     1       3.850   2.286  19.442  0.00  0.00    +0.000 C 
BRANCH  29  30
ATOM     30  O   UNL     1       4.979   1.529  19.880  0.00  0.00    +0.000 OA
ATOM     31  H   UNL     1       5.782   1.959  19.532  0.00  0.00    +0.000 HD
ENDBRANCH  29  30
ENDBRANCH  17  29
ENDBRANCH   1  17
TORSDOF 12
ENDMDL
MODEL 2
REMARK VINA RESULT:      -8.0      1.598      2.441
REMARK  Name = 
REMARK  12 active torsions:
REMARK  status: ('A' for Active; 'I' for Inactive)
REMARK    1  A    between atoms: C_2  and  C_5
REMARK    2  A    between atoms: N_3  and  O_4
REMARK    3  A    between atoms: C_5  and  C_6
REMARK    4  A    between atoms: C_5  and  O_8
REMARK    5  A    between atoms: C_6  and  O_7
REMARK    6  A    between atoms: O_8  and  C_9
REMARK    7  A    between atoms: C_9  and  C_10
REMARK    8  A    between atoms: C_9  and  C_12
REMARK    9  A    between atoms: C_10  and  O_11
REMARK   10  A    between atoms: C_15  and  C_16
REMARK   11  A    between atoms: C_17  and  C_18
REMARK   12  A    between atoms: C_19  and  C_20
REMARK                            x       y       z     vdW  Elec       q    Type
REMARK                         _______ _______ _______ _____ _____    ______ ____
ROOT
ATOM      1  C   UNL     1       3.175   5.874  18.442  0.00  0.00    +0.000 A 
ATOM      2  C   UNL     1       2.645   5.591  19.711  0.00  0.00    +0.000 A 
ATOM      3  C   UNL     1       1.923   6.562  20.413  0.00  0.00    +0.000 A 
ATOM      4  C   UNL     1       1.724   7.823  19.857  0.00  0.00    +0.000 A 
ATOM      5  C   UNL     1       2.228   8.117  18.594  0.00  0.00    +0.000 A 
ATOM      6  C   UNL     1       2.958   7.153  17.897  0.00  0.00    +0.000 A 
ENDROOT
BRANCH   4   7
ATOM      7  C   UNL     1       1.022   8.826  20.594  0.00  0.00    +0.000 C 
ATOM      8  C   UNL     1       0.416   9.645  21.220  0.00  0.00    +0.000 C 
BRANCH   8   9
ATOM      9  C   UNL     1      -0.386  10.676  22.006  0.00  0.00    +0.000 C 
ATOM     10  C   UNL     1      -1.046  11.497  22.591  0.00  0.00    +0.000 C 
BRANCH  10  11
ATOM     11  C   UNL     1      -1.845  12.480  23.240  0.00  0.00    +0.000 A 
ATOM     12  C   UNL     1      -3.152  12.167  23.616  0.00  0.00    +0.000 A 
ATOM     13  C   UNL     1      -3.927  13.112  24.289  0.00  0.00    +0.000 A 
ATOM     14  C   UNL     1      -3.395  14.367  24.583  0.00  0.00    +0.000 A 
ATOM     15  C   UNL     1      -2.089  14.681  24.203  0.00  0.00    +0.000 A 
ATOM     16  C   UNL     1      -1.313  13.736  23.531  0.00  0.00    +0.000 A 
ENDBRANCH  10  11
ENDBRANCH   8   9
ENDBRANCH   4   7
BRANCH   1  17
ATOM     17  C   UNL     1       3.962   4.837  17.633  0.00  0.00    +0.000 C 
BRANCH  17  18
ATOM     18  O   UNL     1       5.122   5.471  17.065  0.00  0.00    +0.000 OA
BRANCH  18  19
ATOM     19  C   UNL     1       6.281   4.670  16.793  0.00  0.00    +0.000 C 
BRANCH  19  21
ATOM     20  O   UNL     1       6.291   3.794  14.515  0.00  0.00    +0.000 OA
ATOM     21  C   UNL     1       6.690   4.640  15.316  0.00  0.00    +0.000 C 
ATOM     22  N   UNL     1       7.607   5.610  14.963  0.00  0.00    +0.000 N 
ATOM     23  H   UNL     1       8.235   5.974  15.676  0.00  0.00    +0.000 HD
BRANCH  22  24
ATOM     24  O   UNL     1       8.211   5.397  13.695  0.00  0.00    +0.000 OA
ATOM     25  H   UNL     1       7.675   5.967  13.101  0.00  0.00    +0.000 HD
ENDBRANCH  22  24
ENDBRANCH  19  21
BRANCH  19  26
ATOM     26  C   UNL     1       7.494   5.010  17.672  0.00  0.00    +0.000 C 
BRANCH  26  27
ATOM     27  O   UNL     1       8.437   3.939  17.698  0.00  0.00    +0.000 OA
ATOM     28  H   UNL     1       9.205   4.229  18.221  0.00  0.00    +0.000 HD
ENDBRANCH  26  27
ENDBRANCH  19  26
ENDBRANCH  18  19
ENDBRANCH  17  18
BRANCH  17  29
ATOM     29  C   UNL     1       4.317   3.639  18.542  0.00  0.00    +0.000 C 
BRANCH  29  30
ATOM     30  O   UNL     1       4.079   2.393  17.886  0.00  0.00    +0.000 OA
ATOM     31  H   UNL     1       3.950   1.713  18.572  0.00  0.00    +0.000 HD
ENDBRANCH  29  30
ENDBRANCH  17  29
ENDBRANCH   1  17
TORSDOF 12
ENDMDL
MODEL 3
REMARK VINA RESULT:      -7.9      1.109      2.173
REMARK  Name = 
REMARK  12 active torsions:
REMARK  status: ('A' for Active; 'I' for Inactive)
REMARK    1  A    between atoms: C_2  and  C_5
REMARK    2  A    between atoms: N_3  and  O_4
REMARK    3  A    between atoms: C_5  and  C_6
REMARK    4  A    between atoms: C_5  and  O_8
REMARK    5  A    between atoms: C_6  and  O_7
REMARK    6  A    between atoms: O_8  and  C_9
REMARK    7  A    between atoms: C_9  and  C_10
REMARK    8  A    between atoms: C_9  and  C_12
REMARK    9  A    between atoms: C_10  and  O_11
REMARK   10  A    between atoms: C_15  and  C_16
REMARK   11  A    between atoms: C_17  and  C_18
REMARK   12  A    between atoms: C_19  and  C_20
REMARK                            x       y       z     vdW  Elec       q    Type
REMARK                         _______ _______ _______ _____ _____    ______ ____
ROOT
ATOM      1  C   UNL     1       2.882   5.233  19.077  0.00  0.00    +0.000 A 
ATOM      2  C   UNL     1       2.909   6.522  18.519  0.00  0.00    +0.000 A 
ATOM      3  C   UNL     1       2.276   7.589  19.164  0.00  0.00    +0.000 A 
ATOM      4  C   UNL     1       1.610   7.382  20.370  0.00  0.00    +0.000 A 
ATOM      5  C   UNL     1       1.585   6.116  20.945  0.00  0.00    +0.000 A 
ATOM      6  C   UNL     1       2.207   5.047  20.298  0.00  0.00    +0.000 A 
ENDROOT
BRANCH   4   7
ATOM      7  C   UNL     1       0.928   8.466  21.004  0.00  0.00    +0.000 C 
ATOM      8  C   UNL     1       0.332   9.366  21.519  0.00  0.00    +0.000 C 
BRANCH   8   9
ATOM      9  C   UNL     1      -0.438  10.523  22.145  0.00  0.00    +0.000 C 
ATOM     10  C   UNL     1      -1.078  11.408  22.654  0.00  0.00    +0.000 C 
BRANCH  10  11
ATOM     11  C   UNL     1      -1.869  12.422  23.263  0.00  0.00    +0.000 A 
ATOM     12  C   UNL     1      -3.174  12.131  23.663  0.00  0.00    +0.000 A 
ATOM     13  C   UNL     1      -3.942  13.109  24.297  0.00  0.00    +0.000 A 
ATOM     14  C   UNL     1      -3.403  14.374  24.529  0.00  0.00    +0.000 A 
ATOM     15  C   UNL     1      -2.099  14.666  24.125  0.00  0.00    +0.000 A 
ATOM     16  C   UNL     1      -1.331  13.688  23.492  0.00  0.00    +0.000 A 
ENDBRANCH  10  11
ENDBRANCH   8   9
ENDBRANCH   4   7
BRANCH   1  17
ATOM     17  C   UNL     1       3.572   4.038  18.411  0.00  0.00    +0.000 C 
BRANCH  17  18
ATOM     18  O   UNL     1       4.655   4.520  17.595  0.00  0.00    +0.000 OA
BRANCH  18  19
ATOM     19  C   UNL     1       5.987   4.488  18.127  0.00  0.00    +0.000 C 
BRANCH  19  21
ATOM     20  O   UNL     1       8.253   4.178  17.277  0.00  0.00    +0.000 OA
ATOM     21  C   UNL     1       7.089   4.517  17.063  0.00  0.00    +0.000 C 
ATOM     22  N   UNL     1       6.686   5.024  15.844  0.00  0.00    +0.000 N 
ATOM     23  H   UNL     1       5.912   5.685  15.820  0.00  0.00    +0.000 HD
BRANCH  22  24
ATOM     24  O   UNL     1       7.758   5.335  14.965  0.00  0.00    +0.000 OA
ATOM     25  H   UNL     1       7.297   5.534  14.122  0.00  0.00    +0.000 HD
ENDBRANCH  22  24
ENDBRANCH  19  21
BRANCH  19  26
ATOM     26  C   UNL     1       6.256   5.555  19.198  0.00  0.00    +0.000 C 
BRANCH  26  27
ATOM     27  O   UNL     1       7.443   5.267  19.937  0.00  0.00    +0.000 OA
ATOM     28  H   UNL     1       8.010   4.701  19.384  0.00  0.00    +0.000 HD
ENDBRANCH  26  27
ENDBRANCH  19  26
ENDBRANCH  18  19
ENDBRANCH  17  18
BRANCH  17  29
ATOM     29  C   UNL     1       4.037   3.043  19.499  0.00  0.00    +0.000 C 
BRANCH  29  30
ATOM     30  O   UNL     1       4.173   1.721  18.976  0.00  0.00    +0.000 OA
ATOM     31  H   UNL     1       3.351   1.235  19.173  0.00  0.00    +0.000 HD
ENDBRANCH  29  30
ENDBRANCH  17  29
ENDBRANCH   1  17
TORSDOF 12
ENDMDL
MODEL 4
REMARK VINA RESULT:      -7.9      0.918      1.312
REMARK  Name = 
REMARK  12 active torsions:
REMARK  status: ('A' for Active; 'I' for Inactive)
REMARK    1  A    between atoms: C_2  and  C_5
REMARK    2  A    between atoms: N_3  and  O_4
REMARK    3  A    between atoms: C_5  and  C_6
REMARK    4  A    between atoms: C_5  and  O_8
REMARK    5  A    between atoms: C_6  and  O_7
REMARK    6  A    between atoms: O_8  and  C_9
REMARK    7  A    between atoms: C_9  and  C_10
REMARK    8  A    between atoms: C_9  and  C_12
REMARK    9  A    between atoms: C_10  and  O_11
REMARK   10  A    between atoms: C_15  and  C_16
REMARK   11  A    between atoms: C_17  and  C_18
REMARK   12  A    between atoms: C_19  and  C_20
REMARK                            x       y       z     vdW  Elec       q    Type
REMARK                         _______ _______ _______ _____ _____    ______ ____
ROOT
ATOM      1  C   UNL     1       3.471   5.177  18.862  0.00  0.00    +0.000 A 
ATOM      2  C   UNL     1       2.740   4.876  20.022  0.00  0.00    +0.000 A 
ATOM      3  C   UNL     1       1.974   5.861  20.655  0.00  0.00    +0.000 A 
ATOM      4  C   UNL     1       1.931   7.153  20.138  0.00  0.00    +0.000 A 
ATOM      5  C   UNL     1       2.637   7.466  18.981  0.00  0.00    +0.000 A 
ATOM      6  C   UNL     1       3.410   6.488  18.354  0.00  0.00    +0.000 A 
ENDROOT
BRANCH   4   7
ATOM      7  C   UNL     1       1.183   8.167  20.811  0.00  0.00    +0.000 C 
ATOM      8  C   UNL     1       0.553   9.031  21.348  0.00  0.00    +0.000 C 
BRANCH   8   9
ATOM      9  C   UNL     1      -0.231  10.155  22.015  0.00  0.00    +0.000 C 
ATOM     10  C   UNL     1      -0.861  11.059  22.502  0.00  0.00    +0.000 C 
BRANCH  10  11
ATOM     11  C   UNL     1      -1.608  12.148  23.034  0.00  0.00    +0.000 A 
ATOM     12  C   UNL     1      -2.935  11.950  23.418  0.00  0.00    +0.000 A 
ATOM     13  C   UNL     1      -3.661  13.002  23.978  0.00  0.00    +0.000 A 
ATOM     14  C   UNL     1      -3.059  14.248  24.151  0.00  0.00    +0.000 A 
ATOM     15  C   UNL     1      -1.733  14.446  23.763  0.00  0.00    +0.000 A 
ATOM     16  C   UNL     1      -1.007  13.394  23.205  0.00  0.00    +0.000 A 
ENDBRANCH  10  11
ENDBRANCH   8   9
ENDBRANCH   4   7
BRANCH   1  17
ATOM     17  C   UNL     1       4.313   4.127  18.129  0.00  0.00    +0.000 C 
BRANCH  17  18
ATOM     18  O   UNL     1       5.704   4.475  18.252  0.00  0.00    +0.000 OA
BRANCH  18  19
ATOM     19  C   UNL     1       6.305   5.283  17.229  0.00  0.00    +0.000 C 
BRANCH  19  21
ATOM     20  O   UNL     1       7.974   6.206  18.751  0.00  0.00    +0.000 OA
ATOM     21  C   UNL     1       7.260   6.358  17.759  0.00  0.00    +0.000 C 
ATOM     22  N   UNL     1       7.210   7.551  17.068  0.00  0.00    +0.000 N 
ATOM     23  H   UNL     1       6.348   7.803  16.587  0.00  0.00    +0.000 HD
BRANCH  22  24
ATOM     24  O   UNL     1       7.854   8.630  17.732  0.00  0.00    +0.000 OA
ATOM     25  H   UNL     1       7.128   9.021  18.265  0.00  0.00    +0.000 HD
ENDBRANCH  22  24
ENDBRANCH  19  21
BRANCH  19  26
ATOM     26  C   UNL     1       6.983   4.475  16.114  0.00  0.00    +0.000 C 
BRANCH  26  27
ATOM     27  O   UNL     1       7.471   5.323  15.076  0.00  0.00    +0.000 OA
ATOM     28  H   UNL     1       6.761   5.433  14.419  0.00  0.00    +0.000 HD
ENDBRANCH  26  27
ENDBRANCH  19  26
ENDBRANCH  18  19
ENDBRANCH  17  18
BRANCH  17  29
ATOM     29  C   UNL     1       3.993   2.726  18.697  0.00  0.00    +0.000 C 
BRANCH  29  30
ATOM     30  O   UNL     1       5.008   2.279  19.597  0.00  0.00    +0.000 OA
ATOM     31  H   UNL     1       4.579   1.744  20.290  0.00  0.00    +0.000 HD
ENDBRANCH  29  30
ENDBRANCH  17  29
ENDBRANCH   1  17
TORSDOF 12
ENDMDL
MODEL 5
REMARK VINA RESULT:      -7.9      1.388      1.871
REMARK  Name = 
REMARK  12 active torsions:
REMARK  status: ('A' for Active; 'I' for Inactive)
REMARK    1  A    between atoms: C_2  and  C_5
REMARK    2  A    between atoms: N_3  and  O_4
REMARK    3  A    between atoms: C_5  and  C_6
REMARK    4  A    between atoms: C_5  and  O_8
REMARK    5  A    between atoms: C_6  and  O_7
REMARK    6  A    between atoms: O_8  and  C_9
REMARK    7  A    between atoms: C_9  and  C_10
REMARK    8  A    between atoms: C_9  and  C_12
REMARK    9  A    between atoms: C_10  and  O_11
REMARK   10  A    between atoms: C_15  and  C_16
REMARK   11  A    between atoms: C_17  and  C_18
REMARK   12  A    between atoms: C_19  and  C_20
REMARK                            x       y       z     vdW  Elec       q    Type
REMARK                         _______ _______ _______ _____ _____    ______ ____
ROOT
ATOM      1  C   UNL     1       3.109   6.270  18.263  0.00  0.00    +0.000 A 
ATOM      2  C   UNL     1       2.864   7.539  17.714  0.00  0.00    +0.000 A 
ATOM      3  C   UNL     1       2.166   8.507  18.443  0.00  0.00    +0.000 A 
ATOM      4  C   UNL     1       1.706   8.219  19.726  0.00  0.00    +0.000 A 
ATOM      5  C   UNL     1       1.953   6.973  20.293  0.00  0.00    +0.000 A 
ATOM      6  C   UNL     1       2.640   6.002  19.562  0.00  0.00    +0.000 A 
ENDROOT
BRANCH   4   7
ATOM      7  C   UNL     1       0.957   9.195  20.453  0.00  0.00    +0.000 C 
ATOM      8  C   UNL     1       0.345  10.005  21.086  0.00  0.00    +0.000 C 
BRANCH   8   9
ATOM      9  C   UNL     1      -0.440  11.013  21.917  0.00  0.00    +0.000 C 
ATOM     10  C   UNL     1      -1.098  11.795  22.556  0.00  0.00    +0.000 C 
BRANCH  10  11
ATOM     11  C   UNL     1      -1.913  12.707  23.284  0.00  0.00    +0.000 A 
ATOM     12  C   UNL     1      -1.384  13.935  23.683  0.00  0.00    +0.000 A 
ATOM     13  C   UNL     1      -2.189  14.851  24.362  0.00  0.00    +0.000 A 
ATOM     14  C   UNL     1      -3.518  14.537  24.639  0.00  0.00    +0.000 A 
ATOM     15  C   UNL     1      -4.046  13.306  24.242  0.00  0.00    +0.000 A 
ATOM     16  C   UNL     1      -3.242  12.391  23.563  0.00  0.00    +0.000 A 
ENDBRANCH  10  11
ENDBRANCH   8   9
ENDBRANCH   4   7
BRANCH   1  17
ATOM     17  C   UNL     1       3.879   5.185  17.505  0.00  0.00    +0.000 C 
BRANCH  17  18
ATOM     18  O   UNL     1       5.135   4.953  18.169  0.00  0.00    +0.000 OA
BRANCH  18  19
ATOM     19  C   UNL     1       6.348   5.329  17.502  0.00  0.00    +0.000 C 
BRANCH  19  21
ATOM     20  O   UNL     1       8.443   4.145  17.904  0.00  0.00    +0.000 OA
ATOM     21  C   UNL     1       7.624   4.985  18.278  0.00  0.00    +0.000 C 
ATOM     22  N   UNL     1       7.753   5.651  19.480  0.00  0.00    +0.000 N 
ATOM     23  H   UNL     1       6.911   5.960  19.961  0.00  0.00    +0.000 HD
BRANCH  22  24
ATOM     24  O   UNL     1       8.758   5.116  20.330  0.00  0.00    +0.000 OA
ATOM     25  H   UNL     1       8.837   4.189  20.016  0.00  0.00    +0.000 HD
ENDBRANCH  22  24
ENDBRANCH  19  21
BRANCH  19  26
ATOM     26  C   UNL     1       6.450   4.816  16.058  0.00  0.00    +0.000 C 
BRANCH  26  27
ATOM     27  O   UNL     1       7.548   5.411  15.368  0.00  0.00    +0.000 OA
ATOM     28  H   UNL     1       8.069   5.920  16.015  0.00  0.00    +0.000 HD
ENDBRANCH  26  27
ENDBRANCH  19  26
ENDBRANCH  18  19
ENDBRANCH  17  18
BRANCH  17  29
ATOM     29  C   UNL     1       3.009   3.912  17.405  0.00  0.00    +0.000 C 
BRANCH  29  30
ATOM     30  O   UNL     1       3.538   2.850  18.202  0.00  0.00    +0.000 OA
ATOM     31  H   UNL     1       3.166   2.013  17.868  0.00  0.00    +0.000 HD
ENDBRANCH  29  30
ENDBRANCH  17  29
ENDBRANCH   1  17
TORSDOF 12
ENDMDL
MODEL 6
REMARK VINA RESULT:      -7.8      0.989      1.147
REMARK  Name = 
REMARK  12 active torsions:
REMARK  status: ('A' for Active; 'I' for Inactive)
REMARK    1  A    between atoms: C_2  and  C_5
REMARK    2  A    between atoms: N_3  and  O_4
REMARK    3  A    between atoms: C_5  and  C_6
REMARK    4  A    between atoms: C_5  and  O_8
REMARK    5  A    between atoms: C_6  and  O_7
REMARK    6  A    between atoms: O_8  and  C_9
REMARK    7  A    between atoms: C_9  and  C_10
REMARK    8  A    between atoms: C_9  and  C_12
REMARK    9  A    between atoms: C_10  and  O_11
REMARK   10  A    between atoms: C_15  and  C_16
REMARK   11  A    between atoms: C_17  and  C_18
REMARK   12  A    between atoms: C_19  and  C_20
REMARK                            x       y       z     vdW  Elec       q    Type
REMARK                         _______ _______ _______ _____ _____    ______ ____
ROOT
ATOM      1  C   UNL     1       3.210   5.084  18.607  0.00  0.00    +0.000 A 
ATOM      2  C   UNL     1       2.603   4.873  19.855  0.00  0.00    +0.000 A 
ATOM      3  C   UNL     1       1.891   5.900  20.483  0.00  0.00    +0.000 A 
ATOM      4  C   UNL     1       1.778   7.147  19.872  0.00  0.00    +0.000 A 
ATOM      5  C   UNL     1       2.359   7.370  18.629  0.00  0.00    +0.000 A 
ATOM      6  C   UNL     1       3.080   6.350  18.006  0.00  0.00    +0.000 A 
ENDROOT
BRANCH   4   7
ATOM      7  C   UNL     1       1.086   8.207  20.535  0.00  0.00    +0.000 C 
ATOM      8  C   UNL     1       0.512   9.112  21.066  0.00  0.00    +0.000 C 
BRANCH   8   9
ATOM      9  C   UNL     1      -0.193  10.287  21.734  0.00  0.00    +0.000 C 
ATOM     10  C   UNL     1      -0.766  11.187  22.293  0.00  0.00    +0.000 C 
BRANCH  10  11
ATOM     11  C   UNL     1      -1.466  12.219  22.980  0.00  0.00    +0.000 A 
ATOM     12  C   UNL     1      -0.857  13.461  23.163  0.00  0.00    +0.000 A 
ATOM     13  C   UNL     1      -1.553  14.489  23.800  0.00  0.00    +0.000 A 
ATOM     14  C   UNL     1      -2.854  14.273  24.253  0.00  0.00    +0.000 A 
ATOM     15  C   UNL     1      -3.461  13.028  24.073  0.00  0.00    +0.000 A 
ATOM     16  C   UNL     1      -2.766  12.001  23.436  0.00  0.00    +0.000 A 
ENDBRANCH  10  11
ENDBRANCH   8   9
ENDBRANCH   4   7
BRANCH   1  17
ATOM     17  C   UNL     1       3.989   3.984  17.879  0.00  0.00    +0.000 C 
BRANCH  17  18
ATOM     18  O   UNL     1       5.372   4.052  18.274  0.00  0.00    +0.000 OA
BRANCH  18  19
ATOM     19  C   UNL     1       6.206   5.065  17.695  0.00  0.00    +0.000 C 
BRANCH  19  21
ATOM     20  O   UNL     1       7.956   6.622  18.378  0.00  0.00    +0.000 OA
ATOM     21  C   UNL     1       7.183   5.713  18.682  0.00  0.00    +0.000 C 
ATOM     22  N   UNL     1       7.176   5.146  19.940  0.00  0.00    +0.000 N 
ATOM     23  H   UNL     1       6.898   4.172  20.037  0.00  0.00    +0.000 HD
BRANCH  22  24
ATOM     24  O   UNL     1       8.276   5.531  20.752  0.00  0.00    +0.000 OA
ATOM     25  H   UNL     1       7.914   6.286  21.265  0.00  0.00    +0.000 HD
ENDBRANCH  22  24
ENDBRANCH  19  21
BRANCH  19  26
ATOM     26  C   UNL     1       6.952   4.612  16.431  0.00  0.00    +0.000 C 
BRANCH  26  27
ATOM     27  O   UNL     1       7.518   5.720  15.733  0.00  0.00    +0.000 OA
ATOM     28  H   UNL     1       8.324   5.992  16.206  0.00  0.00    +0.000 HD
ENDBRANCH  26  27
ENDBRANCH  19  26
ENDBRANCH  18  19
ENDBRANCH  17  18
BRANCH  17  29
ATOM     29  C   UNL     1       3.345   2.613  18.181  0.00  0.00    +0.000 C 
BRANCH  29  30
ATOM     30  O   UNL     1       4.218   1.535  17.838  0.00  0.00    +0.000 OA
ATOM     31  H   UNL     1       5.058   1.668  18.315  0.00  0.00    +0.000 HD
ENDBRANCH  29  30
ENDBRANCH  17  29
ENDBRANCH   1  17
TORSDOF 12
ENDMDL
MODEL 7
REMARK VINA RESULT:      -7.8      0.995      1.456
REMARK  Name = 
REMARK  12 active torsions:
REMARK  status: ('A' for Active; 'I' for Inactive)
REMARK    1  A    between atoms: C_2  and  C_5
REMARK    2  A    between atoms: N_3  and  O_4
REMARK    3  A    between atoms: C_5  and  C_6
REMARK    4  A    between atoms: C_5  and  O_8
REMARK    5  A    between atoms: C_6  and  O_7
REMARK    6  A    between atoms: O_8  and  C_9
REMARK    7  A    between atoms: C_9  and  C_10
REMARK    8  A    between atoms: C_9  and  C_12
REMARK    9  A    between atoms: C_10  and  O_11
REMARK   10  A    between atoms: C_15  and  C_16
REMARK   11  A    between atoms: C_17  and  C_18
REMARK   12  A    between atoms: C_19  and  C_20
REMARK                            x       y       z     vdW  Elec       q    Type
REMARK                         _______ _______ _______ _____ _____    ______ ____
ROOT
ATOM      1  C   UNL     1       3.278   5.378  18.793  0.00  0.00    +0.000 A 
ATOM      2  C   UNL     1       3.133   6.626  18.165  0.00  0.00    +0.000 A 
ATOM      3  C   UNL     1       2.440   7.664  18.796  0.00  0.00    +0.000 A 
ATOM      4  C   UNL     1       1.884   7.468  20.058  0.00  0.00    +0.000 A 
ATOM      5  C   UNL     1       2.030   6.244  20.702  0.00  0.00    +0.000 A 
ATOM      6  C   UNL     1       2.713   5.203  20.070  0.00  0.00    +0.000 A 
ENDROOT
BRANCH   4   7
ATOM      7  C   UNL     1       1.140   8.516  20.682  0.00  0.00    +0.000 C 
ATOM      8  C   UNL     1       0.530   9.386  21.230  0.00  0.00    +0.000 C 
BRANCH   8   9
ATOM      9  C   UNL     1      -0.255  10.474  21.954  0.00  0.00    +0.000 C 
ATOM     10  C   UNL     1      -0.913  11.318  22.508  0.00  0.00    +0.000 C 
BRANCH  10  11
ATOM     11  C   UNL     1      -1.727  12.304  23.134  0.00  0.00    +0.000 A 
ATOM     12  C   UNL     1      -1.222  13.589  23.334  0.00  0.00    +0.000 A 
ATOM     13  C   UNL     1      -2.028  14.571  23.910  0.00  0.00    +0.000 A 
ATOM     14  C   UNL     1      -3.335  14.266  24.286  0.00  0.00    +0.000 A 
ATOM     15  C   UNL     1      -3.839  12.979  24.090  0.00  0.00    +0.000 A 
ATOM     16  C   UNL     1      -3.034  11.997  23.512  0.00  0.00    +0.000 A 
ENDBRANCH  10  11
ENDBRANCH   8   9
ENDBRANCH   4   7
BRANCH   1  17
ATOM     17  C   UNL     1       4.040   4.218  18.145  0.00  0.00    +0.000 C 
BRANCH  17  18
ATOM     18  O   UNL     1       5.448   4.519  18.158  0.00  0.00    +0.000 OA
BRANCH  18  19
ATOM     19  C   UNL     1       5.992   5.315  17.095  0.00  0.00    +0.000 C 
BRANCH  19  21
ATOM     20  O   UNL     1       6.731   7.639  17.018  0.00  0.00    +0.000 OA
ATOM     21  C   UNL     1       6.781   6.540  17.570  0.00  0.00    +0.000 C 
ATOM     22  N   UNL     1       7.617   6.295  18.641  0.00  0.00    +0.000 N 
ATOM     23  H   UNL     1       7.976   5.352  18.777  0.00  0.00    +0.000 HD
BRANCH  22  24
ATOM     24  O   UNL     1       8.561   7.328  18.883  0.00  0.00    +0.000 OA
ATOM     25  H   UNL     1       7.990   8.109  19.053  0.00  0.00    +0.000 HD
ENDBRANCH  22  24
ENDBRANCH  19  21
BRANCH  19  26
ATOM     26  C   UNL     1       6.818   4.515  16.077  0.00  0.00    +0.000 C 
BRANCH  26  27
ATOM     27  O   UNL     1       7.703   5.359  15.342  0.00  0.00    +0.000 OA
ATOM     28  H   UNL     1       7.971   4.884  14.536  0.00  0.00    +0.000 HD
ENDBRANCH  26  27
ENDBRANCH  19  26
ENDBRANCH  18  19
ENDBRANCH  17  18
BRANCH  17  29
ATOM     29  C   UNL     1       3.700   2.904  18.883  0.00  0.00    +0.000 C 
BRANCH  29  30
ATOM     30  O   UNL     1       4.879   2.241  19.345  0.00  0.00    +0.000 OA
ATOM     31  H   UNL     1       5.636   2.594  18.842  0.00  0.00    +0.000 HD
ENDBRANCH  29  30
ENDBRANCH  17  29
ENDBRANCH   1  17
TORSDOF 12
ENDMDL
MODEL 8
REMARK VINA RESULT:      -7.7      7.009      8.816
REMARK  Name = 
REMARK  12 active torsions:
REMARK  status: ('A' for Active; 'I' for Inactive)
REMARK    1  A    between atoms: C_2  and  C_5
REMARK    2  A    between atoms: N_3  and  O_4
REMARK    3  A    between atoms: C_5  and  C_6
REMARK    4  A    between atoms: C_5  and  O_8
REMARK    5  A    between atoms: C_6  and  O_7
REMARK    6  A    between atoms: O_8  and  C_9
REMARK    7  A    between atoms: C_9  and  C_10
REMARK    8  A    between atoms: C_9  and  C_12
REMARK    9  A    between atoms: C_10  and  O_11
REMARK   10  A    between atoms: C_15  and  C_16
REMARK   11  A    between atoms: C_17  and  C_18
REMARK   12  A    between atoms: C_19  and  C_20
REMARK                            x       y       z     vdW  Elec       q    Type
REMARK                         _______ _______ _______ _____ _____    ______ ____
ROOT
ATOM      1  C   UNL     1       6.244   5.344  17.598  0.00  0.00    +0.000 A 
ATOM      2  C   UNL     1       5.939   6.493  16.852  0.00  0.00    +0.000 A 
ATOM      3  C   UNL     1       6.664   7.675  17.038  0.00  0.00    +0.000 A 
ATOM      4  C   UNL     1       7.698   7.722  17.969  0.00  0.00    +0.000 A 
ATOM      5  C   UNL     1       8.025   6.590  18.707  0.00  0.00    +0.000 A 
ATOM      6  C   UNL     1       7.296   5.412  18.531  0.00  0.00    +0.000 A 
ENDROOT
BRANCH   4   7
ATOM      7  C   UNL     1       8.409   8.943  18.187  0.00  0.00    +0.000 C 
ATOM      8  C   UNL     1       9.003   9.958  18.399  0.00  0.00    +0.000 C 
BRANCH   8   9
ATOM      9  C   UNL     1       9.740  11.260  18.696  0.00  0.00    +0.000 C 
ATOM     10  C   UNL     1      10.282  12.309  18.936  0.00  0.00    +0.000 C 
BRANCH  10  11
ATOM     11  C   UNL     1      10.881  13.569  19.216  0.00  0.00    +0.000 A 
ATOM     12  C   UNL     1      11.773  14.127  18.299  0.00  0.00    +0.000 A 
ATOM     13  C   UNL     1      12.333  15.380  18.548  0.00  0.00    +0.000 A 
ATOM     14  C   UNL     1      12.000  16.073  19.712  0.00  0.00    +0.000 A 
ATOM     15  C   UNL     1      11.110  15.513  20.631  0.00  0.00    +0.000 A 
ATOM     16  C   UNL     1      10.549  14.260  20.381  0.00  0.00    +0.000 A 
ENDBRANCH  10  11
ENDBRANCH   8   9
ENDBRANCH   4   7
BRANCH   1  17
ATOM     17  C   UNL     1       5.485   4.025  17.419  0.00  0.00    +0.000 C 
BRANCH  17  18
ATOM     18  O   UNL     1       4.331   4.031  18.279  0.00  0.00    +0.000 OA
BRANCH  18  19
ATOM     19  C   UNL     1       3.651   2.792  18.528  0.00  0.00    +0.000 C 
BRANCH  19  21
ATOM     20  O   UNL     1       3.082   2.308  20.851  0.00  0.00    +0.000 OA
ATOM     21  C   UNL     1       3.891   2.215  19.927  0.00  0.00    +0.000 C 
ATOM     22  N   UNL     1       5.130   1.631  20.094  0.00  0.00    +0.000 N 
ATOM     23  H   UNL     1       5.905   1.952  19.517  0.00  0.00    +0.000 HD
BRANCH  22  24
ATOM     24  O   UNL     1       5.469   1.375  21.450  0.00  0.00    +0.000 OA
ATOM     25  H   UNL     1       5.734   0.430  21.433  0.00  0.00    +0.000 HD
ENDBRANCH  22  24
ENDBRANCH  19  21
BRANCH  19  26
ATOM     26  C   UNL     1       2.147   2.834  18.222  0.00  0.00    +0.000 C 
BRANCH  26  27
ATOM     27  O   UNL     1       1.456   3.707  19.116  0.00  0.00    +0.000 OA
ATOM     28  H   UNL     1       0.501   3.563  18.996  0.00  0.00    +0.000 HD
ENDBRANCH  26  27
ENDBRANCH  19  26
ENDBRANCH  18  19
ENDBRANCH  17  18
BRANCH  17  29
ATOM     29  C   UNL     1       5.122   3.841  15.928  0.00  0.00    +0.000 C 
BRANCH  29  30
ATOM     30  O   UNL     1       6.254   3.431  15.159  0.00  0.00    +0.000 OA
ATOM     31  H   UNL     1       6.636   4.226  14.743  0.00  0.00    +0.000 HD
ENDBRANCH  29  30
ENDBRANCH  17  29
ENDBRANCH   1  17
TORSDOF 12
ENDMDL
MODEL 9
REMARK VINA RESULT:      -7.7      1.682      2.478
REMARK  Name = 
REMARK  12 active torsions:
REMARK  status: ('A' for Active; 'I' for Inactive)
REMARK    1  A    between atoms: C_2  and  C_5
REMARK    2  A    between atoms: N_3  and  O_4
REMARK    3  A    between atoms: C_5  and  C_6
REMARK    4  A    between atoms: C_5  and  O_8
REMARK    5  A    between atoms: C_6  and  O_7
REMARK    6  A    between atoms: O_8  and  C_9
REMARK    7  A    between atoms: C_9  and  C_10
REMARK    8  A    between atoms: C_9  and  C_12
REMARK    9  A    between atoms: C_10  and  O_11
REMARK   10  A    between atoms: C_15  and  C_16
REMARK   11  A    between atoms: C_17  and  C_18
REMARK   12  A    between atoms: C_19  and  C_20
REMARK                            x       y       z     vdW  Elec       q    Type
REMARK                         _______ _______ _______ _____ _____    ______ ____
ROOT
ATOM      1  C   UNL     1       3.343   5.782  18.718  0.00  0.00    +0.000 A 
ATOM      2  C   UNL     1       2.748   5.498  19.958  0.00  0.00    +0.000 A 
ATOM      3  C   UNL     1       1.964   6.458  20.607  0.00  0.00    +0.000 A 
ATOM      4  C   UNL     1       1.766   7.708  20.026  0.00  0.00    +0.000 A 
ATOM      5  C   UNL     1       2.336   8.002  18.792  0.00  0.00    +0.000 A 
ATOM      6  C   UNL     1       3.127   7.050  18.148  0.00  0.00    +0.000 A 
ENDROOT
BRANCH   4   7
ATOM      7  C   UNL     1       1.000   8.701  20.711  0.00  0.00    +0.000 C 
ATOM      8  C   UNL     1       0.337   9.528  21.264  0.00  0.00    +0.000 C 
BRANCH   8   9
ATOM      9  C   UNL     1      -0.516  10.597  21.939  0.00  0.00    +0.000 C 
ATOM     10  C   UNL     1      -1.157  11.446  22.503  0.00  0.00    +0.000 C 
BRANCH  10  11
ATOM     11  C   UNL     1      -1.885  12.449  23.205  0.00  0.00    +0.000 A 
ATOM     12  C   UNL     1      -1.283  13.680  23.467  0.00  0.00    +0.000 A 
ATOM     13  C   UNL     1      -2.003  14.682  24.119  0.00  0.00    +0.000 A 
ATOM     14  C   UNL     1      -3.321  14.449  24.508  0.00  0.00    +0.000 A 
ATOM     15  C   UNL     1      -3.922  13.215  24.250  0.00  0.00    +0.000 A 
ATOM     16  C   UNL     1      -3.202  12.214  23.597  0.00  0.00    +0.000 A 
ENDBRANCH  10  11
ENDBRANCH   8   9
ENDBRANCH   4   7
BRANCH   1  17
ATOM     17  C   UNL     1       4.199   4.757  17.967  0.00  0.00    +0.000 C 
BRANCH  17  18
ATOM     18  O   UNL     1       4.850   5.412  16.863  0.00  0.00    +0.000 OA
BRANCH  18  19
ATOM     19  C   UNL     1       6.278   5.324  16.755  0.00  0.00    +0.000 C 
BRANCH  19  21
ATOM     20  O   UNL     1       7.617   5.367  14.716  0.00  0.00    +0.000 OA
ATOM     21  C   UNL     1       6.774   4.794  15.406  0.00  0.00    +0.000 C 
ATOM     22  N   UNL     1       6.144   3.640  14.986  0.00  0.00    +0.000 N 
ATOM     23  H   UNL     1       5.198   3.452  15.310  0.00  0.00    +0.000 HD
BRANCH  22  24
ATOM     24  O   UNL     1       6.376   3.321  13.620  0.00  0.00    +0.000 OA
ATOM     25  H   UNL     1       6.202   4.174  13.166  0.00  0.00    +0.000 HD
ENDBRANCH  22  24
ENDBRANCH  19  21
BRANCH  19  26
ATOM     26  C   UNL     1       7.012   6.625  17.115  0.00  0.00    +0.000 C 
BRANCH  26  27
ATOM     27  O   UNL     1       7.815   6.466  18.284  0.00  0.00    +0.000 OA
ATOM     28  H   UNL     1       8.687   6.134  18.005  0.00  0.00    +0.000 HD
ENDBRANCH  26  27
ENDBRANCH  19  26
ENDBRANCH  18  19
ENDBRANCH  17  18
BRANCH  17  29
ATOM     29  C   UNL     1       5.195   4.102  18.949  0.00  0.00    +0.000 C 
BRANCH  29  30
ATOM     30  O   UNL     1       5.044   2.682  18.982  0.00  0.00    +0.000 OA
ATOM     31  H   UNL     1       5.217   2.342  18.084  0.00  0.00    +0.000 HD
ENDBRANCH  29  30
ENDBRANCH  17  29
ENDBRANCH   1  17
TORSDOF 12
ENDMDL
