MODEL 1
REMARK VINA RESULT:      -7.7      0.000      0.000
REMARK  Name = 
REMARK  10 active torsions:
REMARK  status: ('A' for Active; 'I' for Inactive)
REMARK    1  A    between atoms: N_3  and  O_4
REMARK    2  A    between atoms: N_3  and  C_5
REMARK    3  A    between atoms: C_5  and  C_6
REMARK    4  A    between atoms: C_6  and  C_7
REMARK    5  A    between atoms: C_6  and  C_13
REMARK    6  A    between atoms: C_7  and  C_8
REMARK    7  A    between atoms: C_19  and  C_20
REMARK    8  A    between atoms: N_25  and  C_26
REMARK    9  A    between atoms: C_26  and  C_27
REMARK   10  A    between atoms: C_27  and  C_28
REMARK                            x       y       z     vdW  Elec       q    Type
REMARK                         _______ _______ _______ _____ _____    ______ ____
ROOT
ATOM      1  C   UNL     1       4.873   3.682  18.889  0.00  0.00    +0.000 C 
ATOM      2  O   UNL     1       5.529   2.967  19.647  0.00  0.00    +0.000 OA
ATOM      3  N   UNL     1       3.498   3.564  18.835  0.00  0.00    +0.000 N 
ATOM      4  C   UNL     1       2.789   2.540  19.588  0.00  0.00    +0.000 C 
ATOM      5  C   UNL     1       1.550   2.269  18.755  0.00  0.00    +0.000 C 
ATOM      6  C   UNL     1       1.216   3.624  18.141  0.00  0.00    +0.000 C 
ATOM      7  C   UNL     1       2.548   4.393  18.084  0.00  0.00    +0.000 C 
ENDROOT
BRANCH   7   8
ATOM      8  C   UNL     1       2.337   5.794  18.698  0.00  0.00    +0.000 C 
ATOM      9  O   UNL     1       2.039   5.933  19.889  0.00  0.00    +0.000 OA
ATOM     10  N   UNL     1       2.597   6.853  17.847  0.00  0.00    +0.000 N 
ATOM     11  C   UNL     1       2.220   8.161  17.999  0.00  0.00    +0.000 C 
ATOM     12  O   UNL     1       2.203   8.910  17.030  0.00  0.00    +0.000 OA
ATOM     13  N   UNL     1       1.882   8.533  19.263  0.00  0.00    +0.000 N 
ATOM     14  H   UNL     1       2.836   6.641  16.888  0.00  0.00    +0.000 HD
ATOM     15  H   UNL     1       1.889   7.809  19.979  0.00  0.00    +0.000 HD
BRANCH  13  16
ATOM     16  C   UNL     1       1.564   9.901  19.606  0.00  0.00    +0.000 C 
BRANCH  16  17
ATOM     17  C   UNL     1       0.073  10.194  19.481  0.00  0.00    +0.000 C 
BRANCH  17  18
ATOM     18  C   UNL     1      -0.488  10.647  20.800  0.00  0.00    +0.000 A 
ATOM     19  C   UNL     1      -0.309   9.877  21.948  0.00  0.00    +0.000 A 
ATOM     20  C   UNL     1      -0.888  10.307  23.138  0.00  0.00    +0.000 A 
ATOM     21  C   UNL     1      -1.628  11.482  23.153  0.00  0.00    +0.000 A 
ATOM     22  C   UNL     1      -1.758  12.186  21.968  0.00  0.00    +0.000 A 
ATOM     23  N   UNL     1      -1.207  11.794  20.797  0.00  0.00    +0.000 NA
ENDBRANCH  17  18
ENDBRANCH  16  17
ENDBRANCH  13  16
ENDBRANCH   7   8
BRANCH   1  24
ATOM     24  C   UNL     1       5.553   4.770  18.052  0.00  0.00    +0.000 C 
BRANCH  24  25
ATOM     25  C   UNL     1       5.933   5.941  18.986  0.00  0.00    +0.000 C 
BRANCH  25  28
ATOM     26  O   UNL     1       8.054   8.408  17.345  0.00  0.00    +0.000 OA
ATOM     27  C   UNL     1       7.096   7.673  17.556  0.00  0.00    +0.000 C 
ATOM     28  N   UNL     1       7.083   6.684  18.494  0.00  0.00    +0.000 N 
BRANCH  28  29
ATOM     29  O   UNL     1       8.248   6.508  19.270  0.00  0.00    +0.000 OA
ATOM     30  H   UNL     1       7.896   6.581  20.183  0.00  0.00    +0.000 HD
ENDBRANCH  28  29
ENDBRANCH  25  28
ENDBRANCH  24  25
BRANCH  24  31
ATOM     31  C   UNL     1       6.697   4.256  17.151  0.00  0.00    +0.000 C 
BRANCH  31  32
ATOM     32  C   UNL     1       6.334   3.881  15.713  0.00  0.00    +0.000 C 
ATOM     33  C   UNL     1       4.960   4.330  15.234  0.00  0.00    +0.000 C 
ATOM     34  C   UNL     1       5.035   4.131  13.724  0.00  0.00    +0.000 C 
ATOM     35  C   UNL     1       6.505   4.331  13.354  0.00  0.00    +0.000 C 
ATOM     36  C   UNL     1       7.241   4.550  14.675  0.00  0.00    +0.000 C 
ENDBRANCH  31  32
ENDBRANCH  24  31
ENDBRANCH   1  24
TORSDOF 10
ENDMDL
MODEL 2
REMARK VINA RESULT:      -7.7      0.734      1.199
REMARK  Name = 
REMARK  10 active torsions:
REMARK  status: ('A' for Active; 'I' for Inactive)
REMARK    1  A    between atoms: N_3  and  O_4
REMARK    2  A    between atoms: N_3  and  C_5
REMARK    3  A    between atoms: C_5  and  C_6
REMARK    4  A    between atoms: C_6  and  C_7
REMARK    5  A    between atoms: C_6  and  C_13
REMARK    6  A    between atoms: C_7  and  C_8
REMARK    7  A    between atoms: C_19  and  C_20
REMARK    8  A    between atoms: N_25  and  C_26
REMARK    9  A    between atoms: C_26  and  C_27
REMARK   10  A    between atoms: C_27  and  C_28
REMARK                            x       y       z     vdW  Elec       q    Type
REMARK                         _______ _______ _______ _____ _____    ______ ____
ROOT
ATOM      1  C   UNL     1       4.658   3.540  19.043  0.00  0.00    +0.000 C 
ATOM      2  O   UNL     1       5.277   2.786  19.796  0.00  0.00    +0.000 OA
ATOM      3  N   UNL     1       3.284   3.452  18.944  0.00  0.00    +0.000 N 
ATOM      4  C   UNL     1       2.532   2.417  19.639  0.00  0.00    +0.000 C 
ATOM      5  C   UNL     1       1.315   2.201  18.761  0.00  0.00    +0.000 C 
ATOM      6  C   UNL     1       1.026   3.583  18.185  0.00  0.00    +0.000 C 
ATOM      7  C   UNL     1       2.374   4.326  18.194  0.00  0.00    +0.000 C 
ENDROOT
BRANCH   7   8
ATOM      8  C   UNL     1       2.171   5.709  18.851  0.00  0.00    +0.000 C 
ATOM      9  O   UNL     1       1.875   5.814  20.045  0.00  0.00    +0.000 OA
ATOM     10  N   UNL     1       2.438   6.792  18.031  0.00  0.00    +0.000 N 
ATOM     11  C   UNL     1       2.069   8.096  18.224  0.00  0.00    +0.000 C 
ATOM     12  O   UNL     1       2.056   8.875  17.277  0.00  0.00    +0.000 OA
ATOM     13  N   UNL     1       1.733   8.432  19.498  0.00  0.00    +0.000 N 
ATOM     14  H   UNL     1       2.675   6.607  17.067  0.00  0.00    +0.000 HD
ATOM     15  H   UNL     1       1.735   7.687  20.192  0.00  0.00    +0.000 HD
BRANCH  13  16
ATOM     16  C   UNL     1       1.423   9.792  19.882  0.00  0.00    +0.000 C 
BRANCH  16  17
ATOM     17  C   UNL     1       1.182   9.925  21.382  0.00  0.00    +0.000 C 
BRANCH  17  18
ATOM     18  C   UNL     1      -0.046  10.750  21.647  0.00  0.00    +0.000 A 
ATOM     19  C   UNL     1      -0.674  11.441  20.612  0.00  0.00    +0.000 A 
ATOM     20  C   UNL     1      -1.778  12.233  20.910  0.00  0.00    +0.000 A 
ATOM     21  C   UNL     1      -2.222  12.320  22.223  0.00  0.00    +0.000 A 
ATOM     22  C   UNL     1      -1.540  11.604  23.191  0.00  0.00    +0.000 A 
ATOM     23  N   UNL     1      -0.466  10.824  22.932  0.00  0.00    +0.000 NA
ENDBRANCH  17  18
ENDBRANCH  16  17
ENDBRANCH  13  16
ENDBRANCH   7   8
BRANCH   1  24
ATOM     24  C   UNL     1       5.386   4.642  18.266  0.00  0.00    +0.000 C 
BRANCH  24  25
ATOM     25  C   UNL     1       5.958   5.660  19.279  0.00  0.00    +0.000 C 
BRANCH  25  28
ATOM     26  O   UNL     1       8.115   8.073  17.604  0.00  0.00    +0.000 OA
ATOM     27  C   UNL     1       7.134   7.377  17.841  0.00  0.00    +0.000 C 
ATOM     28  N   UNL     1       7.118   6.363  18.752  0.00  0.00    +0.000 N 
BRANCH  28  29
ATOM     29  O   UNL     1       8.308   6.112  19.468  0.00  0.00    +0.000 OA
ATOM     30  H   UNL     1       8.835   5.605  18.814  0.00  0.00    +0.000 HD
ENDBRANCH  28  29
ENDBRANCH  25  28
ENDBRANCH  24  25
BRANCH  24  31
ATOM     31  C   UNL     1       6.396   4.121  17.222  0.00  0.00    +0.000 C 
BRANCH  31  32
ATOM     32  C   UNL     1       6.161   4.525  15.765  0.00  0.00    +0.000 C 
ATOM     33  C   UNL     1       7.402   4.914  14.973  0.00  0.00    +0.000 C 
ATOM     34  C   UNL     1       6.908   4.918  13.531  0.00  0.00    +0.000 C 
ATOM     35  C   UNL     1       5.786   3.881  13.476  0.00  0.00    +0.000 C 
ATOM     36  C   UNL     1       5.612   3.379  14.908  0.00  0.00    +0.000 C 
ENDBRANCH  31  32
ENDBRANCH  24  31
ENDBRANCH   1  24
TORSDOF 10
ENDMDL
MODEL 3
REMARK VINA RESULT:      -7.7      0.987      1.263
REMARK  Name = 
REMARK  10 active torsions:
REMARK  status: ('A' for Active; 'I' for Inactive)
REMARK    1  A    between atoms: N_3  and  O_4
REMARK    2  A    between atoms: N_3  and  C_5
REMARK    3  A    between atoms: C_5  and  C_6
REMARK    4  A    between atoms: C_6  and  C_7
REMARK    5  A    between atoms: C_6  and  C_13
REMARK    6  A    between atoms: C_7  and  C_8
REMARK    7  A    between atoms: C_19  and  C_20
REMARK    8  A    between atoms: N_25  and  C_26
REMARK    9  A    between atoms: C_26  and  C_27
REMARK   10  A    between atoms: C_27  and  C_28
REMARK                            x       y       z     vdW  Elec       q    Type
REMARK                         _______ _______ _______ _____ _____    ______ ____
ROOT
ATOM      1  C   UNL     1       5.055   4.277  18.588  0.00  0.00    +0.000 C 
ATOM      2  O   UNL     1       5.755   3.515  19.255  0.00  0.00    +0.000 OA
ATOM      3  N   UNL     1       3.696   4.057  18.476  0.00  0.00    +0.000 N 
ATOM      4  C   UNL     1       3.063   2.879  19.051  0.00  0.00    +0.000 C 
ATOM      5  C   UNL     1       1.868   2.634  18.151  0.00  0.00    +0.000 C 
ATOM      6  C   UNL     1       1.431   4.033  17.729  0.00  0.00    +0.000 C 
ATOM      7  C   UNL     1       2.693   4.907  17.824  0.00  0.00    +0.000 C 
ENDROOT
BRANCH   7   8
ATOM      8  C   UNL     1       2.352   6.181  18.627  0.00  0.00    +0.000 C 
ATOM      9  O   UNL     1       2.076   6.125  19.829  0.00  0.00    +0.000 OA
ATOM     10  N   UNL     1       2.475   7.367  17.925  0.00  0.00    +0.000 N 
ATOM     11  C   UNL     1       1.966   8.594  18.261  0.00  0.00    +0.000 C 
ATOM     12  O   UNL     1       1.842   9.461  17.403  0.00  0.00    +0.000 OA
ATOM     13  N   UNL     1       1.626   8.753  19.568  0.00  0.00    +0.000 N 
ATOM     14  H   UNL     1       2.708   7.314  16.944  0.00  0.00    +0.000 HD
ATOM     15  H   UNL     1       1.730   7.945  20.178  0.00  0.00    +0.000 HD
BRANCH  13  16
ATOM     16  C   UNL     1       1.175  10.020  20.100  0.00  0.00    +0.000 C 
BRANCH  16  17
ATOM     17  C   UNL     1       0.842   9.935  21.585  0.00  0.00    +0.000 C 
BRANCH  17  18
ATOM     18  C   UNL     1      -0.145  11.003  21.966  0.00  0.00    +0.000 A 
ATOM     19  C   UNL     1      -0.045  12.286  21.429  0.00  0.00    +0.000 A 
ATOM     20  C   UNL     1      -0.948  13.258  21.848  0.00  0.00    +0.000 A 
ATOM     21  C   UNL     1      -1.918  12.931  22.785  0.00  0.00    +0.000 A 
ATOM     22  C   UNL     1      -1.947  11.634  23.270  0.00  0.00    +0.000 A 
ATOM     23  N   UNL     1      -1.084  10.668  22.882  0.00  0.00    +0.000 NA
ENDBRANCH  17  18
ENDBRANCH  16  17
ENDBRANCH  13  16
ENDBRANCH   7   8
BRANCH   1  24
ATOM     24  C   UNL     1       5.656   5.528  17.939  0.00  0.00    +0.000 C 
BRANCH  24  25
ATOM     25  C   UNL     1       7.175   5.545  18.221  0.00  0.00    +0.000 C 
BRANCH  25  28
ATOM     26  O   UNL     1       7.643   9.112  17.641  0.00  0.00    +0.000 OA
ATOM     27  C   UNL     1       7.286   7.954  17.457  0.00  0.00    +0.000 C 
ATOM     28  N   UNL     1       7.722   6.893  18.195  0.00  0.00    +0.000 N 
BRANCH  28  29
ATOM     29  O   UNL     1       8.635   7.157  19.239  0.00  0.00    +0.000 OA
ATOM     30  H   UNL     1       8.766   8.126  19.153  0.00  0.00    +0.000 HD
ENDBRANCH  28  29
ENDBRANCH  25  28
ENDBRANCH  24  25
BRANCH  24  31
ATOM     31  C   UNL     1       5.264   5.725  16.458  0.00  0.00    +0.000 C 
BRANCH  31  32
ATOM     32  C   UNL     1       5.914   4.788  15.437  0.00  0.00    +0.000 C 
ATOM     33  C   UNL     1       5.001   4.272  14.333  0.00  0.00    +0.000 C 
ATOM     34  C   UNL     1       5.978   3.682  13.321  0.00  0.00    +0.000 C 
ATOM     35  C   UNL     1       7.263   4.497  13.466  0.00  0.00    +0.000 C 
ATOM     36  C   UNL     1       7.013   5.470  14.616  0.00  0.00    +0.000 C 
ENDBRANCH  31  32
ENDBRANCH  24  31
ENDBRANCH   1  24
TORSDOF 10
ENDMDL
MODEL 4
REMARK VINA RESULT:      -7.5      1.298      1.930
REMARK  Name = 
REMARK  10 active torsions:
REMARK  status: ('A' for Active; 'I' for Inactive)
REMARK    1  A    between atoms: N_3  and  O_4
REMARK    2  A    between atoms: N_3  and  C_5
REMARK    3  A    between atoms: C_5  and  C_6
REMARK    4  A    between atoms: C_6  and  C_7
REMARK    5  A    between atoms: C_6  and  C_13
REMARK    6  A    between atoms: C_7  and  C_8
REMARK    7  A    between atoms: C_19  and  C_20
REMARK    8  A    between atoms: N_25  and  C_26
REMARK    9  A    between atoms: C_26  and  C_27
REMARK   10  A    between atoms: C_27  and  C_28
REMARK                            x       y       z     vdW  Elec       q    Type
REMARK                         _______ _______ _______ _____ _____    ______ ____
ROOT
ATOM      1  C   UNL     1       4.511   3.269  19.095  0.00  0.00    +0.000 C 
ATOM      2  O   UNL     1       5.139   2.420  19.727  0.00  0.00    +0.000 OA
ATOM      3  N   UNL     1       3.133   3.208  19.022  0.00  0.00    +0.000 N 
ATOM      4  C   UNL     1       2.387   2.099  19.599  0.00  0.00    +0.000 C 
ATOM      5  C   UNL     1       1.144   2.009  18.733  0.00  0.00    +0.000 C 
ATOM      6  C   UNL     1       0.859   3.457  18.348  0.00  0.00    +0.000 C 
ATOM      7  C   UNL     1       2.215   4.179  18.416  0.00  0.00    +0.000 C 
ENDROOT
BRANCH   7   8
ATOM      8  C   UNL     1       2.047   5.468  19.250  0.00  0.00    +0.000 C 
ATOM      9  O   UNL     1       1.722   5.423  20.440  0.00  0.00    +0.000 OA
ATOM     10  N   UNL     1       2.376   6.640  18.591  0.00  0.00    +0.000 N 
ATOM     11  C   UNL     1       2.051   7.921  18.951  0.00  0.00    +0.000 C 
ATOM     12  O   UNL     1       2.094   8.820  18.119  0.00  0.00    +0.000 OA
ATOM     13  N   UNL     1       1.694   8.095  20.251  0.00  0.00    +0.000 N 
ATOM     14  H   UNL     1       2.633   6.577  17.616  0.00  0.00    +0.000 HD
ATOM     15  H   UNL     1       1.650   7.264  20.838  0.00  0.00    +0.000 HD
BRANCH  13  16
ATOM     16  C   UNL     1       1.426   9.401  20.810  0.00  0.00    +0.000 C 
BRANCH  16  17
ATOM     17  C   UNL     1      -0.057   9.752  20.767  0.00  0.00    +0.000 C 
BRANCH  17  18
ATOM     18  C   UNL     1      -0.295  10.929  19.862  0.00  0.00    +0.000 A 
ATOM     19  C   UNL     1      -1.360  10.929  18.964  0.00  0.00    +0.000 A 
ATOM     20  C   UNL     1      -1.514  12.016  18.109  0.00  0.00    +0.000 A 
ATOM     21  C   UNL     1      -0.606  13.065  18.168  0.00  0.00    +0.000 A 
ATOM     22  C   UNL     1       0.425  12.985  19.088  0.00  0.00    +0.000 A 
ATOM     23  N   UNL     1       0.599  11.943  19.932  0.00  0.00    +0.000 NA
ENDBRANCH  17  18
ENDBRANCH  16  17
ENDBRANCH  13  16
ENDBRANCH   7   8
BRANCH   1  24
ATOM     24  C   UNL     1       5.232   4.456  18.446  0.00  0.00    +0.000 C 
BRANCH  24  25
ATOM     25  C   UNL     1       5.683   5.425  19.562  0.00  0.00    +0.000 C 
BRANCH  25  28
ATOM     26  O   UNL     1       8.560   7.412  18.535  0.00  0.00    +0.000 OA
ATOM     27  C   UNL     1       7.446   6.901  18.508  0.00  0.00    +0.000 C 
ATOM     28  N   UNL     1       7.038   5.910  19.350  0.00  0.00    +0.000 N 
BRANCH  28  29
ATOM     29  O   UNL     1       7.962   5.457  20.317  0.00  0.00    +0.000 OA
ATOM     30  H   UNL     1       8.037   6.237  20.907  0.00  0.00    +0.000 HD
ENDBRANCH  28  29
ENDBRANCH  25  28
ENDBRANCH  24  25
BRANCH  24  31
ATOM     31  C   UNL     1       6.334   4.056  17.442  0.00  0.00    +0.000 C 
BRANCH  31  32
ATOM     32  C   UNL     1       6.144   4.496  15.989  0.00  0.00    +0.000 C 
ATOM     33  C   UNL     1       7.402   4.952  15.261  0.00  0.00    +0.000 C 
ATOM     34  C   UNL     1       6.967   4.982  13.800  0.00  0.00    +0.000 C 
ATOM     35  C   UNL     1       5.886   3.909  13.669  0.00  0.00    +0.000 C 
ATOM     36  C   UNL     1       5.672   3.359  15.077  0.00  0.00    +0.000 C 
ENDBRANCH  31  32
ENDBRANCH  24  31
ENDBRANCH   1  24
TORSDOF 10
ENDMDL
MODEL 5
REMARK VINA RESULT:      -7.5      0.959      1.262
REMARK  Name = 
REMARK  10 active torsions:
REMARK  status: ('A' for Active; 'I' for Inactive)
REMARK    1  A    between atoms: N_3  and  O_4
REMARK    2  A    between atoms: N_3  and  C_5
REMARK    3  A    between atoms: C_5  and  C_6
REMARK    4  A    between atoms: C_6  and  C_7
REMARK    5  A    between atoms: C_6  and  C_13
REMARK    6  A    between atoms: C_7  and  C_8
REMARK    7  A    between atoms: C_19  and  C_20
REMARK    8  A    between atoms: N_25  and  C_26
REMARK    9  A    between atoms: C_26  and  C_27
REMARK   10  A    between atoms: C_27  and  C_28
REMARK                            x       y       z     vdW  Elec       q    Type
REMARK                         _______ _______ _______ _____ _____    ______ ____
ROOT
ATOM      1  C   UNL     1       5.086   4.219  18.308  0.00  0.00    +0.000 C 
ATOM      2  O   UNL     1       5.909   3.523  18.902  0.00  0.00    +0.000 OA
ATOM      3  N   UNL     1       3.738   3.935  18.398  0.00  0.00    +0.000 N 
ATOM      4  C   UNL     1       3.250   2.763  19.110  0.00  0.00    +0.000 C 
ATOM      5  C   UNL     1       1.954   2.420  18.399  0.00  0.00    +0.000 C 
ATOM      6  C   UNL     1       1.394   3.775  17.981  0.00  0.00    +0.000 C 
ATOM      7  C   UNL     1       2.612   4.707  17.857  0.00  0.00    +0.000 C 
ENDROOT
BRANCH   7   8
ATOM      8  C   UNL     1       2.324   6.004  18.642  0.00  0.00    +0.000 C 
ATOM      9  O   UNL     1       2.068   5.979  19.850  0.00  0.00    +0.000 OA
ATOM     10  N   UNL     1       2.468   7.173  17.916  0.00  0.00    +0.000 N 
ATOM     11  C   UNL     1       2.001   8.420  18.237  0.00  0.00    +0.000 C 
ATOM     12  O   UNL     1       1.887   9.275  17.366  0.00  0.00    +0.000 OA
ATOM     13  N   UNL     1       1.691   8.614  19.547  0.00  0.00    +0.000 N 
ATOM     14  H   UNL     1       2.681   7.095  16.932  0.00  0.00    +0.000 HD
ATOM     15  H   UNL     1       1.782   7.814  20.170  0.00  0.00    +0.000 HD
BRANCH  13  16
ATOM     16  C   UNL     1       1.287   9.903  20.063  0.00  0.00    +0.000 C 
BRANCH  16  17
ATOM     17  C   UNL     1       0.740   9.808  21.483  0.00  0.00    +0.000 C 
BRANCH  17  18
ATOM     18  C   UNL     1      -0.392  10.779  21.678  0.00  0.00    +0.000 A 
ATOM     19  C   UNL     1      -0.950  10.975  22.940  0.00  0.00    +0.000 A 
ATOM     20  C   UNL     1      -2.028  11.844  23.067  0.00  0.00    +0.000 A 
ATOM     21  C   UNL     1      -2.522  12.489  21.941  0.00  0.00    +0.000 A 
ATOM     22  C   UNL     1      -1.911  12.238  20.725  0.00  0.00    +0.000 A 
ATOM     23  N   UNL     1      -0.861  11.400  20.570  0.00  0.00    +0.000 NA
ENDBRANCH  17  18
ENDBRANCH  16  17
ENDBRANCH  13  16
ENDBRANCH   7   8
BRANCH   1  24
ATOM     24  C   UNL     1       5.528   5.459  17.523  0.00  0.00    +0.000 C 
BRANCH  24  25
ATOM     25  C   UNL     1       7.043   5.667  17.749  0.00  0.00    +0.000 C 
BRANCH  25  28
ATOM     26  O   UNL     1       8.718   8.790  18.597  0.00  0.00    +0.000 OA
ATOM     27  C   UNL     1       8.315   7.636  18.697  0.00  0.00    +0.000 C 
ATOM     28  N   UNL     1       7.390   7.075  17.869  0.00  0.00    +0.000 N 
BRANCH  28  29
ATOM     29  O   UNL     1       6.876   7.878  16.828  0.00  0.00    +0.000 OA
ATOM     30  H   UNL     1       5.985   7.489  16.694  0.00  0.00    +0.000 HD
ENDBRANCH  28  29
ENDBRANCH  25  28
ENDBRANCH  24  25
BRANCH  24  31
ATOM     31  C   UNL     1       5.079   5.469  16.046  0.00  0.00    +0.000 C 
BRANCH  31  32
ATOM     32  C   UNL     1       5.896   4.626  15.066  0.00  0.00    +0.000 C 
ATOM     33  C   UNL     1       5.132   4.059  13.877  0.00  0.00    +0.000 C 
ATOM     34  C   UNL     1       6.240   3.592  12.941  0.00  0.00    +0.000 C 
ATOM     35  C   UNL     1       7.427   4.517  13.211  0.00  0.00    +0.000 C 
ATOM     36  C   UNL     1       6.991   5.430  14.356  0.00  0.00    +0.000 C 
ENDBRANCH  31  32
ENDBRANCH  24  31
ENDBRANCH   1  24
TORSDOF 10
ENDMDL
MODEL 6
REMARK VINA RESULT:      -7.4      1.748      2.411
REMARK  Name = 
REMARK  10 active torsions:
REMARK  status: ('A' for Active; 'I' for Inactive)
REMARK    1  A    between atoms: N_3  and  O_4
REMARK    2  A    between atoms: N_3  and  C_5
REMARK    3  A    between atoms: C_5  and  C_6
REMARK    4  A    between atoms: C_6  and  C_7
REMARK    5  A    between atoms: C_6  and  C_13
REMARK    6  A    between atoms: C_7  and  C_8
REMARK    7  A    between atoms: C_19  and  C_20
REMARK    8  A    between atoms: N_25  and  C_26
REMARK    9  A    between atoms: C_26  and  C_27
REMARK   10  A    between atoms: C_27  and  C_28
REMARK                            x       y       z     vdW  Elec       q    Type
REMARK                         _______ _______ _______ _____ _____    ______ ____
ROOT
ATOM      1  C   UNL     1       5.749   4.499  17.966  0.00  0.00    +0.000 C 
ATOM      2  O   UNL     1       6.723   4.179  18.648  0.00  0.00    +0.000 OA
ATOM      3  N   UNL     1       4.510   3.945  18.218  0.00  0.00    +0.000 N 
ATOM      4  C   UNL     1       4.326   2.905  19.220  0.00  0.00    +0.000 C 
ATOM      5  C   UNL     1       3.141   2.111  18.705  0.00  0.00    +0.000 C 
ATOM      6  C   UNL     1       2.267   3.155  18.019  0.00  0.00    +0.000 C 
ATOM      7  C   UNL     1       3.225   4.280  17.591  0.00  0.00    +0.000 C 
ENDROOT
BRANCH   7   8
ATOM      8  C   UNL     1       2.644   5.630  18.065  0.00  0.00    +0.000 C 
ATOM      9  O   UNL     1       2.592   6.605  17.309  0.00  0.00    +0.000 OA
ATOM     10  N   UNL     1       2.115   5.624  19.343  0.00  0.00    +0.000 N 
ATOM     11  C   UNL     1       1.816   6.705  20.129  0.00  0.00    +0.000 C 
ATOM     12  O   UNL     1       1.691   6.565  21.341  0.00  0.00    +0.000 OA
ATOM     13  N   UNL     1       1.678   7.889  19.476  0.00  0.00    +0.000 N 
ATOM     14  H   UNL     1       2.202   4.777  19.887  0.00  0.00    +0.000 HD
ATOM     15  H   UNL     1       1.852   7.891  18.472  0.00  0.00    +0.000 HD
BRANCH  13  16
ATOM     16  C   UNL     1       1.261   9.099  20.149  0.00  0.00    +0.000 C 
BRANCH  16  17
ATOM     17  C   UNL     1       1.165  10.284  19.194  0.00  0.00    +0.000 C 
BRANCH  17  18
ATOM     18  C   UNL     1      -0.269  10.549  18.826  0.00  0.00    +0.000 A 
ATOM     19  C   UNL     1      -0.857   9.892  17.747  0.00  0.00    +0.000 A 
ATOM     20  C   UNL     1      -2.170  10.204  17.409  0.00  0.00    +0.000 A 
ATOM     21  C   UNL     1      -2.857  11.158  18.148  0.00  0.00    +0.000 A 
ATOM     22  C   UNL     1      -2.199  11.765  19.203  0.00  0.00    +0.000 A 
ATOM     23  N   UNL     1      -0.925  11.482  19.556  0.00  0.00    +0.000 NA
ENDBRANCH  17  18
ENDBRANCH  16  17
ENDBRANCH  13  16
ENDBRANCH   7   8
BRANCH   1  24
ATOM     24  C   UNL     1       5.871   5.574  16.881  0.00  0.00    +0.000 C 
BRANCH  24  25
ATOM     25  C   UNL     1       5.868   6.961  17.564  0.00  0.00    +0.000 C 
BRANCH  25  28
ATOM     26  O   UNL     1       8.786   9.096  18.023  0.00  0.00    +0.000 OA
ATOM     27  C   UNL     1       7.720   8.684  17.578  0.00  0.00    +0.000 C 
ATOM     28  N   UNL     1       7.215   7.443  17.829  0.00  0.00    +0.000 N 
BRANCH  28  29
ATOM     29  O   UNL     1       7.972   6.588  18.659  0.00  0.00    +0.000 OA
ATOM     30  H   UNL     1       8.068   7.128  19.472  0.00  0.00    +0.000 HD
ENDBRANCH  28  29
ENDBRANCH  25  28
ENDBRANCH  24  25
BRANCH  24  31
ATOM     31  C   UNL     1       7.023   5.340  15.882  0.00  0.00    +0.000 C 
BRANCH  31  32
ATOM     32  C   UNL     1       6.638   5.076  14.425  0.00  0.00    +0.000 C 
ATOM     33  C   UNL     1       7.786   5.062  13.424  0.00  0.00    +0.000 C 
ATOM     34  C   UNL     1       7.155   4.448  12.179  0.00  0.00    +0.000 C 
ATOM     35  C   UNL     1       6.062   3.510  12.690  0.00  0.00    +0.000 C 
ATOM     36  C   UNL     1       6.041   3.682  14.208  0.00  0.00    +0.000 C 
ENDBRANCH  31  32
ENDBRANCH  24  31
ENDBRANCH   1  24
TORSDOF 10
ENDMDL
MODEL 7
REMARK VINA RESULT:      -7.3      1.132      1.469
REMARK  Name = 
REMARK  10 active torsions:
REMARK  status: ('A' for Active; 'I' for Inactive)
REMARK    1  A    between atoms: N_3  and  O_4
REMARK    2  A    between atoms: N_3  and  C_5
REMARK    3  A    between atoms: C_5  and  C_6
REMARK    4  A    between atoms: C_6  and  C_7
REMARK    5  A    between atoms: C_6  and  C_13
REMARK    6  A    between atoms: C_7  and  C_8
REMARK    7  A    between atoms: C_19  and  C_20
REMARK    8  A    between atoms: N_25  and  C_26
REMARK    9  A    between atoms: C_26  and  C_27
REMARK   10  A    between atoms: C_27  and  C_28
REMARK                            x       y       z     vdW  Elec       q    Type
REMARK                         _______ _______ _______ _____ _____    ______ ____
ROOT
ATOM      1  C   UNL     1       5.945   4.691  18.138  0.00  0.00    +0.000 C 
ATOM      2  O   UNL     1       6.958   4.303  18.722  0.00  0.00    +0.000 OA
ATOM      3  N   UNL     1       4.727   4.088  18.380  0.00  0.00    +0.000 N 
ATOM      4  C   UNL     1       4.609   2.924  19.246  0.00  0.00    +0.000 C 
ATOM      5  C   UNL     1       3.407   2.181  18.695  0.00  0.00    +0.000 C 
ATOM      6  C   UNL     1       2.487   3.289  18.196  0.00  0.00    +0.000 C 
ATOM      7  C   UNL     1       3.407   4.478  17.869  0.00  0.00    +0.000 C 
ENDROOT
BRANCH   7   8
ATOM      8  C   UNL     1       2.838   5.744  18.544  0.00  0.00    +0.000 C 
ATOM      9  O   UNL     1       2.409   5.715  19.702  0.00  0.00    +0.000 OA
ATOM     10  N   UNL     1       2.938   6.903  17.795  0.00  0.00    +0.000 N 
ATOM     11  C   UNL     1       2.270   8.084  17.988  0.00  0.00    +0.000 C 
ATOM     12  O   UNL     1       2.179   8.892  17.071  0.00  0.00    +0.000 OA
ATOM     13  N   UNL     1       1.744   8.267  19.228  0.00  0.00    +0.000 N 
ATOM     14  H   UNL     1       3.305   6.829  16.857  0.00  0.00    +0.000 HD
ATOM     15  H   UNL     1       1.842   7.503  19.893  0.00  0.00    +0.000 HD
BRANCH  13  16
ATOM     16  C   UNL     1       1.103   9.502  19.620  0.00  0.00    +0.000 C 
BRANCH  16  17
ATOM     17  C   UNL     1       0.872   9.578  21.125  0.00  0.00    +0.000 C 
BRANCH  17  18
ATOM     18  C   UNL     1       0.032  10.777  21.470  0.00  0.00    +0.000 A 
ATOM     19  C   UNL     1      -0.220  11.764  20.519  0.00  0.00    +0.000 A 
ATOM     20  C   UNL     1      -0.958  12.882  20.894  0.00  0.00    +0.000 A 
ATOM     21  C   UNL     1      -1.421  12.987  22.199  0.00  0.00    +0.000 A 
ATOM     22  C   UNL     1      -1.125  11.963  23.082  0.00  0.00    +0.000 A 
ATOM     23  N   UNL     1      -0.411  10.865  22.747  0.00  0.00    +0.000 NA
ENDBRANCH  17  18
ENDBRANCH  16  17
ENDBRANCH  13  16
ENDBRANCH   7   8
BRANCH   1  24
ATOM     24  C   UNL     1       5.997   5.899  17.198  0.00  0.00    +0.000 C 
BRANCH  24  25
ATOM     25  C   UNL     1       6.103   7.182  18.054  0.00  0.00    +0.000 C 
BRANCH  25  28
ATOM     26  O   UNL     1       8.960   9.442  17.948  0.00  0.00    +0.000 OA
ATOM     27  C   UNL     1       7.849   8.980  17.711  0.00  0.00    +0.000 C 
ATOM     28  N   UNL     1       7.454   7.724  18.063  0.00  0.00    +0.000 N 
BRANCH  28  29
ATOM     29  O   UNL     1       8.385   6.916  18.750  0.00  0.00    +0.000 OA
ATOM     30  H   UNL     1       8.580   7.461  19.542  0.00  0.00    +0.000 HD
ENDBRANCH  28  29
ENDBRANCH  25  28
ENDBRANCH  24  25
BRANCH  24  31
ATOM     31  C   UNL     1       7.041   5.780  16.067  0.00  0.00    +0.000 C 
BRANCH  31  32
ATOM     32  C   UNL     1       6.784   4.721  14.993  0.00  0.00    +0.000 C 
ATOM     33  C   UNL     1       5.338   4.569  14.540  0.00  0.00    +0.000 C 
ATOM     34  C   UNL     1       5.457   3.732  13.271  0.00  0.00    +0.000 C 
ATOM     35  C   UNL     1       6.820   4.081  12.673  0.00  0.00    +0.000 C 
ATOM     36  C   UNL     1       7.477   5.039  13.664  0.00  0.00    +0.000 C 
ENDBRANCH  31  32
ENDBRANCH  24  31
ENDBRANCH   1  24
TORSDOF 10
ENDMDL
MODEL 8
REMARK VINA RESULT:      -7.3      0.998      1.342
REMARK  Name = 
REMARK  10 active torsions:
REMARK  status: ('A' for Active; 'I' for Inactive)
REMARK    1  A    between atoms: N_3  and  O_4
REMARK    2  A    between atoms: N_3  and  C_5
REMARK    3  A    between atoms: C_5  and  C_6
REMARK    4  A    between atoms: C_6  and  C_7
REMARK    5  A    between atoms: C_6  and  C_13
REMARK    6  A    between atoms: C_7  and  C_8
REMARK    7  A    between atoms: C_19  and  C_20
REMARK    8  A    between atoms: N_25  and  C_26
REMARK    9  A    between atoms: C_26  and  C_27
REMARK   10  A    between atoms: C_27  and  C_28
REMARK                            x       y       z     vdW  Elec       q    Type
REMARK                         _______ _______ _______ _____ _____    ______ ____
ROOT
ATOM      1  C   UNL     1       5.354   4.382  18.050  0.00  0.00    +0.000 C 
ATOM      2  O   UNL     1       6.243   3.741  18.611  0.00  0.00    +0.000 OA
ATOM      3  N   UNL     1       4.033   4.005  18.184  0.00  0.00    +0.000 N 
ATOM      4  C   UNL     1       3.651   2.798  18.902  0.00  0.00    +0.000 C 
ATOM      5  C   UNL     1       2.359   2.371  18.234  0.00  0.00    +0.000 C 
ATOM      6  C   UNL     1       1.693   3.686  17.845  0.00  0.00    +0.000 C 
ATOM      7  C   UNL     1       2.839   4.700  17.687  0.00  0.00    +0.000 C 
ENDROOT
BRANCH   7   8
ATOM      8  C   UNL     1       2.489   5.970  18.492  0.00  0.00    +0.000 C 
ATOM      9  O   UNL     1       2.263   5.918  19.705  0.00  0.00    +0.000 OA
ATOM     10  N   UNL     1       2.543   7.153  17.775  0.00  0.00    +0.000 N 
ATOM     11  C   UNL     1       2.008   8.365  18.120  0.00  0.00    +0.000 C 
ATOM     12  O   UNL     1       1.820   9.219  17.260  0.00  0.00    +0.000 OA
ATOM     13  N   UNL     1       1.717   8.527  19.438  0.00  0.00    +0.000 N 
ATOM     14  H   UNL     1       2.738   7.096  16.786  0.00  0.00    +0.000 HD
ATOM     15  H   UNL     1       1.872   7.729  20.051  0.00  0.00    +0.000 HD
BRANCH  13  16
ATOM     16  C   UNL     1       1.246   9.784  19.977  0.00  0.00    +0.000 C 
BRANCH  16  17
ATOM     17  C   UNL     1       0.261   9.586  21.124  0.00  0.00    +0.000 C 
BRANCH  17  18
ATOM     18  C   UNL     1      -0.105  10.908  21.739  0.00  0.00    +0.000 A 
ATOM     19  C   UNL     1      -1.066  10.981  22.745  0.00  0.00    +0.000 A 
ATOM     20  C   UNL     1      -1.412  12.230  23.251  0.00  0.00    +0.000 A 
ATOM     21  C   UNL     1      -0.796  13.367  22.743  0.00  0.00    +0.000 A 
ATOM     22  C   UNL     1       0.147  13.207  21.743  0.00  0.00    +0.000 A 
ATOM     23  N   UNL     1       0.504  12.007  21.232  0.00  0.00    +0.000 NA
ENDBRANCH  17  18
ENDBRANCH  16  17
ENDBRANCH  13  16
ENDBRANCH   7   8
BRANCH   1  24
ATOM     24  C   UNL     1       5.682   5.654  17.261  0.00  0.00    +0.000 C 
BRANCH  24  25
ATOM     25  C   UNL     1       5.917   6.805  18.266  0.00  0.00    +0.000 C 
BRANCH  25  28
ATOM     26  O   UNL     1       8.806   8.986  17.838  0.00  0.00    +0.000 OA
ATOM     27  C   UNL     1       7.688   8.511  17.670  0.00  0.00    +0.000 C 
ATOM     28  N   UNL     1       7.276   7.323  18.196  0.00  0.00    +0.000 N 
BRANCH  28  29
ATOM     29  O   UNL     1       8.198   6.607  18.990  0.00  0.00    +0.000 OA
ATOM     30  H   UNL     1       9.057   6.915  18.629  0.00  0.00    +0.000 HD
ENDBRANCH  28  29
ENDBRANCH  25  28
ENDBRANCH  24  25
BRANCH  24  31
ATOM     31  C   UNL     1       6.790   5.475  16.201  0.00  0.00    +0.000 C 
BRANCH  31  32
ATOM     32  C   UNL     1       6.340   5.159  14.773  0.00  0.00    +0.000 C 
ATOM     33  C   UNL     1       7.425   4.655  13.830  0.00  0.00    +0.000 C 
ATOM     34  C   UNL     1       6.632   4.113  12.646  0.00  0.00    +0.000 C 
ATOM     35  C   UNL     1       5.298   3.640  13.223  0.00  0.00    +0.000 C 
ATOM     36  C   UNL     1       5.333   4.006  14.706  0.00  0.00    +0.000 C 
ENDBRANCH  31  32
ENDBRANCH  24  31
ENDBRANCH   1  24
TORSDOF 10
ENDMDL
MODEL 9
REMARK VINA RESULT:      -7.3      1.424      1.812
REMARK  Name = 
REMARK  10 active torsions:
REMARK  status: ('A' for Active; 'I' for Inactive)
REMARK    1  A    between atoms: N_3  and  O_4
REMARK    2  A    between atoms: N_3  and  C_5
REMARK    3  A    between atoms: C_5  and  C_6
REMARK    4  A    between atoms: C_6  and  C_7
REMARK    5  A    between atoms: C_6  and  C_13
REMARK    6  A    between atoms: C_7  and  C_8
REMARK    7  A    between atoms: C_19  and  C_20
REMARK    8  A    between atoms: N_25  and  C_26
REMARK    9  A    between atoms: C_26  and  C_27
REMARK   10  A    between atoms: C_27  and  C_28
REMARK                            x       y       z     vdW  Elec       q    Type
REMARK                         _______ _______ _______ _____ _____    ______ ____
ROOT
ATOM      1  C   UNL     1       4.773   3.744  18.847  0.00  0.00    +0.000 C 
ATOM      2  O   UNL     1       5.417   2.992  19.578  0.00  0.00    +0.000 OA
ATOM      3  N   UNL     1       3.400   3.623  18.758  0.00  0.00    +0.000 N 
ATOM      4  C   UNL     1       2.682   2.556  19.439  0.00  0.00    +0.000 C 
ATOM      5  C   UNL     1       1.462   2.326  18.568  0.00  0.00    +0.000 C 
ATOM      6  C   UNL     1       1.133   3.712  18.022  0.00  0.00    +0.000 C 
ATOM      7  C   UNL     1       2.461   4.488  18.034  0.00  0.00    +0.000 C 
ENDROOT
BRANCH   7   8
ATOM      8  C   UNL     1       2.230   5.852  18.720  0.00  0.00    +0.000 C 
ATOM      9  O   UNL     1       1.889   5.924  19.905  0.00  0.00    +0.000 OA
ATOM     10  N   UNL     1       2.522   6.957  17.940  0.00  0.00    +0.000 N 
ATOM     11  C   UNL     1       2.142   8.255  18.153  0.00  0.00    +0.000 C 
ATOM     12  O   UNL     1       2.161   9.059  17.228  0.00  0.00    +0.000 OA
ATOM     13  N   UNL     1       1.759   8.556  19.423  0.00  0.00    +0.000 N 
ATOM     14  H   UNL     1       2.796   6.799  16.980  0.00  0.00    +0.000 HD
ATOM     15  H   UNL     1       1.739   7.793  20.097  0.00  0.00    +0.000 HD
BRANCH  13  16
ATOM     16  C   UNL     1       1.431   9.904  19.833  0.00  0.00    +0.000 C 
BRANCH  16  17
ATOM     17  C   UNL     1       1.022  10.780  18.654  0.00  0.00    +0.000 C 
BRANCH  17  18
ATOM     18  C   UNL     1      -0.475  10.913  18.591  0.00  0.00    +0.000 A 
ATOM     19  C   UNL     1      -1.225  10.098  17.744  0.00  0.00    +0.000 A 
ATOM     20  C   UNL     1      -2.601  10.289  17.679  0.00  0.00    +0.000 A 
ATOM     21  C   UNL     1      -3.190  11.282  18.450  0.00  0.00    +0.000 A 
ATOM     22  C   UNL     1      -2.373  12.048  19.263  0.00  0.00    +0.000 A 
ATOM     23  N   UNL     1      -1.034  11.886  19.349  0.00  0.00    +0.000 NA
ENDBRANCH  17  18
ENDBRANCH  16  17
ENDBRANCH  13  16
ENDBRANCH   7   8
BRANCH   1  24
ATOM     24  C   UNL     1       5.464   4.879  18.084  0.00  0.00    +0.000 C 
BRANCH  24  25
ATOM     25  C   UNL     1       6.994   4.707  18.231  0.00  0.00    +0.000 C 
BRANCH  25  28
ATOM     26  O   UNL     1       8.061   8.191  18.237  0.00  0.00    +0.000 OA
ATOM     27  C   UNL     1       7.676   7.107  17.815  0.00  0.00    +0.000 C 
ATOM     28  N   UNL     1       7.657   5.961  18.553  0.00  0.00    +0.000 N 
BRANCH  28  29
ATOM     29  O   UNL     1       8.104   6.041  19.890  0.00  0.00    +0.000 OA
ATOM     30  H   UNL     1       8.465   5.141  20.037  0.00  0.00    +0.000 HD
ENDBRANCH  28  29
ENDBRANCH  25  28
ENDBRANCH  24  25
BRANCH  24  31
ATOM     31  C   UNL     1       4.964   5.068  16.637  0.00  0.00    +0.000 C 
BRANCH  31  32
ATOM     32  C   UNL     1       5.810   4.451  15.522  0.00  0.00    +0.000 C 
ATOM     33  C   UNL     1       5.046   3.954  14.302  0.00  0.00    +0.000 C 
ATOM     34  C   UNL     1       6.144   3.733  13.268  0.00  0.00    +0.000 C 
ATOM     35  C   UNL     1       7.238   4.745  13.607  0.00  0.00    +0.000 C 
ATOM     36  C   UNL     1       6.773   5.454  14.877  0.00  0.00    +0.000 C 
ENDBRANCH  31  32
ENDBRANCH  24  31
ENDBRANCH   1  24
TORSDOF 10
ENDMDL
