MODEL 1
REMARK VINA RESULT:      -8.9      0.000      0.000
REMARK  Name = 
REMARK  10 active torsions:
REMARK  status: ('A' for Active; 'I' for Inactive)
REMARK    1  A    between atoms: C_1  and  C_2
REMARK    2  A    between atoms: N_4  and  C_5
REMARK    3  A    between atoms: C_5  and  C_6
REMARK    4  A    between atoms: C_5  and  C_7
REMARK    5  A    between atoms: C_7  and  C_8
REMARK    6  A    between atoms: C_11  and  C_12
REMARK    7  A    between atoms: C_13  and  C_14
REMARK    8  A    between atoms: N_18  and  C_19
REMARK    9  A    between atoms: C_19  and  C_20
REMARK   10  A    between atoms: C_24  and  C_25
REMARK                            x       y       z     vdW  Elec       q    Type
REMARK                         _______ _______ _______ _____ _____    ______ ____
ROOT
ATOM      1  C   UNL     1       8.607   9.241  18.451  0.00  0.00    +0.000 C 
ATOM      2  C   UNL     1       7.964   8.265  18.160  0.00  0.00    +0.000 C 
ENDROOT
BRANCH   2   3
ATOM      3  C   UNL     1       7.257   7.074  17.801  0.00  0.00    +0.000 A 
ATOM      4  C   UNL     1       7.430   5.887  18.475  0.00  0.00    +0.000 A 
ATOM      5  N   UNL     1       6.770   4.741  18.180  0.00  0.00    +0.000 NA
ATOM      6  C   UNL     1       5.901   4.775  17.158  0.00  0.00    +0.000 A 
ATOM      7  N   UNL     1       5.200   3.631  16.796  0.00  0.00    +0.000 N 
ATOM      8  N   UNL     1       5.660   5.882  16.436  0.00  0.00    +0.000 NA
ATOM      9  C   UNL     1       6.348   7.005  16.771  0.00  0.00    +0.000 A 
ATOM     10  H   UNL     1       4.401   3.925  16.246  0.00  0.00    +0.000 HD
BRANCH   7  11
ATOM     11  C   UNL     1       4.893   2.748  17.905  0.00  0.00    +0.000 C 
BRANCH  11  12
ATOM     12  C   UNL     1       3.494   2.995  18.438  0.00  0.00    +0.000 A 
ATOM     13  C   UNL     1       2.525   3.627  17.644  0.00  0.00    +0.000 A 
ATOM     14  C   UNL     1       1.267   3.934  18.168  0.00  0.00    +0.000 A 
ATOM     15  C   UNL     1       0.961   3.621  19.492  0.00  0.00    +0.000 A 
ATOM     16  C   UNL     1       1.911   2.995  20.305  0.00  0.00    +0.000 A 
ATOM     17  C   UNL     1       1.603   2.670  21.737  0.00  0.00    +0.000 C 
ATOM     18  C   UNL     1       3.169   2.677  19.767  0.00  0.00    +0.000 A 
ENDBRANCH  11  12
ENDBRANCH   7  11
ENDBRANCH   2   3
BRANCH   1  22
ATOM     19  C   UNL     1      11.113  12.553  19.408  0.00  0.00    +0.000 A 
ATOM     20  C   UNL     1      10.456  11.835  20.417  0.00  0.00    +0.000 A 
ATOM     21  C   UNL     1       9.619  10.756  20.099  0.00  0.00    +0.000 A 
ATOM     22  C   UNL     1       9.421  10.382  18.767  0.00  0.00    +0.000 A 
ATOM     23  C   UNL     1      10.044  11.114  17.755  0.00  0.00    +0.000 A 
ATOM     24  C   UNL     1      10.881  12.192  18.072  0.00  0.00    +0.000 A 
BRANCH  19  25
ATOM     25  C   UNL     1      12.034  13.709  19.743  0.00  0.00    +0.000 C 
BRANCH  25  26
ATOM     26  C   UNL     1      11.524  15.096  19.294  0.00  0.00    +0.000 C 
ATOM     27  C   UNL     1      12.333  16.208  19.968  0.00  0.00    +0.000 C 
BRANCH  26  31
ATOM     28  C   UNL     1       7.886  16.180  19.288  0.00  0.00    +0.000 C 
ATOM     29  C   UNL     1       9.305  16.083  18.800  0.00  0.00    +0.000 C 
ATOM     30  O   UNL     1       9.696  16.666  17.794  0.00  0.00    +0.000 OA
ATOM     31  N   UNL     1      10.104  15.277  19.583  0.00  0.00    +0.000 N 
ATOM     32  H   UNL     1       9.730  14.912  20.449  0.00  0.00    +0.000 HD
ENDBRANCH  26  31
ENDBRANCH  25  26
ENDBRANCH  19  25
ENDBRANCH   1  22
TORSDOF 7
ENDMDL
MODEL 2
REMARK VINA RESULT:      -8.7      0.994      1.544
REMARK  Name = 
REMARK  10 active torsions:
REMARK  status: ('A' for Active; 'I' for Inactive)
REMARK    1  A    between atoms: C_1  and  C_2
REMARK    2  A    between atoms: N_4  and  C_5
REMARK    3  A    between atoms: C_5  and  C_6
REMARK    4  A    between atoms: C_5  and  C_7
REMARK    5  A    between atoms: C_7  and  C_8
REMARK    6  A    between atoms: C_11  and  C_12
REMARK    7  A    between atoms: C_13  and  C_14
REMARK    8  A    between atoms: N_18  and  C_19
REMARK    9  A    between atoms: C_19  and  C_20
REMARK   10  A    between atoms: C_24  and  C_25
REMARK                            x       y       z     vdW  Elec       q    Type
REMARK                         _______ _______ _______ _____ _____    ______ ____
ROOT
ATOM      1  C   UNL     1       8.718   9.154  18.626  0.00  0.00    +0.000 C 
ATOM      2  C   UNL     1       8.082   8.176  18.328  0.00  0.00    +0.000 C 
ENDROOT
BRANCH   2   3
ATOM      3  C   UNL     1       7.358   7.013  17.914  0.00  0.00    +0.000 A 
ATOM      4  C   UNL     1       7.503   5.796  18.541  0.00  0.00    +0.000 A 
ATOM      5  N   UNL     1       6.826   4.675  18.193  0.00  0.00    +0.000 NA
ATOM      6  C   UNL     1       5.968   4.767  17.165  0.00  0.00    +0.000 A 
ATOM      7  N   UNL     1       5.250   3.652  16.751  0.00  0.00    +0.000 N 
ATOM      8  N   UNL     1       5.754   5.906  16.487  0.00  0.00    +0.000 NA
ATOM      9  C   UNL     1       6.458   7.002  16.874  0.00  0.00    +0.000 A 
ATOM     10  H   UNL     1       4.462   3.982  16.206  0.00  0.00    +0.000 HD
BRANCH   7  11
ATOM     11  C   UNL     1       4.917   2.730  17.820  0.00  0.00    +0.000 C 
BRANCH  11  12
ATOM     12  C   UNL     1       3.522   2.988  18.358  0.00  0.00    +0.000 A 
ATOM     13  C   UNL     1       2.547   3.601  17.557  0.00  0.00    +0.000 A 
ATOM     14  C   UNL     1       1.292   3.919  18.084  0.00  0.00    +0.000 A 
ATOM     15  C   UNL     1       0.996   3.634  19.416  0.00  0.00    +0.000 A 
ATOM     16  C   UNL     1       1.953   3.027  20.236  0.00  0.00    +0.000 A 
ATOM     17  C   UNL     1       1.656   2.733  21.677  0.00  0.00    +0.000 C 
ATOM     18  C   UNL     1       3.207   2.698  19.696  0.00  0.00    +0.000 A 
ENDBRANCH  11  12
ENDBRANCH   7  11
ENDBRANCH   2   3
BRANCH   1  22
ATOM     19  C   UNL     1      10.901  12.709  19.496  0.00  0.00    +0.000 A 
ATOM     20  C   UNL     1      10.698  12.298  18.171  0.00  0.00    +0.000 A 
ATOM     21  C   UNL     1       9.994  11.119  17.888  0.00  0.00    +0.000 A 
ATOM     22  C   UNL     1       9.487  10.331  18.923  0.00  0.00    +0.000 A 
ATOM     23  C   UNL     1       9.716  10.715  20.246  0.00  0.00    +0.000 A 
ATOM     24  C   UNL     1      10.419  11.893  20.531  0.00  0.00    +0.000 A 
BRANCH  19  25
ATOM     25  C   UNL     1      11.646  13.991  19.813  0.00  0.00    +0.000 C 
BRANCH  25  26
ATOM     26  C   UNL     1      10.775  15.267  19.802  0.00  0.00    +0.000 C 
ATOM     27  C   UNL     1       9.289  14.901  19.862  0.00  0.00    +0.000 C 
BRANCH  26  31
ATOM     28  C   UNL     1      11.395  18.139  17.398  0.00  0.00    +0.000 C 
ATOM     29  C   UNL     1      11.189  17.459  18.724  0.00  0.00    +0.000 C 
ATOM     30  O   UNL     1      11.174  18.076  19.784  0.00  0.00    +0.000 OA
ATOM     31  N   UNL     1      11.031  16.094  18.625  0.00  0.00    +0.000 N 
ATOM     32  H   UNL     1      10.958  15.675  17.707  0.00  0.00    +0.000 HD
ENDBRANCH  26  31
ENDBRANCH  25  26
ENDBRANCH  19  25
ENDBRANCH   1  22
TORSDOF 7
ENDMDL
MODEL 3
REMARK VINA RESULT:      -8.6      0.645      1.066
REMARK  Name = 
REMARK  10 active torsions:
REMARK  status: ('A' for Active; 'I' for Inactive)
REMARK    1  A    between atoms: C_1  and  C_2
REMARK    2  A    between atoms: N_4  and  C_5
REMARK    3  A    between atoms: C_5  and  C_6
REMARK    4  A    between atoms: C_5  and  C_7
REMARK    5  A    between atoms: C_7  and  C_8
REMARK    6  A    between atoms: C_11  and  C_12
REMARK    7  A    between atoms: C_13  and  C_14
REMARK    8  A    between atoms: N_18  and  C_19
REMARK    9  A    between atoms: C_19  and  C_20
REMARK   10  A    between atoms: C_24  and  C_25
REMARK                            x       y       z     vdW  Elec       q    Type
REMARK                         _______ _______ _______ _____ _____    ______ ____
ROOT
ATOM      1  C   UNL     1       9.035   9.633  18.609  0.00  0.00    +0.000 C 
ATOM      2  C   UNL     1       8.392   8.640  18.385  0.00  0.00    +0.000 C 
ENDROOT
BRANCH   2   3
ATOM      3  C   UNL     1       7.660   7.453  18.061  0.00  0.00    +0.000 A 
ATOM      4  C   UNL     1       7.806   6.284  18.773  0.00  0.00    +0.000 A 
ATOM      5  N   UNL     1       7.122   5.144  18.512  0.00  0.00    +0.000 NA
ATOM      6  C   UNL     1       6.256   5.166  17.486  0.00  0.00    +0.000 A 
ATOM      7  N   UNL     1       5.531   4.027  17.158  0.00  0.00    +0.000 N 
ATOM      8  N   UNL     1       6.041   6.254  16.730  0.00  0.00    +0.000 NA
ATOM      9  C   UNL     1       6.752   7.372  17.032  0.00  0.00    +0.000 A 
ATOM     10  H   UNL     1       4.740   4.321  16.597  0.00  0.00    +0.000 HD
BRANCH   7  11
ATOM     11  C   UNL     1       5.203   3.186  18.293  0.00  0.00    +0.000 C 
BRANCH  11  12
ATOM     12  C   UNL     1       3.726   3.267  18.633  0.00  0.00    +0.000 A 
ATOM     13  C   UNL     1       2.799   3.742  17.694  0.00  0.00    +0.000 A 
ATOM     14  C   UNL     1       1.455   3.901  18.040  0.00  0.00    +0.000 A 
ATOM     15  C   UNL     1       1.019   3.594  19.328  0.00  0.00    +0.000 A 
ATOM     16  C   UNL     1       1.925   3.122  20.283  0.00  0.00    +0.000 A 
ATOM     17  C   UNL     1       1.474   2.806  21.679  0.00  0.00    +0.000 C 
ATOM     18  C   UNL     1       3.272   2.951  19.924  0.00  0.00    +0.000 A 
ENDBRANCH  11  12
ENDBRANCH   7  11
ENDBRANCH   2   3
BRANCH   1  22
ATOM     19  C   UNL     1      11.248  13.219  19.250  0.00  0.00    +0.000 A 
ATOM     20  C   UNL     1      10.689  12.935  17.996  0.00  0.00    +0.000 A 
ATOM     21  C   UNL     1       9.976  11.747  17.782  0.00  0.00    +0.000 A 
ATOM     22  C   UNL     1       9.815  10.822  18.817  0.00  0.00    +0.000 A 
ATOM     23  C   UNL     1      10.399  11.081  20.058  0.00  0.00    +0.000 A 
ATOM     24  C   UNL     1      11.112  12.268  20.272  0.00  0.00    +0.000 A 
BRANCH  19  25
ATOM     25  C   UNL     1      12.006  14.508  19.495  0.00  0.00    +0.000 C 
BRANCH  25  26
ATOM     26  C   UNL     1      11.224  15.796  19.153  0.00  0.00    +0.000 C 
ATOM     27  C   UNL     1      11.998  17.032  19.621  0.00  0.00    +0.000 C 
BRANCH  26  31
ATOM     28  C   UNL     1       7.589  16.479  20.006  0.00  0.00    +0.000 C 
ATOM     29  C   UNL     1       8.874  16.577  19.231  0.00  0.00    +0.000 C 
ATOM     30  O   UNL     1       8.988  17.282  18.234  0.00  0.00    +0.000 OA
ATOM     31  N   UNL     1       9.888  15.798  19.744  0.00  0.00    +0.000 N 
ATOM     32  H   UNL     1       9.742  15.322  20.625  0.00  0.00    +0.000 HD
ENDBRANCH  26  31
ENDBRANCH  25  26
ENDBRANCH  19  25
ENDBRANCH   1  22
TORSDOF 7
ENDMDL
MODEL 4
REMARK VINA RESULT:      -8.6      1.436      1.879
REMARK  Name = 
REMARK  10 active torsions:
REMARK  status: ('A' for Active; 'I' for Inactive)
REMARK    1  A    between atoms: C_1  and  C_2
REMARK    2  A    between atoms: N_4  and  C_5
REMARK    3  A    between atoms: C_5  and  C_6
REMARK    4  A    between atoms: C_5  and  C_7
REMARK    5  A    between atoms: C_7  and  C_8
REMARK    6  A    between atoms: C_11  and  C_12
REMARK    7  A    between atoms: C_13  and  C_14
REMARK    8  A    between atoms: N_18  and  C_19
REMARK    9  A    between atoms: C_19  and  C_20
REMARK   10  A    between atoms: C_24  and  C_25
REMARK                            x       y       z     vdW  Elec       q    Type
REMARK                         _______ _______ _______ _____ _____    ______ ____
ROOT
ATOM      1  C   UNL     1       8.658   9.697  17.960  0.00  0.00    +0.000 C 
ATOM      2  C   UNL     1       8.159   8.605  18.058  0.00  0.00    +0.000 C 
ENDROOT
BRANCH   2   3
ATOM      3  C   UNL     1       7.518   7.335  18.214  0.00  0.00    +0.000 A 
ATOM      4  C   UNL     1       6.191   7.140  17.906  0.00  0.00    +0.000 A 
ATOM      5  N   UNL     1       5.549   5.953  18.021  0.00  0.00    +0.000 NA
ATOM      6  C   UNL     1       6.261   4.909  18.475  0.00  0.00    +0.000 A 
ATOM      7  N   UNL     1       5.659   3.665  18.628  0.00  0.00    +0.000 N 
ATOM      8  N   UNL     1       7.560   4.993  18.803  0.00  0.00    +0.000 NA
ATOM      9  C   UNL     1       8.158   6.206  18.669  0.00  0.00    +0.000 A 
ATOM     10  H   UNL     1       6.398   2.973  18.667  0.00  0.00    +0.000 HD
BRANCH   7  11
ATOM     11  C   UNL     1       4.609   3.392  17.665  0.00  0.00    +0.000 C 
BRANCH  11  12
ATOM     12  C   UNL     1       3.275   3.166  18.351  0.00  0.00    +0.000 A 
ATOM     13  C   UNL     1       2.076   3.234  17.627  0.00  0.00    +0.000 A 
ATOM     14  C   UNL     1       0.845   3.115  18.277  0.00  0.00    +0.000 A 
ATOM     15  C   UNL     1       0.794   2.934  19.659  0.00  0.00    +0.000 A 
ATOM     16  C   UNL     1       1.976   2.867  20.403  0.00  0.00    +0.000 A 
ATOM     17  C   UNL     1       1.936   2.692  21.893  0.00  0.00    +0.000 C 
ATOM     18  C   UNL     1       3.210   2.973  19.741  0.00  0.00    +0.000 A 
ENDBRANCH  11  12
ENDBRANCH   7  11
ENDBRANCH   2   3
BRANCH   1  22
ATOM     19  C   UNL     1      10.352  13.595  17.642  0.00  0.00    +0.000 A 
ATOM     20  C   UNL     1      11.169  12.470  17.826  0.00  0.00    +0.000 A 
ATOM     21  C   UNL     1      10.608  11.190  17.948  0.00  0.00    +0.000 A 
ATOM     22  C   UNL     1       9.224  11.015  17.892  0.00  0.00    +0.000 A 
ATOM     23  C   UNL     1       8.402  12.135  17.745  0.00  0.00    +0.000 A 
ATOM     24  C   UNL     1       8.961  13.414  17.623  0.00  0.00    +0.000 A 
BRANCH  19  25
ATOM     25  C   UNL     1      10.950  14.979  17.492  0.00  0.00    +0.000 C 
BRANCH  25  26
ATOM     26  C   UNL     1      10.435  16.022  18.509  0.00  0.00    +0.000 C 
ATOM     27  C   UNL     1      11.135  17.367  18.296  0.00  0.00    +0.000 C 
BRANCH  26  31
ATOM     28  C   UNL     1       9.964  15.006  22.136  0.00  0.00    +0.000 C 
ATOM     29  C   UNL     1       9.560  15.417  20.747  0.00  0.00    +0.000 C 
ATOM     30  O   UNL     1       8.388  15.578  20.423  0.00  0.00    +0.000 OA
ATOM     31  N   UNL     1      10.625  15.581  19.889  0.00  0.00    +0.000 N 
ATOM     32  H   UNL     1      11.566  15.525  20.259  0.00  0.00    +0.000 HD
ENDBRANCH  26  31
ENDBRANCH  25  26
ENDBRANCH  19  25
ENDBRANCH   1  22
TORSDOF 7
ENDMDL
MODEL 5
REMARK VINA RESULT:      -8.6      1.189      1.683
REMARK  Name = 
REMARK  10 active torsions:
REMARK  status: ('A' for Active; 'I' for Inactive)
REMARK    1  A    between atoms: C_1  and  C_2
REMARK    2  A    between atoms: N_4  and  C_5
REMARK    3  A    between atoms: C_5  and  C_6
REMARK    4  A    between atoms: C_5  and  C_7
REMARK    5  A    between atoms: C_7  and  C_8
REMARK    6  A    between atoms: C_11  and  C_12
REMARK    7  A    between atoms: C_13  and  C_14
REMARK    8  A    between atoms: N_18  and  C_19
REMARK    9  A    between atoms: C_19  and  C_20
REMARK   10  A    between atoms: C_24  and  C_25
REMARK                            x       y       z     vdW  Elec       q    Type
REMARK                         _______ _______ _______ _____ _____    ______ ____
ROOT
ATOM      1  C   UNL     1       9.076   9.610  18.622  0.00  0.00    +0.000 C 
ATOM      2  C   UNL     1       8.388   8.634  18.469  0.00  0.00    +0.000 C 
ENDROOT
BRANCH   2   3
ATOM      3  C   UNL     1       7.612   7.453  18.239  0.00  0.00    +0.000 A 
ATOM      4  C   UNL     1       7.774   6.311  18.989  0.00  0.00    +0.000 A 
ATOM      5  N   UNL     1       7.051   5.179  18.817  0.00  0.00    +0.000 NA
ATOM      6  C   UNL     1       6.126   5.180  17.844  0.00  0.00    +0.000 A 
ATOM      7  N   UNL     1       5.357   4.046  17.607  0.00  0.00    +0.000 N 
ATOM      8  N   UNL     1       5.890   6.241  17.057  0.00  0.00    +0.000 NA
ATOM      9  C   UNL     1       6.642   7.353  17.269  0.00  0.00    +0.000 A 
ATOM     10  H   UNL     1       4.541   4.336  17.082  0.00  0.00    +0.000 HD
BRANCH   7  11
ATOM     11  C   UNL     1       5.079   3.260  18.794  0.00  0.00    +0.000 C 
BRANCH  11  12
ATOM     12  C   UNL     1       3.770   3.676  19.439  0.00  0.00    +0.000 A 
ATOM     13  C   UNL     1       2.803   2.718  19.778  0.00  0.00    +0.000 A 
ATOM     14  C   UNL     1       1.562   3.111  20.288  0.00  0.00    +0.000 A 
ATOM     15  C   UNL     1       1.269   4.463  20.459  0.00  0.00    +0.000 A 
ATOM     16  C   UNL     1       2.216   5.437  20.125  0.00  0.00    +0.000 A 
ATOM     17  C   UNL     1       1.906   6.896  20.286  0.00  0.00    +0.000 C 
ATOM     18  C   UNL     1       3.465   5.034  19.626  0.00  0.00    +0.000 A 
ENDBRANCH  11  12
ENDBRANCH   7  11
ENDBRANCH   2   3
BRANCH   1  22
ATOM     19  C   UNL     1      11.487  13.106  18.987  0.00  0.00    +0.000 A 
ATOM     20  C   UNL     1      11.198  12.561  17.728  0.00  0.00    +0.000 A 
ATOM     21  C   UNL     1      10.419  11.402  17.611  0.00  0.00    +0.000 A 
ATOM     22  C   UNL     1       9.920  10.765  18.750  0.00  0.00    +0.000 A 
ATOM     23  C   UNL     1      10.233  11.282  20.009  0.00  0.00    +0.000 A 
ATOM     24  C   UNL     1      11.011  12.441  20.127  0.00  0.00    +0.000 A 
BRANCH  19  25
ATOM     25  C   UNL     1      12.313  14.369  19.123  0.00  0.00    +0.000 C 
BRANCH  25  26
ATOM     26  C   UNL     1      11.495  15.657  19.363  0.00  0.00    +0.000 C 
ATOM     27  C   UNL     1      11.663  16.135  20.809  0.00  0.00    +0.000 C 
BRANCH  26  31
ATOM     28  C   UNL     1       8.040  15.663  17.792  0.00  0.00    +0.000 C 
ATOM     29  C   UNL     1       9.521  15.905  17.887  0.00  0.00    +0.000 C 
ATOM     30  O   UNL     1      10.159  16.436  16.984  0.00  0.00    +0.000 OA
ATOM     31  N   UNL     1      10.077  15.468  19.069  0.00  0.00    +0.000 N 
ATOM     32  H   UNL     1       9.466  15.130  19.802  0.00  0.00    +0.000 HD
ENDBRANCH  26  31
ENDBRANCH  25  26
ENDBRANCH  19  25
ENDBRANCH   1  22
TORSDOF 7
ENDMDL
MODEL 6
REMARK VINA RESULT:      -8.4      6.988      9.774
REMARK  Name = 
REMARK  10 active torsions:
REMARK  status: ('A' for Active; 'I' for Inactive)
REMARK    1  A    between atoms: C_1  and  C_2
REMARK    2  A    between atoms: N_4  and  C_5
REMARK    3  A    between atoms: C_5  and  C_6
REMARK    4  A    between atoms: C_5  and  C_7
REMARK    5  A    between atoms: C_7  and  C_8
REMARK    6  A    between atoms: C_11  and  C_12
REMARK    7  A    between atoms: C_13  and  C_14
REMARK    8  A    between atoms: N_18  and  C_19
REMARK    9  A    between atoms: C_19  and  C_20
REMARK   10  A    between atoms: C_24  and  C_25
REMARK                            x       y       z     vdW  Elec       q    Type
REMARK                         _______ _______ _______ _____ _____    ______ ____
ROOT
ATOM      1  C   UNL     1       1.467   8.362  20.122  0.00  0.00    +0.000 C 
ATOM      2  C   UNL     1       2.161   7.616  19.481  0.00  0.00    +0.000 C 
ENDROOT
BRANCH   2   3
ATOM      3  C   UNL     1       2.933   6.690  18.709  0.00  0.00    +0.000 A 
ATOM      4  C   UNL     1       3.826   7.103  17.746  0.00  0.00    +0.000 A 
ATOM      5  N   UNL     1       4.588   6.263  17.005  0.00  0.00    +0.000 NA
ATOM      6  C   UNL     1       4.448   4.946  17.227  0.00  0.00    +0.000 A 
ATOM      7  N   UNL     1       5.191   4.030  16.492  0.00  0.00    +0.000 N 
ATOM      8  N   UNL     1       3.605   4.441  18.142  0.00  0.00    +0.000 NA
ATOM      9  C   UNL     1       2.863   5.325  18.859  0.00  0.00    +0.000 A 
ATOM     10  H   UNL     1       5.185   3.155  17.003  0.00  0.00    +0.000 HD
BRANCH   7  11
ATOM     11  C   UNL     1       6.505   4.508  16.104  0.00  0.00    +0.000 C 
BRANCH  11  12
ATOM     12  C   UNL     1       6.712   4.402  14.605  0.00  0.00    +0.000 A 
ATOM     13  C   UNL     1       7.666   5.198  13.955  0.00  0.00    +0.000 A 
ATOM     14  C   UNL     1       7.791   5.164  12.563  0.00  0.00    +0.000 A 
ATOM     15  C   UNL     1       6.963   4.340  11.803  0.00  0.00    +0.000 A 
ATOM     16  C   UNL     1       6.001   3.539  12.428  0.00  0.00    +0.000 A 
ATOM     17  C   UNL     1       5.089   2.662  11.621  0.00  0.00    +0.000 C 
ATOM     18  C   UNL     1       5.890   3.568  13.827  0.00  0.00    +0.000 A 
ENDBRANCH  11  12
ENDBRANCH   7  11
ENDBRANCH   2   3
BRANCH   1  22
ATOM     19  C   UNL     1      -1.014  10.933  22.447  0.00  0.00    +0.000 A 
ATOM     20  C   UNL     1      -0.393   9.817  23.027  0.00  0.00    +0.000 A 
ATOM     21  C   UNL     1       0.409   8.963  22.256  0.00  0.00    +0.000 A 
ATOM     22  C   UNL     1       0.599   9.208  20.894  0.00  0.00    +0.000 A 
ATOM     23  C   UNL     1      -0.045  10.296  20.302  0.00  0.00    +0.000 A 
ATOM     24  C   UNL     1      -0.846  11.150  21.071  0.00  0.00    +0.000 A 
BRANCH  19  25
ATOM     25  C   UNL     1      -1.868  11.872  23.275  0.00  0.00    +0.000 C 
BRANCH  25  26
ATOM     26  C   UNL     1      -2.560  12.997  22.474  0.00  0.00    +0.000 C 
ATOM     27  C   UNL     1      -2.313  14.355  23.138  0.00  0.00    +0.000 C 
BRANCH  26  31
ATOM     28  C   UNL     1      -6.080  12.431  21.173  0.00  0.00    +0.000 C 
ATOM     29  C   UNL     1      -4.588  12.605  21.106  0.00  0.00    +0.000 C 
ATOM     30  O   UNL     1      -3.971  12.592  20.046  0.00  0.00    +0.000 OA
ATOM     31  N   UNL     1      -3.996  12.769  22.340  0.00  0.00    +0.000 N 
ATOM     32  H   UNL     1      -4.586  12.865  23.157  0.00  0.00    +0.000 HD
ENDBRANCH  26  31
ENDBRANCH  25  26
ENDBRANCH  19  25
ENDBRANCH   1  22
TORSDOF 7
ENDMDL
MODEL 7
REMARK VINA RESULT:      -8.4      1.264      1.740
REMARK  Name = 
REMARK  10 active torsions:
REMARK  status: ('A' for Active; 'I' for Inactive)
REMARK    1  A    between atoms: C_1  and  C_2
REMARK    2  A    between atoms: N_4  and  C_5
REMARK    3  A    between atoms: C_5  and  C_6
REMARK    4  A    between atoms: C_5  and  C_7
REMARK    5  A    between atoms: C_7  and  C_8
REMARK    6  A    between atoms: C_11  and  C_12
REMARK    7  A    between atoms: C_13  and  C_14
REMARK    8  A    between atoms: N_18  and  C_19
REMARK    9  A    between atoms: C_19  and  C_20
REMARK   10  A    between atoms: C_24  and  C_25
REMARK                            x       y       z     vdW  Elec       q    Type
REMARK                         _______ _______ _______ _____ _____    ______ ____
ROOT
ATOM      1  C   UNL     1       8.811   9.182  18.591  0.00  0.00    +0.000 C 
ATOM      2  C   UNL     1       8.186   8.166  18.421  0.00  0.00    +0.000 C 
ENDROOT
BRANCH   2   3
ATOM      3  C   UNL     1       7.388   6.994  18.231  0.00  0.00    +0.000 A 
ATOM      4  C   UNL     1       7.509   5.885  19.037  0.00  0.00    +0.000 A 
ATOM      5  N   UNL     1       6.763   4.762  18.903  0.00  0.00    +0.000 NA
ATOM      6  C   UNL     1       5.859   4.737  17.912  0.00  0.00    +0.000 A 
ATOM      7  N   UNL     1       5.069   3.611  17.712  0.00  0.00    +0.000 N 
ATOM      8  N   UNL     1       5.663   5.766  17.071  0.00  0.00    +0.000 NA
ATOM      9  C   UNL     1       6.436   6.869  17.247  0.00  0.00    +0.000 A 
ATOM     10  H   UNL     1       4.270   3.894  17.157  0.00  0.00    +0.000 HD
BRANCH   7  11
ATOM     11  C   UNL     1       4.750   2.888  18.928  0.00  0.00    +0.000 C 
BRANCH  11  12
ATOM     12  C   UNL     1       3.420   3.337  19.505  0.00  0.00    +0.000 A 
ATOM     13  C   UNL     1       2.350   2.437  19.625  0.00  0.00    +0.000 A 
ATOM     14  C   UNL     1       1.100   2.874  20.072  0.00  0.00    +0.000 A 
ATOM     15  C   UNL     1       0.900   4.214  20.399  0.00  0.00    +0.000 A 
ATOM     16  C   UNL     1       1.949   5.131  20.284  0.00  0.00    +0.000 A 
ATOM     17  C   UNL     1       1.742   6.580  20.614  0.00  0.00    +0.000 C 
ATOM     18  C   UNL     1       3.206   4.682  19.848  0.00  0.00    +0.000 A 
ENDBRANCH  11  12
ENDBRANCH   7  11
ENDBRANCH   2   3
BRANCH   1  22
ATOM     19  C   UNL     1      10.979  12.785  19.288  0.00  0.00    +0.000 A 
ATOM     20  C   UNL     1      10.473  12.033  20.358  0.00  0.00    +0.000 A 
ATOM     21  C   UNL     1       9.746  10.857  20.126  0.00  0.00    +0.000 A 
ATOM     22  C   UNL     1       9.508  10.417  18.822  0.00  0.00    +0.000 A 
ATOM     23  C   UNL     1       9.978  11.180  17.750  0.00  0.00    +0.000 A 
ATOM     24  C   UNL     1      10.705  12.354  17.981  0.00  0.00    +0.000 A 
BRANCH  19  25
ATOM     25  C   UNL     1      11.782  14.048  19.529  0.00  0.00    +0.000 C 
BRANCH  25  26
ATOM     26  C   UNL     1      10.949  15.272  19.969  0.00  0.00    +0.000 C 
ATOM     27  C   UNL     1       9.500  15.132  19.495  0.00  0.00    +0.000 C 
BRANCH  26  31
ATOM     28  C   UNL     1      12.265  18.100  17.806  0.00  0.00    +0.000 C 
ATOM     29  C   UNL     1      11.617  16.780  18.120  0.00  0.00    +0.000 C 
ATOM     30  O   UNL     1      11.218  16.019  17.245  0.00  0.00    +0.000 OA
ATOM     31  N   UNL     1      11.511  16.524  19.470  0.00  0.00    +0.000 N 
ATOM     32  H   UNL     1      11.953  17.158  20.124  0.00  0.00    +0.000 HD
ENDBRANCH  26  31
ENDBRANCH  25  26
ENDBRANCH  19  25
ENDBRANCH   1  22
TORSDOF 7
ENDMDL
MODEL 8
REMARK VINA RESULT:      -8.4      1.178      1.230
REMARK  Name = 
REMARK  10 active torsions:
REMARK  status: ('A' for Active; 'I' for Inactive)
REMARK    1  A    between atoms: C_1  and  C_2
REMARK    2  A    between atoms: N_4  and  C_5
REMARK    3  A    between atoms: C_5  and  C_6
REMARK    4  A    between atoms: C_5  and  C_7
REMARK    5  A    between atoms: C_7  and  C_8
REMARK    6  A    between atoms: C_11  and  C_12
REMARK    7  A    between atoms: C_13  and  C_14
REMARK    8  A    between atoms: N_18  and  C_19
REMARK    9  A    between atoms: C_19  and  C_20
REMARK   10  A    between atoms: C_24  and  C_25
REMARK                            x       y       z     vdW  Elec       q    Type
REMARK                         _______ _______ _______ _____ _____    ______ ____
ROOT
ATOM      1  C   UNL     1       8.871   9.754  18.315  0.00  0.00    +0.000 C 
ATOM      2  C   UNL     1       8.285   8.711  18.174  0.00  0.00    +0.000 C 
ENDROOT
BRANCH   2   3
ATOM      3  C   UNL     1       7.566   7.494  17.948  0.00  0.00    +0.000 A 
ATOM      4  C   UNL     1       7.723   6.389  18.754  0.00  0.00    +0.000 A 
ATOM      5  N   UNL     1       7.051   5.224  18.586  0.00  0.00    +0.000 NA
ATOM      6  C   UNL     1       6.187   5.153  17.562  0.00  0.00    +0.000 A 
ATOM      7  N   UNL     1       5.474   3.983  17.328  0.00  0.00    +0.000 N 
ATOM      8  N   UNL     1       5.962   6.173  16.719  0.00  0.00    +0.000 NA
ATOM      9  C   UNL     1       6.661   7.320  16.928  0.00  0.00    +0.000 A 
ATOM     10  H   UNL     1       4.681   4.222  16.744  0.00  0.00    +0.000 HD
BRANCH   7  11
ATOM     11  C   UNL     1       5.153   3.234  18.528  0.00  0.00    +0.000 C 
BRANCH  11  12
ATOM     12  C   UNL     1       3.666   3.282  18.828  0.00  0.00    +0.000 A 
ATOM     13  C   UNL     1       2.757   3.761  17.873  0.00  0.00    +0.000 A 
ATOM     14  C   UNL     1       1.401   3.889  18.185  0.00  0.00    +0.000 A 
ATOM     15  C   UNL     1       0.935   3.547  19.454  0.00  0.00    +0.000 A 
ATOM     16  C   UNL     1       1.823   3.071  20.424  0.00  0.00    +0.000 A 
ATOM     17  C   UNL     1       1.340   2.718  21.800  0.00  0.00    +0.000 C 
ATOM     18  C   UNL     1       3.182   2.932  20.100  0.00  0.00    +0.000 A 
ENDBRANCH  11  12
ENDBRANCH   7  11
ENDBRANCH   2   3
BRANCH   1  22
ATOM     19  C   UNL     1      10.909  13.469  18.772  0.00  0.00    +0.000 A 
ATOM     20  C   UNL     1       9.835  13.132  19.608  0.00  0.00    +0.000 A 
ATOM     21  C   UNL     1       9.155  11.916  19.445  0.00  0.00    +0.000 A 
ATOM     22  C   UNL     1       9.534  11.022  18.441  0.00  0.00    +0.000 A 
ATOM     23  C   UNL     1      10.581  11.366  17.583  0.00  0.00    +0.000 A 
ATOM     24  C   UNL     1      11.261  12.580  17.745  0.00  0.00    +0.000 A 
BRANCH  19  25
ATOM     25  C   UNL     1      11.662  14.772  18.952  0.00  0.00    +0.000 C 
BRANCH  25  26
ATOM     26  C   UNL     1      10.875  16.037  18.545  0.00  0.00    +0.000 C 
ATOM     27  C   UNL     1      11.582  16.760  17.395  0.00  0.00    +0.000 C 
BRANCH  26  31
ATOM     28  C   UNL     1       9.544  18.569  21.041  0.00  0.00    +0.000 C 
ATOM     29  C   UNL     1       9.515  17.636  19.862  0.00  0.00    +0.000 C 
ATOM     30  O   UNL     1       8.521  17.500  19.156  0.00  0.00    +0.000 OA
ATOM     31  N   UNL     1      10.697  16.956  19.667  0.00  0.00    +0.000 N 
ATOM     32  H   UNL     1      11.500  17.197  20.234  0.00  0.00    +0.000 HD
ENDBRANCH  26  31
ENDBRANCH  25  26
ENDBRANCH  19  25
ENDBRANCH   1  22
TORSDOF 7
ENDMDL
MODEL 9
REMARK VINA RESULT:      -8.3      7.409     10.185
REMARK  Name = 
REMARK  10 active torsions:
REMARK  status: ('A' for Active; 'I' for Inactive)
REMARK    1  A    between atoms: C_1  and  C_2
REMARK    2  A    between atoms: N_4  and  C_5
REMARK    3  A    between atoms: C_5  and  C_6
REMARK    4  A    between atoms: C_5  and  C_7
REMARK    5  A    between atoms: C_7  and  C_8
REMARK    6  A    between atoms: C_11  and  C_12
REMARK    7  A    between atoms: C_13  and  C_14
REMARK    8  A    between atoms: N_18  and  C_19
REMARK    9  A    between atoms: C_19  and  C_20
REMARK   10  A    between atoms: C_24  and  C_25
REMARK                            x       y       z     vdW  Elec       q    Type
REMARK                         _______ _______ _______ _____ _____    ______ ____
ROOT
ATOM      1  C   UNL     1       1.384   8.556  20.244  0.00  0.00    +0.000 C 
ATOM      2  C   UNL     1       2.021   7.790  19.566  0.00  0.00    +0.000 C 
ENDROOT
BRANCH   2   3
ATOM      3  C   UNL     1       2.722   6.871  18.722  0.00  0.00    +0.000 A 
ATOM      4  C   UNL     1       3.731   7.274  17.878  0.00  0.00    +0.000 A 
ATOM      5  N   UNL     1       4.432   6.437  17.075  0.00  0.00    +0.000 NA
ATOM      6  C   UNL     1       4.106   5.135  17.108  0.00  0.00    +0.000 A 
ATOM      7  N   UNL     1       4.778   4.225  16.302  0.00  0.00    +0.000 N 
ATOM      8  N   UNL     1       3.138   4.640  17.896  0.00  0.00    +0.000 NA
ATOM      9  C   UNL     1       2.464   5.521  18.682  0.00  0.00    +0.000 A 
ATOM     10  H   UNL     1       4.620   3.302  16.688  0.00  0.00    +0.000 HD
BRANCH   7  11
ATOM     11  C   UNL     1       6.168   4.561  16.059  0.00  0.00    +0.000 C 
BRANCH  11  12
ATOM     12  C   UNL     1       6.528   4.405  14.593  0.00  0.00    +0.000 A 
ATOM     13  C   UNL     1       7.531   5.194  14.013  0.00  0.00    +0.000 A 
ATOM     14  C   UNL     1       7.798   5.112  12.643  0.00  0.00    +0.000 A 
ATOM     15  C   UNL     1       7.063   4.246  11.835  0.00  0.00    +0.000 A 
ATOM     16  C   UNL     1       6.055   3.451  12.389  0.00  0.00    +0.000 A 
ATOM     17  C   UNL     1       5.242   2.530  11.528  0.00  0.00    +0.000 C 
ATOM     18  C   UNL     1       5.802   3.529  13.769  0.00  0.00    +0.000 A 
ENDBRANCH  11  12
ENDBRANCH   7  11
ENDBRANCH   2   3
BRANCH   1  22
ATOM     19  C   UNL     1      -1.112  11.143  22.533  0.00  0.00    +0.000 A 
ATOM     20  C   UNL     1      -0.749  11.473  21.219  0.00  0.00    +0.000 A 
ATOM     21  C   UNL     1       0.086  10.628  20.474  0.00  0.00    +0.000 A 
ATOM     22  C   UNL     1       0.575   9.444  21.031  0.00  0.00    +0.000 A 
ATOM     23  C   UNL     1       0.247   9.127  22.350  0.00  0.00    +0.000 A 
ATOM     24  C   UNL     1      -0.588   9.970  23.096  0.00  0.00    +0.000 A 
BRANCH  19  25
ATOM     25  C   UNL     1      -2.029  12.040  23.340  0.00  0.00    +0.000 C 
BRANCH  25  26
ATOM     26  C   UNL     1      -3.261  12.569  22.573  0.00  0.00    +0.000 C 
ATOM     27  C   UNL     1      -3.021  14.006  22.102  0.00  0.00    +0.000 C 
BRANCH  26  31
ATOM     28  C   UNL     1      -6.838  12.684  23.836  0.00  0.00    +0.000 C 
ATOM     29  C   UNL     1      -5.719  12.736  22.834  0.00  0.00    +0.000 C 
ATOM     30  O   UNL     1      -5.914  12.950  21.641  0.00  0.00    +0.000 OA
ATOM     31  N   UNL     1      -4.475  12.513  23.383  0.00  0.00    +0.000 N 
ATOM     32  H   UNL     1      -4.390  12.442  24.388  0.00  0.00    +0.000 HD
ENDBRANCH  26  31
ENDBRANCH  25  26
ENDBRANCH  19  25
ENDBRANCH   1  22
TORSDOF 7
ENDMDL
