MODEL 1
REMARK VINA RESULT:      -5.0      0.000      0.000
REMARK  Name = 
REMARK  1 active torsions:
REMARK  status: ('A' for Active; 'I' for Inactive)
REMARK    1  A    between atoms: O_1  and  C_2
REMARK                            x       y       z     vdW  Elec       q    Type
REMARK                         _______ _______ _______ _____ _____    ______ ____
ROOT
ATOM      1  C   UNL     1       6.924   4.550  17.602  0.00  0.00    +0.000 A 
ATOM      2  N   UNL     1       6.786   4.783  18.922  0.00  0.00    +0.000 NA
ATOM      3  C   UNL     1       5.573   5.231  19.321  0.00  0.00    +0.000 A 
ATOM      4  C   UNL     1       4.509   5.452  18.455  0.00  0.00    +0.000 A 
ATOM      5  I   UNL     1       2.692   6.142  19.167  0.00  0.00    +0.000 I 
ATOM      6  C   UNL     1       4.689   5.199  17.097  0.00  0.00    +0.000 A 
ATOM      7  C   UNL     1       5.926   4.735  16.654  0.00  0.00    +0.000 A 
ATOM      8  I   UNL     1       6.212   4.353  14.633  0.00  0.00    +0.000 I 
ENDROOT
BRANCH   1   9
ATOM      9  O   UNL     1       8.164   4.105  17.281  0.00  0.00    +0.000 OA
ATOM     10  H   UNL     1       8.566   4.931  16.962  0.00  0.00    +0.000 HD
ENDBRANCH   1   9
TORSDOF 1
ENDMDL
MODEL 2
REMARK VINA RESULT:      -4.9      1.172      1.172
REMARK  Name = 
REMARK  1 active torsions:
REMARK  status: ('A' for Active; 'I' for Inactive)
REMARK    1  A    between atoms: O_1  and  C_2
REMARK                            x       y       z     vdW  Elec       q    Type
REMARK                         _______ _______ _______ _____ _____    ______ ____
ROOT
ATOM      1  C   UNL     1       6.534   4.409  17.536  0.00  0.00    +0.000 A 
ATOM      2  N   UNL     1       6.189   4.393  18.838  0.00  0.00    +0.000 NA
ATOM      3  C   UNL     1       4.868   4.250  19.098  0.00  0.00    +0.000 A 
ATOM      4  C   UNL     1       3.896   4.124  18.114  0.00  0.00    +0.000 A 
ATOM      5  I   UNL     1       1.900   3.911  18.618  0.00  0.00    +0.000 I 
ATOM      6  C   UNL     1       4.292   4.144  16.778  0.00  0.00    +0.000 A 
ATOM      7  C   UNL     1       5.646   4.290  16.476  0.00  0.00    +0.000 A 
ATOM      8  I   UNL     1       6.253   4.323  14.491  0.00  0.00    +0.000 I 
ENDROOT
BRANCH   1   9
ATOM      9  O   UNL     1       7.871   4.557  17.357  0.00  0.00    +0.000 OA
ATOM     10  H   UNL     1       7.888   4.857  16.431  0.00  0.00    +0.000 HD
ENDBRANCH   1   9
TORSDOF 1
ENDMDL
MODEL 3
REMARK VINA RESULT:      -4.5      2.995      3.881
REMARK  Name = 
REMARK  1 active torsions:
REMARK  status: ('A' for Active; 'I' for Inactive)
REMARK    1  A    between atoms: O_1  and  C_2
REMARK                            x       y       z     vdW  Elec       q    Type
REMARK                         _______ _______ _______ _____ _____    ______ ____
ROOT
ATOM      1  C   UNL     1       4.310   3.687  19.372  0.00  0.00    +0.000 A 
ATOM      2  N   UNL     1       5.019   4.405  18.479  0.00  0.00    +0.000 NA
ATOM      3  C   UNL     1       4.483   5.594  18.116  0.00  0.00    +0.000 A 
ATOM      4  C   UNL     1       3.278   6.080  18.610  0.00  0.00    +0.000 A 
ATOM      5  I   UNL     1       2.543   7.912  17.988  0.00  0.00    +0.000 I 
ATOM      6  C   UNL     1       2.574   5.309  19.532  0.00  0.00    +0.000 A 
ATOM      7  C   UNL     1       3.100   4.080  19.927  0.00  0.00    +0.000 A 
ATOM      8  I   UNL     1       2.064   2.917  21.300  0.00  0.00    +0.000 I 
ENDROOT
BRANCH   1   9
ATOM      9  O   UNL     1       4.911   2.511  19.683  0.00  0.00    +0.000 OA
ATOM     10  H   UNL     1       5.732   2.840  20.088  0.00  0.00    +0.000 HD
ENDBRANCH   1   9
TORSDOF 1
ENDMDL
MODEL 4
REMARK VINA RESULT:      -4.5      2.548      2.916
REMARK  Name = 
REMARK  1 active torsions:
REMARK  status: ('A' for Active; 'I' for Inactive)
REMARK    1  A    between atoms: O_1  and  C_2
REMARK                            x       y       z     vdW  Elec       q    Type
REMARK                         _______ _______ _______ _____ _____    ______ ____
ROOT
ATOM      1  C   UNL     1       7.241   5.183  14.537  0.00  0.00    +0.000 A 
ATOM      2  N   UNL     1       7.430   5.756  15.742  0.00  0.00    +0.000 NA
ATOM      3  C   UNL     1       6.564   5.387  16.716  0.00  0.00    +0.000 A 
ATOM      4  C   UNL     1       5.530   4.479  16.526  0.00  0.00    +0.000 A 
ATOM      5  I   UNL     1       4.258   3.984  18.082  0.00  0.00    +0.000 I 
ATOM      6  C   UNL     1       5.367   3.907  15.266  0.00  0.00    +0.000 A 
ATOM      7  C   UNL     1       6.242   4.265  14.242  0.00  0.00    +0.000 A 
ATOM      8  I   UNL     1       6.012   3.422  12.359  0.00  0.00    +0.000 I 
ENDROOT
BRANCH   1   9
ATOM      9  O   UNL     1       8.144   5.603  13.617  0.00  0.00    +0.000 OA
ATOM     10  H   UNL     1       7.836   6.515  13.477  0.00  0.00    +0.000 HD
ENDBRANCH   1   9
TORSDOF 1
ENDMDL
MODEL 5
REMARK VINA RESULT:      -4.5      1.401      3.497
REMARK  Name = 
REMARK  1 active torsions:
REMARK  status: ('A' for Active; 'I' for Inactive)
REMARK    1  A    between atoms: O_1  and  C_2
REMARK                            x       y       z     vdW  Elec       q    Type
REMARK                         _______ _______ _______ _____ _____    ______ ____
ROOT
ATOM      1  C   UNL     1       6.404   4.986  18.676  0.00  0.00    +0.000 A 
ATOM      2  N   UNL     1       7.535   4.696  18.003  0.00  0.00    +0.000 NA
ATOM      3  C   UNL     1       7.390   4.456  16.678  0.00  0.00    +0.000 A 
ATOM      4  C   UNL     1       6.170   4.495  16.015  0.00  0.00    +0.000 A 
ATOM      5  I   UNL     1       6.057   4.108  13.985  0.00  0.00    +0.000 I 
ATOM      6  C   UNL     1       5.023   4.799  16.745  0.00  0.00    +0.000 A 
ATOM      7  C   UNL     1       5.138   5.053  18.111  0.00  0.00    +0.000 A 
ATOM      8  I   UNL     1       3.438   5.507  19.213  0.00  0.00    +0.000 I 
ENDROOT
BRANCH   1   9
ATOM      9  O   UNL     1       6.630   5.213  19.994  0.00  0.00    +0.000 OA
ATOM     10  H   UNL     1       5.974   4.611  20.387  0.00  0.00    +0.000 HD
ENDBRANCH   1   9
TORSDOF 1
ENDMDL
MODEL 6
REMARK VINA RESULT:      -4.5      3.988      5.140
REMARK  Name = 
REMARK  1 active torsions:
REMARK  status: ('A' for Active; 'I' for Inactive)
REMARK    1  A    between atoms: O_1  and  C_2
REMARK                            x       y       z     vdW  Elec       q    Type
REMARK                         _______ _______ _______ _____ _____    ______ ____
ROOT
ATOM      1  C   UNL     1       1.925   3.000  18.340  0.00  0.00    +0.000 A 
ATOM      2  N   UNL     1       2.398   3.225  17.098  0.00  0.00    +0.000 NA
ATOM      3  C   UNL     1       3.632   3.779  17.027  0.00  0.00    +0.000 A 
ATOM      4  C   UNL     1       4.395   4.110  18.139  0.00  0.00    +0.000 A 
ATOM      5  I   UNL     1       6.272   4.955  17.920  0.00  0.00    +0.000 I 
ATOM      6  C   UNL     1       3.872   3.861  19.406  0.00  0.00    +0.000 A 
ATOM      7  C   UNL     1       2.605   3.291  19.515  0.00  0.00    +0.000 A 
ATOM      8  I   UNL     1       1.810   2.915  21.395  0.00  0.00    +0.000 I 
ENDROOT
BRANCH   1   9
ATOM      9  O   UNL     1       0.686   2.446  18.329  0.00  0.00    +0.000 OA
ATOM     10  H   UNL     1       0.478   2.512  17.380  0.00  0.00    +0.000 HD
ENDBRANCH   1   9
TORSDOF 1
ENDMDL
MODEL 7
REMARK VINA RESULT:      -4.4      2.056      2.299
REMARK  Name = 
REMARK  1 active torsions:
REMARK  status: ('A' for Active; 'I' for Inactive)
REMARK    1  A    between atoms: O_1  and  C_2
REMARK                            x       y       z     vdW  Elec       q    Type
REMARK                         _______ _______ _______ _____ _____    ______ ____
ROOT
ATOM      1  C   UNL     1       4.802   4.504  18.713  0.00  0.00    +0.000 A 
ATOM      2  N   UNL     1       3.892   4.828  19.652  0.00  0.00    +0.000 NA
ATOM      3  C   UNL     1       3.171   5.950  19.415  0.00  0.00    +0.000 A 
ATOM      4  C   UNL     1       3.329   6.745  18.287  0.00  0.00    +0.000 A 
ATOM      5  I   UNL     1       2.176   8.444  18.021  0.00  0.00    +0.000 I 
ATOM      6  C   UNL     1       4.279   6.377  17.337  0.00  0.00    +0.000 A 
ATOM      7  C   UNL     1       5.038   5.227  17.551  0.00  0.00    +0.000 A 
ATOM      8  I   UNL     1       6.459   4.663  16.146  0.00  0.00    +0.000 I 
ENDROOT
BRANCH   1   9
ATOM      9  O   UNL     1       5.482   3.372  19.021  0.00  0.00    +0.000 OA
ATOM     10  H   UNL     1       5.550   3.470  19.987  0.00  0.00    +0.000 HD
ENDBRANCH   1   9
TORSDOF 1
ENDMDL
MODEL 8
REMARK VINA RESULT:      -4.4      2.389      2.492
REMARK  Name = 
REMARK  1 active torsions:
REMARK  status: ('A' for Active; 'I' for Inactive)
REMARK    1  A    between atoms: O_1  and  C_2
REMARK                            x       y       z     vdW  Elec       q    Type
REMARK                         _______ _______ _______ _____ _____    ______ ____
ROOT
ATOM      1  C   UNL     1       5.579   4.276  18.725  0.00  0.00    +0.000 A 
ATOM      2  N   UNL     1       5.290   3.312  19.621  0.00  0.00    +0.000 NA
ATOM      3  C   UNL     1       4.002   2.894  19.646  0.00  0.00    +0.000 A 
ATOM      4  C   UNL     1       3.010   3.402  18.818  0.00  0.00    +0.000 A 
ATOM      5  I   UNL     1       1.068   2.696  18.938  0.00  0.00    +0.000 I 
ATOM      6  C   UNL     1       3.347   4.398  17.903  0.00  0.00    +0.000 A 
ATOM      7  C   UNL     1       4.665   4.849  17.852  0.00  0.00    +0.000 A 
ATOM      8  I   UNL     1       5.186   6.333  16.495  0.00  0.00    +0.000 I 
ENDROOT
BRANCH   1   9
ATOM      9  O   UNL     1       6.885   4.640  18.761  0.00  0.00    +0.000 OA
ATOM     10  H   UNL     1       6.946   4.972  19.674  0.00  0.00    +0.000 HD
ENDBRANCH   1   9
TORSDOF 1
ENDMDL
MODEL 9
REMARK VINA RESULT:      -4.4      2.834      4.149
REMARK  Name = 
REMARK  1 active torsions:
REMARK  status: ('A' for Active; 'I' for Inactive)
REMARK    1  A    between atoms: O_1  and  C_2
REMARK                            x       y       z     vdW  Elec       q    Type
REMARK                         _______ _______ _______ _____ _____    ______ ____
ROOT
ATOM      1  C   UNL     1       3.486   4.786  19.517  0.00  0.00    +0.000 A 
ATOM      2  N   UNL     1       4.586   5.547  19.350  0.00  0.00    +0.000 NA
ATOM      3  C   UNL     1       5.250   5.379  18.181  0.00  0.00    +0.000 A 
ATOM      4  C   UNL     1       4.856   4.488  17.191  0.00  0.00    +0.000 A 
ATOM      5  I   UNL     1       5.943   4.306  15.439  0.00  0.00    +0.000 I 
ATOM      6  C   UNL     1       3.713   3.719  17.400  0.00  0.00    +0.000 A 
ATOM      7  C   UNL     1       3.006   3.868  18.592  0.00  0.00    +0.000 A 
ATOM      8  I   UNL     1       1.302   2.729  18.920  0.00  0.00    +0.000 I 
ENDROOT
BRANCH   1   9
ATOM      9  O   UNL     1       2.879   5.010  20.709  0.00  0.00    +0.000 OA
ATOM     10  H   UNL     1       3.288   4.308  21.244  0.00  0.00    +0.000 HD
ENDBRANCH   1   9
TORSDOF 1
ENDMDL
