MODEL 1
REMARK VINA RESULT:      -7.0      0.000      0.000
REMARK  Name = 
REMARK  5 active torsions:
REMARK  status: ('A' for Active; 'I' for Inactive)
REMARK    1  A    between atoms: C_1  and  C_2
REMARK    2  A    between atoms: N_4  and  C_5
REMARK    3  A    between atoms: C_5  and  C_6
REMARK    4  A    between atoms: C_5  and  C_7
REMARK    5  A    between atoms: C_20  and  N_21
REMARK                            x       y       z     vdW  Elec       q    Type
REMARK                         _______ _______ _______ _____ _____    ______ ____
ROOT
ATOM      1  C   UNL     1       1.286   3.130  21.394  0.00  0.00    +0.000 C 
ATOM      2  C   UNL     1       1.758   4.144  20.425  0.00  0.00    +0.000 A 
ATOM      3  N   UNL     1       2.362   3.787  19.284  0.00  0.00    +0.000 NA
ATOM      4  N   UNL     1       2.602   4.973  18.649  0.00  0.00    +0.000 N 
ATOM      5  C   UNL     1       2.160   6.065  19.359  0.00  0.00    +0.000 A 
ATOM      6  N   UNL     1       2.187   7.380  19.031  0.00  0.00    +0.000 NA
ATOM      7  C   UNL     1       1.625   8.176  19.981  0.00  0.00    +0.000 A 
ATOM      8  N   UNL     1       1.489   9.564  19.736  0.00  0.00    +0.000 N 
ATOM      9  C   UNL     1       0.508  10.448  20.318  0.00  0.00    +0.000 C 
ATOM     10  C   UNL     1       0.181  10.974  18.917  0.00  0.00    +0.000 C 
ATOM     11  C   UNL     1       1.389  10.159  18.427  0.00  0.00    +0.000 C 
ATOM     12  C   UNL     1       1.154   7.638  21.191  0.00  0.00    +0.000 A 
ATOM     13  N   UNL     1       1.124   6.323  21.522  0.00  0.00    +0.000 NA
ATOM     14  C   UNL     1       1.637   5.543  20.536  0.00  0.00    +0.000 A 
ENDROOT
BRANCH  10  15
ATOM     15  N   UNL     1      -1.150  10.509  18.427  0.00  0.00    +0.000 NA
ATOM     16  C   UNL     1      -2.120  11.605  18.594  0.00  0.00    +0.000 C 
ATOM     17  C   UNL     1      -3.542  11.191  18.205  0.00  0.00    +0.000 C 
ATOM     18  C   UNL     1      -3.589  10.618  16.796  0.00  0.00    +0.000 C 
ATOM     19  C   UNL     1      -2.581   9.484  16.672  0.00  0.00    +0.000 C 
ATOM     20  C   UNL     1      -1.179   9.956  17.062  0.00  0.00    +0.000 C 
ENDBRANCH  10  15
BRANCH   4  21
ATOM     21  C   UNL     1       3.342   4.911  17.383  0.00  0.00    +0.000 C 
ATOM     22  C   UNL     1       3.474   3.459  16.898  0.00  0.00    +0.000 C 
BRANCH  21  23
ATOM     23  C   UNL     1       4.640   5.713  17.376  0.00  0.00    +0.000 A 
ATOM     24  C   UNL     1       4.801   6.818  16.517  0.00  0.00    +0.000 A 
ATOM     25  C   UNL     1       5.956   7.603  16.553  0.00  0.00    +0.000 A 
ATOM     26  C   UNL     1       6.975   7.290  17.445  0.00  0.00    +0.000 A 
ATOM     27 CL   UNL     1       8.385   8.273  17.508  0.00  0.00    +0.000 Cl
ATOM     28  C   UNL     1       6.861   6.187  18.282  0.00  0.00    +0.000 A 
ATOM     29  C   UNL     1       5.708   5.397  18.240  0.00  0.00    +0.000 A 
ATOM     30 CL   UNL     1       5.657   4.036  19.305  0.00  0.00    +0.000 Cl
ENDBRANCH  21  23
ENDBRANCH   4  21
TORSDOF 3
ENDMDL
MODEL 2
REMARK VINA RESULT:      -6.8      4.421      8.892
REMARK  Name = 
REMARK  5 active torsions:
REMARK  status: ('A' for Active; 'I' for Inactive)
REMARK    1  A    between atoms: C_1  and  C_2
REMARK    2  A    between atoms: N_4  and  C_5
REMARK    3  A    between atoms: C_5  and  C_6
REMARK    4  A    between atoms: C_5  and  C_7
REMARK    5  A    between atoms: C_20  and  N_21
REMARK                            x       y       z     vdW  Elec       q    Type
REMARK                         _______ _______ _______ _____ _____    ______ ____
ROOT
ATOM      1  C   UNL     1      -3.176  11.528  18.086  0.00  0.00    +0.000 C 
ATOM      2  C   UNL     1      -2.061  11.156  18.985  0.00  0.00    +0.000 A 
ATOM      3  N   UNL     1      -2.076  11.485  20.283  0.00  0.00    +0.000 NA
ATOM      4  N   UNL     1      -0.925  10.939  20.778  0.00  0.00    +0.000 N 
ATOM      5  C   UNL     1      -0.192  10.270  19.826  0.00  0.00    +0.000 A 
ATOM      6  N   UNL     1       0.966   9.577  19.954  0.00  0.00    +0.000 NA
ATOM      7  C   UNL     1       1.383   9.018  18.785  0.00  0.00    +0.000 A 
ATOM      8  N   UNL     1       2.524   8.181  18.781  0.00  0.00    +0.000 N 
ATOM      9  C   UNL     1       2.812   7.123  17.841  0.00  0.00    +0.000 C 
ATOM     10  C   UNL     1       3.108   6.187  19.017  0.00  0.00    +0.000 C 
ATOM     11  C   UNL     1       2.993   7.428  19.917  0.00  0.00    +0.000 C 
ATOM     12  C   UNL     1       0.684   9.241  17.586  0.00  0.00    +0.000 A 
ATOM     13  N   UNL     1      -0.476   9.931  17.455  0.00  0.00    +0.000 NA
ATOM     14  C   UNL     1      -0.903  10.431  18.643  0.00  0.00    +0.000 A 
ENDROOT
BRANCH  10  15
ATOM     15  N   UNL     1       2.049   5.153  19.208  0.00  0.00    +0.000 NA
ATOM     16  C   UNL     1       2.170   4.154  18.133  0.00  0.00    +0.000 C 
ATOM     17  C   UNL     1       1.062   3.098  18.188  0.00  0.00    +0.000 C 
ATOM     18  C   UNL     1       0.992   2.437  19.557  0.00  0.00    +0.000 C 
ATOM     19  C   UNL     1       0.855   3.503  20.634  0.00  0.00    +0.000 C 
ATOM     20  C   UNL     1       1.992   4.523  20.537  0.00  0.00    +0.000 C 
ENDBRANCH  10  15
BRANCH   4  21
ATOM     21  C   UNL     1      -0.615  11.206  22.188  0.00  0.00    +0.000 C 
ATOM     22  C   UNL     1      -0.606   9.902  23.001  0.00  0.00    +0.000 C 
BRANCH  21  23
ATOM     23  C   UNL     1      -1.425  12.342  22.804  0.00  0.00    +0.000 A 
ATOM     24  C   UNL     1      -2.663  12.091  23.428  0.00  0.00    +0.000 A 
ATOM     25  C   UNL     1      -3.378  13.111  24.059  0.00  0.00    +0.000 A 
ATOM     26  C   UNL     1      -2.871  14.405  24.069  0.00  0.00    +0.000 A 
ATOM     27 CL   UNL     1      -3.738  15.655  24.869  0.00  0.00    +0.000 Cl
ATOM     28  C   UNL     1      -1.669  14.692  23.434  0.00  0.00    +0.000 A 
ATOM     29  C   UNL     1      -0.956  13.671  22.795  0.00  0.00    +0.000 A 
ATOM     30 CL   UNL     1       0.521  14.121  22.017  0.00  0.00    +0.000 Cl
ENDBRANCH  21  23
ENDBRANCH   4  21
TORSDOF 3
ENDMDL
MODEL 3
REMARK VINA RESULT:      -6.7      5.154      7.513
REMARK  Name = 
REMARK  5 active torsions:
REMARK  status: ('A' for Active; 'I' for Inactive)
REMARK    1  A    between atoms: C_1  and  C_2
REMARK    2  A    between atoms: N_4  and  C_5
REMARK    3  A    between atoms: C_5  and  C_6
REMARK    4  A    between atoms: C_5  and  C_7
REMARK    5  A    between atoms: C_20  and  N_21
REMARK                            x       y       z     vdW  Elec       q    Type
REMARK                         _______ _______ _______ _____ _____    ______ ____
ROOT
ATOM      1  C   UNL     1       1.498   7.956  20.658  0.00  0.00    +0.000 C 
ATOM      2  C   UNL     1       1.099   9.382  20.633  0.00  0.00    +0.000 A 
ATOM      3  N   UNL     1       1.554  10.214  19.688  0.00  0.00    +0.000 NA
ATOM      4  N   UNL     1       0.940  11.403  19.967  0.00  0.00    +0.000 N 
ATOM      5  C   UNL     1       0.108  11.337  21.060  0.00  0.00    +0.000 A 
ATOM      6  N   UNL     1      -0.688  12.292  21.602  0.00  0.00    +0.000 NA
ATOM      7  C   UNL     1      -1.399  11.845  22.673  0.00  0.00    +0.000 A 
ATOM      8  N   UNL     1      -2.349  12.699  23.283  0.00  0.00    +0.000 N 
ATOM      9  C   UNL     1      -3.519  12.294  24.027  0.00  0.00    +0.000 C 
ATOM     10  C   UNL     1      -4.360  13.263  23.191  0.00  0.00    +0.000 C 
ATOM     11  C   UNL     1      -3.032  13.777  22.613  0.00  0.00    +0.000 C 
ATOM     12  C   UNL     1      -1.223  10.541  23.168  0.00  0.00    +0.000 A 
ATOM     13  N   UNL     1      -0.430   9.583  22.627  0.00  0.00    +0.000 NA
ATOM     14  C   UNL     1       0.226  10.033  21.527  0.00  0.00    +0.000 A 
ENDROOT
BRANCH  10  15
ATOM     15  N   UNL     1      -5.253  12.558  22.224  0.00  0.00    +0.000 NA
ATOM     16  C   UNL     1      -6.650  12.754  22.646  0.00  0.00    +0.000 C 
ATOM     17  C   UNL     1      -7.641  11.986  21.767  0.00  0.00    +0.000 C 
ATOM     18  C   UNL     1      -7.452  12.323  20.294  0.00  0.00    +0.000 C 
ATOM     19  C   UNL     1      -6.001  12.095  19.899  0.00  0.00    +0.000 C 
ATOM     20  C   UNL     1      -5.059  12.893  20.804  0.00  0.00    +0.000 C 
ENDBRANCH  10  15
BRANCH   4  21
ATOM     21  C   UNL     1       1.310  12.554  19.135  0.00  0.00    +0.000 C 
ATOM     22  C   UNL     1       2.264  12.129  18.009  0.00  0.00    +0.000 C 
BRANCH  21  23
ATOM     23  C   UNL     1       1.752  13.782  19.924  0.00  0.00    +0.000 A 
ATOM     24  C   UNL     1       2.873  13.727  20.777  0.00  0.00    +0.000 A 
ATOM     25  C   UNL     1       3.330  14.863  21.448  0.00  0.00    +0.000 A 
ATOM     26  C   UNL     1       2.669  16.075  21.285  0.00  0.00    +0.000 A 
ATOM     27 CL   UNL     1       3.249  17.479  22.090  0.00  0.00    +0.000 Cl
ATOM     28  C   UNL     1       1.541  16.155  20.477  0.00  0.00    +0.000 A 
ATOM     29  C   UNL     1       1.078  15.015  19.811  0.00  0.00    +0.000 A 
ATOM     30 CL   UNL     1      -0.340  15.202  18.840  0.00  0.00    +0.000 Cl
ENDBRANCH  21  23
ENDBRANCH   4  21
TORSDOF 3
ENDMDL
MODEL 4
REMARK VINA RESULT:      -6.7      5.259      8.262
REMARK  Name = 
REMARK  5 active torsions:
REMARK  status: ('A' for Active; 'I' for Inactive)
REMARK    1  A    between atoms: C_1  and  C_2
REMARK    2  A    between atoms: N_4  and  C_5
REMARK    3  A    between atoms: C_5  and  C_6
REMARK    4  A    between atoms: C_5  and  C_7
REMARK    5  A    between atoms: C_20  and  N_21
REMARK                            x       y       z     vdW  Elec       q    Type
REMARK                         _______ _______ _______ _____ _____    ______ ____
ROOT
ATOM      1  C   UNL     1       1.598   9.499  17.803  0.00  0.00    +0.000 C 
ATOM      2  C   UNL     1       1.542  10.677  18.697  0.00  0.00    +0.000 A 
ATOM      3  N   UNL     1       2.247  11.785  18.431  0.00  0.00    +0.000 NA
ATOM      4  N   UNL     1       1.904  12.646  19.436  0.00  0.00    +0.000 N 
ATOM      5  C   UNL     1       0.999  12.109  20.322  0.00  0.00    +0.000 A 
ATOM      6  N   UNL     1       0.407  12.674  21.403  0.00  0.00    +0.000 NA
ATOM      7  C   UNL     1      -0.467  11.838  22.027  0.00  0.00    +0.000 A 
ATOM      8  N   UNL     1      -1.237  12.319  23.113  0.00  0.00    +0.000 N 
ATOM      9  C   UNL     1      -2.521  11.819  23.545  0.00  0.00    +0.000 C 
ATOM     10  C   UNL     1      -3.051  13.256  23.561  0.00  0.00    +0.000 C 
ATOM     11  C   UNL     1      -1.600  13.699  23.312  0.00  0.00    +0.000 C 
ATOM     12  C   UNL     1      -0.634  10.510  21.595  0.00  0.00    +0.000 A 
ATOM     13  N   UNL     1      -0.044   9.943  20.512  0.00  0.00    +0.000 NA
ATOM     14  C   UNL     1       0.778  10.813  19.873  0.00  0.00    +0.000 A 
ENDROOT
BRANCH  10  15
ATOM     15  N   UNL     1      -4.007  13.526  22.447  0.00  0.00    +0.000 NA
ATOM     16  C   UNL     1      -5.350  13.089  22.864  0.00  0.00    +0.000 C 
ATOM     17  C   UNL     1      -6.387  13.238  21.747  0.00  0.00    +0.000 C 
ATOM     18  C   UNL     1      -6.410  14.658  21.197  0.00  0.00    +0.000 C 
ATOM     19  C   UNL     1      -5.007  15.063  20.769  0.00  0.00    +0.000 C 
ATOM     20  C   UNL     1      -4.017  14.903  21.924  0.00  0.00    +0.000 C 
ENDBRANCH  10  15
BRANCH   4  21
ATOM     21  C   UNL     1       2.591  13.943  19.463  0.00  0.00    +0.000 C 
ATOM     22  C   UNL     1       3.207  14.205  20.846  0.00  0.00    +0.000 C 
BRANCH  21  23
ATOM     23  C   UNL     1       1.774  15.098  18.894  0.00  0.00    +0.000 A 
ATOM     24  C   UNL     1       0.366  15.090  18.967  0.00  0.00    +0.000 A 
ATOM     25  C   UNL     1      -0.389  16.175  18.514  0.00  0.00    +0.000 A 
ATOM     26  C   UNL     1       0.251  17.283  17.972  0.00  0.00    +0.000 A 
ATOM     27 CL   UNL     1      -0.678  18.629  17.441  0.00  0.00    +0.000 Cl
ATOM     28  C   UNL     1       1.635  17.308  17.856  0.00  0.00    +0.000 A 
ATOM     29  C   UNL     1       2.391  16.218  18.302  0.00  0.00    +0.000 A 
ATOM     30 CL   UNL     1       4.105  16.326  18.104  0.00  0.00    +0.000 Cl
ENDBRANCH  21  23
ENDBRANCH   4  21
TORSDOF 3
ENDMDL
MODEL 5
REMARK VINA RESULT:      -6.7      2.787      5.693
REMARK  Name = 
REMARK  5 active torsions:
REMARK  status: ('A' for Active; 'I' for Inactive)
REMARK    1  A    between atoms: C_1  and  C_2
REMARK    2  A    between atoms: N_4  and  C_5
REMARK    3  A    between atoms: C_5  and  C_6
REMARK    4  A    between atoms: C_5  and  C_7
REMARK    5  A    between atoms: C_20  and  N_21
REMARK                            x       y       z     vdW  Elec       q    Type
REMARK                         _______ _______ _______ _____ _____    ______ ____
ROOT
ATOM      1  C   UNL     1       2.190  13.494  20.372  0.00  0.00    +0.000 C 
ATOM      2  C   UNL     1       1.451  12.254  20.043  0.00  0.00    +0.000 A 
ATOM      3  N   UNL     1       1.788  11.079  20.591  0.00  0.00    +0.000 NA
ATOM      4  N   UNL     1       0.867  10.202  20.090  0.00  0.00    +0.000 N 
ATOM      5  C   UNL     1      -0.042  10.797  19.247  0.00  0.00    +0.000 A 
ATOM      6  N   UNL     1      -1.109  10.260  18.606  0.00  0.00    +0.000 NA
ATOM      7  C   UNL     1      -1.804  11.173  17.873  0.00  0.00    +0.000 A 
ATOM      8  N   UNL     1      -3.001  10.783  17.227  0.00  0.00    +0.000 N 
ATOM      9  C   UNL     1      -4.108  11.640  16.876  0.00  0.00    +0.000 C 
ATOM     10  C   UNL     1      -5.065  10.637  17.527  0.00  0.00    +0.000 C 
ATOM     11  C   UNL     1      -3.851   9.703  17.661  0.00  0.00    +0.000 C 
ATOM     12  C   UNL     1      -1.363  12.504  17.768  0.00  0.00    +0.000 A 
ATOM     13  N   UNL     1      -0.297  13.045  18.410  0.00  0.00    +0.000 NA
ATOM     14  C   UNL     1       0.346  12.130  19.179  0.00  0.00    +0.000 A 
ENDROOT
BRANCH  10  15
ATOM     15  N   UNL     1      -5.635  11.140  18.812  0.00  0.00    +0.000 NA
ATOM     16  C   UNL     1      -5.807  12.599  18.710  0.00  0.00    +0.000 C 
ATOM     17  C   UNL     1      -6.299  13.223  20.019  0.00  0.00    +0.000 C 
ATOM     18  C   UNL     1      -7.570  12.546  20.513  0.00  0.00    +0.000 C 
ATOM     19  C   UNL     1      -7.344  11.045  20.614  0.00  0.00    +0.000 C 
ATOM     20  C   UNL     1      -6.863  10.475  19.278  0.00  0.00    +0.000 C 
ENDBRANCH  10  15
BRANCH   4  21
ATOM     21  C   UNL     1       1.028   8.789  20.453  0.00  0.00    +0.000 C 
ATOM     22  C   UNL     1       1.402   8.646  21.936  0.00  0.00    +0.000 C 
BRANCH  21  23
ATOM     23  C   UNL     1       1.900   7.990  19.490  0.00  0.00    +0.000 A 
ATOM     24  C   UNL     1       2.459   8.599  18.348  0.00  0.00    +0.000 A 
ATOM     25  C   UNL     1       3.318   7.897  17.499  0.00  0.00    +0.000 A 
ATOM     26  C   UNL     1       3.625   6.569  17.772  0.00  0.00    +0.000 A 
ATOM     27 CL   UNL     1       4.703   5.714  16.742  0.00  0.00    +0.000 Cl
ATOM     28  C   UNL     1       3.064   5.931  18.871  0.00  0.00    +0.000 A 
ATOM     29  C   UNL     1       2.198   6.632  19.717  0.00  0.00    +0.000 A 
ATOM     30 CL   UNL     1       1.533   5.755  21.051  0.00  0.00    +0.000 Cl
ENDBRANCH  21  23
ENDBRANCH   4  21
TORSDOF 3
ENDMDL
MODEL 6
REMARK VINA RESULT:      -6.6      6.670      9.774
REMARK  Name = 
REMARK  5 active torsions:
REMARK  status: ('A' for Active; 'I' for Inactive)
REMARK    1  A    between atoms: C_1  and  C_2
REMARK    2  A    between atoms: N_4  and  C_5
REMARK    3  A    between atoms: C_5  and  C_6
REMARK    4  A    between atoms: C_5  and  C_7
REMARK    5  A    between atoms: C_20  and  N_21
REMARK                            x       y       z     vdW  Elec       q    Type
REMARK                         _______ _______ _______ _____ _____    ______ ____
ROOT
ATOM      1  C   UNL     1       1.772  12.588  18.565  0.00  0.00    +0.000 C 
ATOM      2  C   UNL     1       0.535  12.386  19.352  0.00  0.00    +0.000 A 
ATOM      3  N   UNL     1       0.525  12.538  20.683  0.00  0.00    +0.000 NA
ATOM      4  N   UNL     1      -0.777  12.317  21.034  0.00  0.00    +0.000 N 
ATOM      5  C   UNL     1      -1.586  12.037  19.958  0.00  0.00    +0.000 A 
ATOM      6  N   UNL     1      -2.922  11.809  19.915  0.00  0.00    +0.000 NA
ATOM      7  C   UNL     1      -3.384  11.593  18.652  0.00  0.00    +0.000 A 
ATOM      8  N   UNL     1      -4.774  11.440  18.436  0.00  0.00    +0.000 N 
ATOM      9  C   UNL     1      -5.492  11.727  17.216  0.00  0.00    +0.000 C 
ATOM     10  C   UNL     1      -6.511  12.531  18.029  0.00  0.00    +0.000 C 
ATOM     11  C   UNL     1      -5.801  11.993  19.282  0.00  0.00    +0.000 C 
ATOM     12  C   UNL     1      -2.504  11.546  17.557  0.00  0.00    +0.000 A 
ATOM     13  N   UNL     1      -1.167  11.776  17.597  0.00  0.00    +0.000 NA
ATOM     14  C   UNL     1      -0.739  12.044  18.856  0.00  0.00    +0.000 A 
ENDROOT
BRANCH  10  15
ATOM     15  N   UNL     1      -6.390  14.002  17.803  0.00  0.00    +0.000 NA
ATOM     16  C   UNL     1      -7.274  14.379  16.688  0.00  0.00    +0.000 C 
ATOM     17  C   UNL     1      -7.149  15.859  16.316  0.00  0.00    +0.000 C 
ATOM     18  C   UNL     1      -7.368  16.756  17.527  0.00  0.00    +0.000 C 
ATOM     19  C   UNL     1      -6.428  16.339  18.649  0.00  0.00    +0.000 C 
ATOM     20  C   UNL     1      -6.603  14.856  18.983  0.00  0.00    +0.000 C 
ENDBRANCH  10  15
BRANCH   4  21
ATOM     21  C   UNL     1      -1.092  12.334  22.467  0.00  0.00    +0.000 C 
ATOM     22  C   UNL     1      -1.172  10.905  23.025  0.00  0.00    +0.000 C 
BRANCH  21  23
ATOM     23  C   UNL     1      -2.262  13.238  22.842  0.00  0.00    +0.000 A 
ATOM     24  C   UNL     1      -3.481  12.691  23.292  0.00  0.00    +0.000 A 
ATOM     25  C   UNL     1      -4.534  13.510  23.706  0.00  0.00    +0.000 A 
ATOM     26  C   UNL     1      -4.390  14.892  23.670  0.00  0.00    +0.000 A 
ATOM     27 CL   UNL     1      -5.676  15.898  24.206  0.00  0.00    +0.000 Cl
ATOM     28  C   UNL     1      -3.213  15.462  23.201  0.00  0.00    +0.000 A 
ATOM     29  C   UNL     1      -2.161  14.642  22.778  0.00  0.00    +0.000 A 
ATOM     30 CL   UNL     1      -0.740  15.437  22.195  0.00  0.00    +0.000 Cl
ENDBRANCH  21  23
ENDBRANCH   4  21
TORSDOF 3
ENDMDL
MODEL 7
REMARK VINA RESULT:      -6.5      4.114      8.634
REMARK  Name = 
REMARK  5 active torsions:
REMARK  status: ('A' for Active; 'I' for Inactive)
REMARK    1  A    between atoms: C_1  and  C_2
REMARK    2  A    between atoms: N_4  and  C_5
REMARK    3  A    between atoms: C_5  and  C_6
REMARK    4  A    between atoms: C_5  and  C_7
REMARK    5  A    between atoms: C_20  and  N_21
REMARK                            x       y       z     vdW  Elec       q    Type
REMARK                         _______ _______ _______ _____ _____    ______ ____
ROOT
ATOM      1  C   UNL     1      -3.369  11.536  18.263  0.00  0.00    +0.000 C 
ATOM      2  C   UNL     1      -2.164  11.218  19.062  0.00  0.00    +0.000 A 
ATOM      3  N   UNL     1      -2.058  11.602  20.341  0.00  0.00    +0.000 NA
ATOM      4  N   UNL     1      -0.854  11.093  20.742  0.00  0.00    +0.000 N 
ATOM      5  C   UNL     1      -0.206  10.395  19.750  0.00  0.00    +0.000 A 
ATOM      6  N   UNL     1       0.972   9.724  19.791  0.00  0.00    +0.000 NA
ATOM      7  C   UNL     1       1.282   9.123  18.610  0.00  0.00    +0.000 A 
ATOM      8  N   UNL     1       2.432   8.302  18.527  0.00  0.00    +0.000 N 
ATOM      9  C   UNL     1       2.645   7.209  17.607  0.00  0.00    +0.000 C 
ATOM     10  C   UNL     1       3.073   6.329  18.785  0.00  0.00    +0.000 C 
ATOM     11  C   UNL     1       3.023   7.605  19.641  0.00  0.00    +0.000 C 
ATOM     12  C   UNL     1       0.464   9.284  17.478  0.00  0.00    +0.000 A 
ATOM     13  N   UNL     1      -0.716   9.952  17.434  0.00  0.00    +0.000 NA
ATOM     14  C   UNL     1      -1.032  10.495  18.637  0.00  0.00    +0.000 A 
ENDROOT
BRANCH  10  15
ATOM     15  N   UNL     1       2.056   5.289  19.121  0.00  0.00    +0.000 NA
ATOM     16  C   UNL     1       2.138   4.211  18.121  0.00  0.00    +0.000 C 
ATOM     17  C   UNL     1       1.065   3.138  18.327  0.00  0.00    +0.000 C 
ATOM     18  C   UNL     1       1.098   2.585  19.744  0.00  0.00    +0.000 C 
ATOM     19  C   UNL     1       0.999   3.728  20.743  0.00  0.00    +0.000 C 
ATOM     20  C   UNL     1       2.100   4.763  20.496  0.00  0.00    +0.000 C 
ENDBRANCH  10  15
BRANCH   4  21
ATOM     21  C   UNL     1      -0.412  11.423  22.102  0.00  0.00    +0.000 C 
ATOM     22  C   UNL     1      -0.917  10.379  23.109  0.00  0.00    +0.000 C 
BRANCH  21  23
ATOM     23  C   UNL     1      -0.653  12.875  22.504  0.00  0.00    +0.000 A 
ATOM     24  C   UNL     1      -1.688  13.213  23.399  0.00  0.00    +0.000 A 
ATOM     25  C   UNL     1      -1.873  14.529  23.831  0.00  0.00    +0.000 A 
ATOM     26  C   UNL     1      -1.030  15.532  23.369  0.00  0.00    +0.000 A 
ATOM     27 CL   UNL     1      -1.240  17.146  23.922  0.00  0.00    +0.000 Cl
ATOM     28  C   UNL     1      -0.020  15.236  22.460  0.00  0.00    +0.000 A 
ATOM     29  C   UNL     1       0.160  13.920  22.022  0.00  0.00    +0.000 A 
ATOM     30 CL   UNL     1       1.428  13.646  20.879  0.00  0.00    +0.000 Cl
ENDBRANCH  21  23
ENDBRANCH   4  21
TORSDOF 3
ENDMDL
MODEL 8
REMARK VINA RESULT:      -6.5      6.175     10.113
REMARK  Name = 
REMARK  5 active torsions:
REMARK  status: ('A' for Active; 'I' for Inactive)
REMARK    1  A    between atoms: C_1  and  C_2
REMARK    2  A    between atoms: N_4  and  C_5
REMARK    3  A    between atoms: C_5  and  C_6
REMARK    4  A    between atoms: C_5  and  C_7
REMARK    5  A    between atoms: C_20  and  N_21
REMARK                            x       y       z     vdW  Elec       q    Type
REMARK                         _______ _______ _______ _____ _____    ______ ____
ROOT
ATOM      1  C   UNL     1       0.010  10.023  18.135  0.00  0.00    +0.000 C 
ATOM      2  C   UNL     1       0.187  10.923  19.297  0.00  0.00    +0.000 A 
ATOM      3  N   UNL     1      -0.593  10.820  20.380  0.00  0.00    +0.000 NA
ATOM      4  N   UNL     1      -0.103  11.768  21.235  0.00  0.00    +0.000 N 
ATOM      5  C   UNL     1       0.968  12.459  20.718  0.00  0.00    +0.000 A 
ATOM      6  N   UNL     1       1.728  13.428  21.285  0.00  0.00    +0.000 NA
ATOM      7  C   UNL     1       2.731  13.860  20.472  0.00  0.00    +0.000 A 
ATOM      8  N   UNL     1       3.670  14.798  20.962  0.00  0.00    +0.000 N 
ATOM      9  C   UNL     1       5.029  14.975  20.506  0.00  0.00    +0.000 C 
ATOM     10  C   UNL     1       5.501  14.932  21.962  0.00  0.00    +0.000 C 
ATOM     11  C   UNL     1       4.014  14.964  22.352  0.00  0.00    +0.000 C 
ATOM     12  C   UNL     1       2.863  13.369  19.161  0.00  0.00    +0.000 A 
ATOM     13  N   UNL     1       2.106  12.398  18.592  0.00  0.00    +0.000 NA
ATOM     14  C   UNL     1       1.149  11.942  19.440  0.00  0.00    +0.000 A 
ENDROOT
BRANCH  10  15
ATOM     15  N   UNL     1       6.225  13.669  22.292  0.00  0.00    +0.000 NA
ATOM     16  C   UNL     1       7.669  13.895  22.112  0.00  0.00    +0.000 C 
ATOM     17  C   UNL     1       8.493  12.624  22.336  0.00  0.00    +0.000 C 
ATOM     18  C   UNL     1       8.193  11.999  23.691  0.00  0.00    +0.000 C 
ATOM     19  C   UNL     1       6.695  11.773  23.830  0.00  0.00    +0.000 C 
ATOM     20  C   UNL     1       5.924  13.076  23.606  0.00  0.00    +0.000 C 
ENDBRANCH  10  15
BRANCH   4  21
ATOM     21  C   UNL     1      -0.819  11.955  22.502  0.00  0.00    +0.000 C 
ATOM     22  C   UNL     1      -1.076  10.604  23.188  0.00  0.00    +0.000 C 
BRANCH  21  23
ATOM     23  C   UNL     1      -2.036  12.869  22.406  0.00  0.00    +0.000 A 
ATOM     24  C   UNL     1      -3.275  12.377  21.949  0.00  0.00    +0.000 A 
ATOM     25  C   UNL     1      -4.414  13.186  21.926  0.00  0.00    +0.000 A 
ATOM     26  C   UNL     1      -4.330  14.507  22.352  0.00  0.00    +0.000 A 
ATOM     27 CL   UNL     1      -5.738  15.494  22.349  0.00  0.00    +0.000 Cl
ATOM     28  C   UNL     1      -3.116  15.032  22.777  0.00  0.00    +0.000 A 
ATOM     29  C   UNL     1      -1.975  14.223  22.793  0.00  0.00    +0.000 A 
ATOM     30 CL   UNL     1      -0.504  14.963  23.322  0.00  0.00    +0.000 Cl
ENDBRANCH  21  23
ENDBRANCH   4  21
TORSDOF 3
ENDMDL
MODEL 9
REMARK VINA RESULT:      -6.4      2.269      2.646
REMARK  Name = 
REMARK  5 active torsions:
REMARK  status: ('A' for Active; 'I' for Inactive)
REMARK    1  A    between atoms: C_1  and  C_2
REMARK    2  A    between atoms: N_4  and  C_5
REMARK    3  A    between atoms: C_5  and  C_6
REMARK    4  A    between atoms: C_5  and  C_7
REMARK    5  A    between atoms: C_20  and  N_21
REMARK                            x       y       z     vdW  Elec       q    Type
REMARK                         _______ _______ _______ _____ _____    ______ ____
ROOT
ATOM      1  C   UNL     1       1.921   2.216  18.485  0.00  0.00    +0.000 C 
ATOM      2  C   UNL     1       2.486   3.583  18.552  0.00  0.00    +0.000 A 
ATOM      3  N   UNL     1       3.503   3.953  17.763  0.00  0.00    +0.000 NA
ATOM      4  N   UNL     1       3.705   5.268  18.077  0.00  0.00    +0.000 N 
ATOM      5  C   UNL     1       2.839   5.733  19.039  0.00  0.00    +0.000 A 
ATOM      6  N   UNL     1       2.715   6.977  19.564  0.00  0.00    +0.000 NA
ATOM      7  C   UNL     1       1.714   7.069  20.482  0.00  0.00    +0.000 A 
ATOM      8  N   UNL     1       1.398   8.328  21.045  0.00  0.00    +0.000 N 
ATOM      9  C   UNL     1       0.121   8.734  21.583  0.00  0.00    +0.000 C 
ATOM     10  C   UNL     1       0.198  10.014  20.746  0.00  0.00    +0.000 C 
ATOM     11  C   UNL     1       1.637   9.596  20.402  0.00  0.00    +0.000 C 
ATOM     12  C   UNL     1       0.974   5.936  20.862  0.00  0.00    +0.000 A 
ATOM     13  N   UNL     1       1.094   4.691  20.337  0.00  0.00    +0.000 NA
ATOM     14  C   UNL     1       2.058   4.636  19.383  0.00  0.00    +0.000 A 
ENDROOT
BRANCH  10  15
ATOM     15  N   UNL     1      -0.763  10.010  19.603  0.00  0.00    +0.000 NA
ATOM     16  C   UNL     1      -1.604  11.215  19.694  0.00  0.00    +0.000 C 
ATOM     17  C   UNL     1      -2.690  11.253  18.614  0.00  0.00    +0.000 C 
ATOM     18  C   UNL     1      -2.095  11.092  17.222  0.00  0.00    +0.000 C 
ATOM     19  C   UNL     1      -1.245   9.831  17.171  0.00  0.00    +0.000 C 
ATOM     20  C   UNL     1      -0.174   9.853  18.264  0.00  0.00    +0.000 C 
ENDBRANCH  10  15
BRANCH   4  21
ATOM     21  C   UNL     1       4.832   5.942  17.421  0.00  0.00    +0.000 C 
ATOM     22  C   UNL     1       4.531   7.435  17.219  0.00  0.00    +0.000 C 
BRANCH  21  23
ATOM     23  C   UNL     1       5.363   5.220  16.187  0.00  0.00    +0.000 A 
ATOM     24  C   UNL     1       4.586   5.128  15.015  0.00  0.00    +0.000 A 
ATOM     25  C   UNL     1       5.090   4.533  13.856  0.00  0.00    +0.000 A 
ATOM     26  C   UNL     1       6.378   4.011  13.852  0.00  0.00    +0.000 A 
ATOM     27 CL   UNL     1       7.008   3.303  12.417  0.00  0.00    +0.000 Cl
ATOM     28  C   UNL     1       7.158   4.057  15.001  0.00  0.00    +0.000 A 
ATOM     29  C   UNL     1       6.650   4.646  16.164  0.00  0.00    +0.000 A 
ATOM     30 CL   UNL     1       7.682   4.645  17.552  0.00  0.00    +0.000 Cl
ENDBRANCH  21  23
ENDBRANCH   4  21
TORSDOF 3
ENDMDL
