MODEL 1
REMARK VINA RESULT:      -9.4      0.000      0.000
REMARK  Name = 
REMARK  4 active torsions:
REMARK  status: ('A' for Active; 'I' for Inactive)
REMARK    1  A    between atoms: C_3  and  C_4
REMARK    2  A    between atoms: C_16  and  O_17
REMARK    3  A    between atoms: N_24  and  C_25
REMARK    4  A    between atoms: C_25  and  C_26
REMARK                            x       y       z     vdW  Elec       q    Type
REMARK                         _______ _______ _______ _____ _____    ______ ____
ROOT
ATOM      1  O   UNL     1       2.415   9.121  17.559  0.00  0.00    +0.000 OA
ATOM      2  C   UNL     1       1.737   8.927  18.572  0.00  0.00    +0.000 A 
ATOM      3  C   UNL     1       1.955   7.650  19.335  0.00  0.00    +0.000 A 
ATOM      4  C   UNL     1       1.529   7.612  20.620  0.00  0.00    +0.000 A 
ATOM      5  C   UNL     1       0.814   8.788  21.206  0.00  0.00    +0.000 A 
ATOM      6  C   UNL     1       0.581   8.923  22.588  0.00  0.00    +0.000 A 
ATOM      7  C   UNL     1      -0.076  10.049  23.107  0.00  0.00    +0.000 A 
ATOM      8  C   UNL     1      -0.575  11.022  22.254  0.00  0.00    +0.000 A 
ATOM      9  C   UNL     1      -0.392  10.886  20.885  0.00  0.00    +0.000 A 
ATOM     10  C   UNL     1       0.348   9.808  20.354  0.00  0.00    +0.000 A 
ATOM     11  N   UNL     1       0.739   9.782  18.982  0.00  0.00    +0.000 N 
ENDROOT
BRANCH   3  12
ATOM     12  C   UNL     1       2.623   6.516  18.532  0.00  0.00    +0.000 C 
ATOM     13  N   UNL     1       2.005   5.393  18.344  0.00  0.00    +0.000 NA
ATOM     14  S   UNL     1       2.863   4.103  17.805  0.00  0.00    +0.000 S 
ATOM     15  O   UNL     1       3.427   3.418  18.952  0.00  0.00    +0.000 OA
ATOM     16  O   UNL     1       2.047   3.383  16.841  0.00  0.00    +0.000 OA
ATOM     17  C   UNL     1       4.255   4.710  16.898  0.00  0.00    +0.000 A 
ATOM     18  C   UNL     1       5.015   3.890  16.047  0.00  0.00    +0.000 A 
ATOM     19  C   UNL     1       6.102   4.440  15.360  0.00  0.00    +0.000 A 
ATOM     20  C   UNL     1       6.419   5.793  15.521  0.00  0.00    +0.000 A 
ATOM     21  C   UNL     1       5.661   6.583  16.404  0.00  0.00    +0.000 A 
ATOM     22  C   UNL     1       4.598   6.022  17.120  0.00  0.00    +0.000 A 
ATOM     23  N   UNL     1       3.897   6.799  18.053  0.00  0.00    +0.000 N 
ATOM     24  H   UNL     1       4.522   7.209  18.763  0.00  0.00    +0.000 HD
ENDBRANCH   3  12
BRANCH   4  25
ATOM     25  O   UNL     1       1.665   6.533  21.461  0.00  0.00    +0.000 OA
ATOM     26  H   UNL     1       1.941   6.853  22.345  0.00  0.00    +0.000 HD
ENDBRANCH   4  25
BRANCH  11  27
ATOM     27  C   UNL     1       0.270  10.794  18.030  0.00  0.00    +0.000 C 
BRANCH  27  28
ATOM     28  C   UNL     1      -1.234  10.751  17.837  0.00  0.00    +0.000 A 
ATOM     29  C   UNL     1      -2.042  11.808  18.281  0.00  0.00    +0.000 A 
ATOM     30  C   UNL     1      -3.434  11.712  18.222  0.00  0.00    +0.000 A 
ATOM     31  C   UNL     1      -4.034  10.577  17.683  0.00  0.00    +0.000 A 
ATOM     32  C   UNL     1      -3.243   9.553  17.167  0.00  0.00    +0.000 A 
ATOM     33  C   UNL     1      -1.850   9.641  17.236  0.00  0.00    +0.000 A 
ENDBRANCH  27  28
ENDBRANCH  11  27
TORSDOF 4
ENDMDL
MODEL 2
REMARK VINA RESULT:      -9.4      2.784      7.888
REMARK  Name = 
REMARK  4 active torsions:
REMARK  status: ('A' for Active; 'I' for Inactive)
REMARK    1  A    between atoms: C_3  and  C_4
REMARK    2  A    between atoms: C_16  and  O_17
REMARK    3  A    between atoms: N_24  and  C_25
REMARK    4  A    between atoms: C_25  and  C_26
REMARK                            x       y       z     vdW  Elec       q    Type
REMARK                         _______ _______ _______ _____ _____    ______ ____
ROOT
ATOM      1  O   UNL     1       2.833   7.821  17.507  0.00  0.00    +0.000 OA
ATOM      2  C   UNL     1       2.922   6.740  18.097  0.00  0.00    +0.000 A 
ATOM      3  C   UNL     1       2.118   6.551  19.354  0.00  0.00    +0.000 A 
ATOM      4  C   UNL     1       1.900   5.280  19.768  0.00  0.00    +0.000 A 
ATOM      5  C   UNL     1       2.507   4.136  19.019  0.00  0.00    +0.000 A 
ATOM      6  C   UNL     1       2.115   2.800  19.229  0.00  0.00    +0.000 A 
ATOM      7  C   UNL     1       2.689   1.750  18.495  0.00  0.00    +0.000 A 
ATOM      8  C   UNL     1       3.712   2.006  17.595  0.00  0.00    +0.000 A 
ATOM      9  C   UNL     1       4.141   3.311  17.405  0.00  0.00    +0.000 A 
ATOM     10  C   UNL     1       3.511   4.388  18.065  0.00  0.00    +0.000 A 
ATOM     11  N   UNL     1       3.784   5.741  17.705  0.00  0.00    +0.000 N 
ENDROOT
BRANCH   3  12
ATOM     12  C   UNL     1       1.660   7.855  20.038  0.00  0.00    +0.000 C 
ATOM     13  N   UNL     1       1.565   7.921  21.329  0.00  0.00    +0.000 NA
ATOM     14  S   UNL     1       0.750   9.177  21.995  0.00  0.00    +0.000 S 
ATOM     15  O   UNL     1      -0.654   8.824  22.069  0.00  0.00    +0.000 OA
ATOM     16  O   UNL     1       1.468   9.608  23.184  0.00  0.00    +0.000 OA
ATOM     17  C   UNL     1       0.827  10.540  20.869  0.00  0.00    +0.000 A 
ATOM     18  C   UNL     1       0.506  11.853  21.252  0.00  0.00    +0.000 A 
ATOM     19  C   UNL     1       0.591  12.880  20.307  0.00  0.00    +0.000 A 
ATOM     20  C   UNL     1       0.995  12.595  18.999  0.00  0.00    +0.000 A 
ATOM     21  C   UNL     1       1.279  11.267  18.634  0.00  0.00    +0.000 A 
ATOM     22  C   UNL     1       1.156  10.235  19.570  0.00  0.00    +0.000 A 
ATOM     23  N   UNL     1       1.369   8.906  19.176  0.00  0.00    +0.000 N 
ATOM     24  H   UNL     1       0.765   8.635  18.386  0.00  0.00    +0.000 HD
ENDBRANCH   3  12
BRANCH   4  25
ATOM     25  O   UNL     1       1.175   4.931  20.882  0.00  0.00    +0.000 OA
ATOM     26  H   UNL     1       1.270   5.635  21.556  0.00  0.00    +0.000 HD
ENDBRANCH   4  25
BRANCH  11  27
ATOM     27  C   UNL     1       4.834   6.082  16.741  0.00  0.00    +0.000 C 
BRANCH  27  28
ATOM     28  C   UNL     1       6.136   6.466  17.417  0.00  0.00    +0.000 A 
ATOM     29  C   UNL     1       6.726   5.618  18.365  0.00  0.00    +0.000 A 
ATOM     30  C   UNL     1       7.852   6.027  19.084  0.00  0.00    +0.000 A 
ATOM     31  C   UNL     1       8.425   7.272  18.834  0.00  0.00    +0.000 A 
ATOM     32  C   UNL     1       7.896   8.092  17.840  0.00  0.00    +0.000 A 
ATOM     33  C   UNL     1       6.763   7.690  17.130  0.00  0.00    +0.000 A 
ENDBRANCH  27  28
ENDBRANCH  11  27
TORSDOF 4
ENDMDL
MODEL 3
REMARK VINA RESULT:      -8.8      1.316      2.249
REMARK  Name = 
REMARK  4 active torsions:
REMARK  status: ('A' for Active; 'I' for Inactive)
REMARK    1  A    between atoms: C_3  and  C_4
REMARK    2  A    between atoms: C_16  and  O_17
REMARK    3  A    between atoms: N_24  and  C_25
REMARK    4  A    between atoms: C_25  and  C_26
REMARK                            x       y       z     vdW  Elec       q    Type
REMARK                         _______ _______ _______ _____ _____    ______ ____
ROOT
ATOM      1  O   UNL     1       2.314   9.008  17.500  0.00  0.00    +0.000 OA
ATOM      2  C   UNL     1       1.676   8.809  18.538  0.00  0.00    +0.000 A 
ATOM      3  C   UNL     1       1.971   7.560  19.321  0.00  0.00    +0.000 A 
ATOM      4  C   UNL     1       1.586   7.534  20.620  0.00  0.00    +0.000 A 
ATOM      5  C   UNL     1       0.839   8.693  21.200  0.00  0.00    +0.000 A 
ATOM      6  C   UNL     1       0.642   8.850  22.586  0.00  0.00    +0.000 A 
ATOM      7  C   UNL     1      -0.047   9.960  23.100  0.00  0.00    +0.000 A 
ATOM      8  C   UNL     1      -0.612  10.891  22.242  0.00  0.00    +0.000 A 
ATOM      9  C   UNL     1      -0.464  10.731  20.872  0.00  0.00    +0.000 A 
ATOM     10  C   UNL     1       0.304   9.673  20.341  0.00  0.00    +0.000 A 
ATOM     11  N   UNL     1       0.656   9.631  18.959  0.00  0.00    +0.000 N 
ENDROOT
BRANCH   3  12
ATOM     12  C   UNL     1       2.663   6.437  18.523  0.00  0.00    +0.000 C 
ATOM     13  N   UNL     1       2.086   5.285  18.376  0.00  0.00    +0.000 NA
ATOM     14  S   UNL     1       2.981   4.020  17.840  0.00  0.00    +0.000 S 
ATOM     15  O   UNL     1       3.604   3.384  18.984  0.00  0.00    +0.000 OA
ATOM     16  O   UNL     1       2.168   3.247  16.915  0.00  0.00    +0.000 OA
ATOM     17  C   UNL     1       4.321   4.663  16.880  0.00  0.00    +0.000 A 
ATOM     18  C   UNL     1       5.090   3.856  16.025  0.00  0.00    +0.000 A 
ATOM     19  C   UNL     1       6.134   4.434  15.296  0.00  0.00    +0.000 A 
ATOM     20  C   UNL     1       6.399   5.802  15.420  0.00  0.00    +0.000 A 
ATOM     21  C   UNL     1       5.634   6.579  16.308  0.00  0.00    +0.000 A 
ATOM     22  C   UNL     1       4.616   5.992  17.065  0.00  0.00    +0.000 A 
ATOM     23  N   UNL     1       3.910   6.761  18.002  0.00  0.00    +0.000 N 
ATOM     24  H   UNL     1       4.537   7.211  18.684  0.00  0.00    +0.000 HD
ENDBRANCH   3  12
BRANCH   4  25
ATOM     25  O   UNL     1       1.793   6.482  21.479  0.00  0.00    +0.000 OA
ATOM     26  H   UNL     1       2.722   6.185  21.399  0.00  0.00    +0.000 HD
ENDBRANCH   4  25
BRANCH  11  27
ATOM     27  C   UNL     1       0.116  10.600  18.000  0.00  0.00    +0.000 C 
BRANCH  27  28
ATOM     28  C   UNL     1       0.560  12.019  18.301  0.00  0.00    +0.000 A 
ATOM     29  C   UNL     1       1.909  12.308  18.549  0.00  0.00    +0.000 A 
ATOM     30  C   UNL     1       2.301  13.586  18.954  0.00  0.00    +0.000 A 
ATOM     31  C   UNL     1       1.354  14.600  19.078  0.00  0.00    +0.000 A 
ATOM     32  C   UNL     1       0.021  14.347  18.759  0.00  0.00    +0.000 A 
ATOM     33  C   UNL     1      -0.374  13.066  18.366  0.00  0.00    +0.000 A 
ENDBRANCH  27  28
ENDBRANCH  11  27
TORSDOF 4
ENDMDL
MODEL 4
REMARK VINA RESULT:      -8.5      2.988      8.183
REMARK  Name = 
REMARK  4 active torsions:
REMARK  status: ('A' for Active; 'I' for Inactive)
REMARK    1  A    between atoms: C_3  and  C_4
REMARK    2  A    between atoms: C_16  and  O_17
REMARK    3  A    between atoms: N_24  and  C_25
REMARK    4  A    between atoms: C_25  and  C_26
REMARK                            x       y       z     vdW  Elec       q    Type
REMARK                         _______ _______ _______ _____ _____    ______ ____
ROOT
ATOM      1  O   UNL     1       1.198   8.144  21.514  0.00  0.00    +0.000 OA
ATOM      2  C   UNL     1       1.612   7.859  20.387  0.00  0.00    +0.000 A 
ATOM      3  C   UNL     1       1.385   8.851  19.279  0.00  0.00    +0.000 A 
ATOM      4  C   UNL     1       2.162   8.739  18.175  0.00  0.00    +0.000 A 
ATOM      5  C   UNL     1       3.150   7.620  18.066  0.00  0.00    +0.000 A 
ATOM      6  C   UNL     1       4.159   7.593  17.085  0.00  0.00    +0.000 A 
ATOM      7  C   UNL     1       5.083   6.538  17.022  0.00  0.00    +0.000 A 
ATOM      8  C   UNL     1       4.973   5.460  17.888  0.00  0.00    +0.000 A 
ATOM      9  C   UNL     1       3.959   5.449  18.835  0.00  0.00    +0.000 A 
ATOM     10  C   UNL     1       3.080   6.545  18.973  0.00  0.00    +0.000 A 
ATOM     11  N   UNL     1       2.191   6.647  20.084  0.00  0.00    +0.000 N 
ENDROOT
BRANCH   3  12
ATOM     12  C   UNL     1       0.257   9.870  19.536  0.00  0.00    +0.000 C 
ATOM     13  N   UNL     1      -0.609  10.137  18.610  0.00  0.00    +0.000 NA
ATOM     14  S   UNL     1      -1.562  11.460  18.783  0.00  0.00    +0.000 S 
ATOM     15  O   UNL     1      -0.860  12.604  18.234  0.00  0.00    +0.000 OA
ATOM     16  O   UNL     1      -2.899  11.122  18.322  0.00  0.00    +0.000 OA
ATOM     17  C   UNL     1      -1.722  11.799  20.511  0.00  0.00    +0.000 A 
ATOM     18  C   UNL     1      -2.707  12.662  21.022  0.00  0.00    +0.000 A 
ATOM     19  C   UNL     1      -2.773  12.882  22.401  0.00  0.00    +0.000 A 
ATOM     20  C   UNL     1      -1.869  12.244  23.256  0.00  0.00    +0.000 A 
ATOM     21  C   UNL     1      -0.873  11.412  22.715  0.00  0.00    +0.000 A 
ATOM     22  C   UNL     1      -0.783  11.223  21.332  0.00  0.00    +0.000 A 
ATOM     23  N   UNL     1       0.260  10.451  20.798  0.00  0.00    +0.000 N 
ATOM     24  H   UNL     1       1.186  10.797  21.090  0.00  0.00    +0.000 HD
ENDBRANCH   3  12
BRANCH   4  25
ATOM     25  O   UNL     1       2.098   9.569  17.082  0.00  0.00    +0.000 OA
ATOM     26  H   UNL     1       2.679  10.343  17.237  0.00  0.00    +0.000 HD
ENDBRANCH   4  25
BRANCH  11  27
ATOM     27  C   UNL     1       2.043   5.557  21.053  0.00  0.00    +0.000 C 
BRANCH  27  28
ATOM     28  C   UNL     1       1.861   4.209  20.381  0.00  0.00    +0.000 A 
ATOM     29  C   UNL     1       2.834   3.208  20.512  0.00  0.00    +0.000 A 
ATOM     30  C   UNL     1       2.732   2.017  19.790  0.00  0.00    +0.000 A 
ATOM     31  C   UNL     1       1.636   1.796  18.960  0.00  0.00    +0.000 A 
ATOM     32  C   UNL     1       0.622   2.749  18.880  0.00  0.00    +0.000 A 
ATOM     33  C   UNL     1       0.730   3.946  19.592  0.00  0.00    +0.000 A 
ENDBRANCH  27  28
ENDBRANCH  11  27
TORSDOF 4
ENDMDL
MODEL 5
REMARK VINA RESULT:      -8.2      4.932      9.191
REMARK  Name = 
REMARK  4 active torsions:
REMARK  status: ('A' for Active; 'I' for Inactive)
REMARK    1  A    between atoms: C_3  and  C_4
REMARK    2  A    between atoms: C_16  and  O_17
REMARK    3  A    between atoms: N_24  and  C_25
REMARK    4  A    between atoms: C_25  and  C_26
REMARK                            x       y       z     vdW  Elec       q    Type
REMARK                         _______ _______ _______ _____ _____    ______ ____
ROOT
ATOM      1  O   UNL     1      -1.930  12.330  20.054  0.00  0.00    +0.000 OA
ATOM      2  C   UNL     1      -1.035  11.589  20.469  0.00  0.00    +0.000 A 
ATOM      3  C   UNL     1      -1.032  11.232  21.930  0.00  0.00    +0.000 A 
ATOM      4  C   UNL     1      -0.326  10.138  22.302  0.00  0.00    +0.000 A 
ATOM      5  C   UNL     1       0.464   9.377  21.284  0.00  0.00    +0.000 A 
ATOM      6  C   UNL     1       0.999   8.100  21.541  0.00  0.00    +0.000 A 
ATOM      7  C   UNL     1       1.719   7.403  20.557  0.00  0.00    +0.000 A 
ATOM      8  C   UNL     1       1.979   7.996  19.331  0.00  0.00    +0.000 A 
ATOM      9  C   UNL     1       1.495   9.271  19.074  0.00  0.00    +0.000 A 
ATOM     10  C   UNL     1       0.691   9.946  20.017  0.00  0.00    +0.000 A 
ATOM     11  N   UNL     1       0.000  11.148  19.676  0.00  0.00    +0.000 N 
ENDROOT
BRANCH   3  12
ATOM     12  C   UNL     1      -1.826  12.192  22.838  0.00  0.00    +0.000 C 
ATOM     13  N   UNL     1      -2.886  11.782  23.460  0.00  0.00    +0.000 NA
ATOM     14  S   UNL     1      -3.892  12.895  24.120  0.00  0.00    +0.000 S 
ATOM     15  O   UNL     1      -4.842  13.311  23.106  0.00  0.00    +0.000 OA
ATOM     16  O   UNL     1      -4.353  12.389  25.403  0.00  0.00    +0.000 OA
ATOM     17  C   UNL     1      -2.944  14.342  24.488  0.00  0.00    +0.000 A 
ATOM     18  C   UNL     1      -3.418  15.359  25.334  0.00  0.00    +0.000 A 
ATOM     19  C   UNL     1      -2.611  16.474  25.580  0.00  0.00    +0.000 A 
ATOM     20  C   UNL     1      -1.347  16.567  24.989  0.00  0.00    +0.000 A 
ATOM     21  C   UNL     1      -0.911  15.550  24.121  0.00  0.00    +0.000 A 
ATOM     22  C   UNL     1      -1.734  14.454  23.845  0.00  0.00    +0.000 A 
ATOM     23  N   UNL     1      -1.321  13.485  22.919  0.00  0.00    +0.000 N 
ATOM     24  H   UNL     1      -1.094  13.897  22.003  0.00  0.00    +0.000 HD
ENDBRANCH   3  12
BRANCH   4  25
ATOM     25  O   UNL     1      -0.231   9.664  23.588  0.00  0.00    +0.000 OA
ATOM     26  H   UNL     1       0.412   8.925  23.608  0.00  0.00    +0.000 HD
ENDBRANCH   4  25
BRANCH  11  27
ATOM     27  C   UNL     1       0.208  11.814  18.387  0.00  0.00    +0.000 C 
BRANCH  27  28
ATOM     28  C   UNL     1       1.162  12.988  18.491  0.00  0.00    +0.000 A 
ATOM     29  C   UNL     1       0.684  14.273  18.787  0.00  0.00    +0.000 A 
ATOM     30  C   UNL     1       1.541  15.376  18.754  0.00  0.00    +0.000 A 
ATOM     31  C   UNL     1       2.892  15.203  18.463  0.00  0.00    +0.000 A 
ATOM     32  C   UNL     1       3.395  13.922  18.243  0.00  0.00    +0.000 A 
ATOM     33  C   UNL     1       2.538  12.820  18.264  0.00  0.00    +0.000 A 
ENDBRANCH  27  28
ENDBRANCH  11  27
TORSDOF 4
ENDMDL
MODEL 6
REMARK VINA RESULT:      -8.2      1.642      2.378
REMARK  Name = 
REMARK  4 active torsions:
REMARK  status: ('A' for Active; 'I' for Inactive)
REMARK    1  A    between atoms: C_3  and  C_4
REMARK    2  A    between atoms: C_16  and  O_17
REMARK    3  A    between atoms: N_24  and  C_25
REMARK    4  A    between atoms: C_25  and  C_26
REMARK                            x       y       z     vdW  Elec       q    Type
REMARK                         _______ _______ _______ _____ _____    ______ ____
ROOT
ATOM      1  O   UNL     1       2.162  10.004  17.845  0.00  0.00    +0.000 OA
ATOM      2  C   UNL     1       1.469   9.681  18.814  0.00  0.00    +0.000 A 
ATOM      3  C   UNL     1       1.808   8.404  19.532  0.00  0.00    +0.000 A 
ATOM      4  C   UNL     1       1.333   8.253  20.792  0.00  0.00    +0.000 A 
ATOM      5  C   UNL     1       0.453   9.305  21.389  0.00  0.00    +0.000 A 
ATOM      6  C   UNL     1       0.144   9.344  22.762  0.00  0.00    +0.000 A 
ATOM      7  C   UNL     1      -0.669  10.357  23.295  0.00  0.00    +0.000 A 
ATOM      8  C   UNL     1      -1.245  11.302  22.460  0.00  0.00    +0.000 A 
ATOM      9  C   UNL     1      -0.986  11.255  21.098  0.00  0.00    +0.000 A 
ATOM     10  C   UNL     1      -0.097  10.301  20.559  0.00  0.00    +0.000 A 
ATOM     11  N   UNL     1       0.356  10.388  19.208  0.00  0.00    +0.000 N 
ENDROOT
BRANCH   3  12
ATOM     12  C   UNL     1       2.646   7.399  18.717  0.00  0.00    +0.000 C 
ATOM     13  N   UNL     1       3.839   7.708  18.320  0.00  0.00    +0.000 NA
ATOM     14  S   UNL     1       4.554   6.779  17.174  0.00  0.00    +0.000 S 
ATOM     15  O   UNL     1       4.163   7.278  15.870  0.00  0.00    +0.000 OA
ATOM     16  O   UNL     1       5.959   6.630  17.518  0.00  0.00    +0.000 OA
ATOM     17  C   UNL     1       3.861   5.154  17.275  0.00  0.00    +0.000 A 
ATOM     18  C   UNL     1       4.457   4.041  16.658  0.00  0.00    +0.000 A 
ATOM     19  C   UNL     1       3.852   2.786  16.781  0.00  0.00    +0.000 A 
ATOM     20  C   UNL     1       2.670   2.649  17.516  0.00  0.00    +0.000 A 
ATOM     21  C   UNL     1       2.078   3.786  18.095  0.00  0.00    +0.000 A 
ATOM     22  C   UNL     1       2.663   5.046  17.938  0.00  0.00    +0.000 A 
ATOM     23  N   UNL     1       2.024   6.183  18.456  0.00  0.00    +0.000 N 
ATOM     24  H   UNL     1       1.061   6.279  18.104  0.00  0.00    +0.000 HD
ENDBRANCH   3  12
BRANCH   4  25
ATOM     25  O   UNL     1       1.563   7.160  21.592  0.00  0.00    +0.000 OA
ATOM     26  H   UNL     1       2.530   7.032  21.684  0.00  0.00    +0.000 HD
ENDBRANCH   4  25
BRANCH  11  27
ATOM     27  C   UNL     1      -0.191  11.380  18.278  0.00  0.00    +0.000 C 
BRANCH  27  28
ATOM     28  C   UNL     1      -1.582  11.014  17.797  0.00  0.00    +0.000 A 
ATOM     29  C   UNL     1      -1.778   9.920  16.941  0.00  0.00    +0.000 A 
ATOM     30  C   UNL     1      -3.036   9.662  16.393  0.00  0.00    +0.000 A 
ATOM     31  C   UNL     1      -4.122  10.469  16.724  0.00  0.00    +0.000 A 
ATOM     32  C   UNL     1      -3.958  11.512  17.634  0.00  0.00    +0.000 A 
ATOM     33  C   UNL     1      -2.698  11.779  18.173  0.00  0.00    +0.000 A 
ENDBRANCH  27  28
ENDBRANCH  11  27
TORSDOF 4
ENDMDL
MODEL 7
REMARK VINA RESULT:      -8.2      2.780      7.882
REMARK  Name = 
REMARK  4 active torsions:
REMARK  status: ('A' for Active; 'I' for Inactive)
REMARK    1  A    between atoms: C_3  and  C_4
REMARK    2  A    between atoms: C_16  and  O_17
REMARK    3  A    between atoms: N_24  and  C_25
REMARK    4  A    between atoms: C_25  and  C_26
REMARK                            x       y       z     vdW  Elec       q    Type
REMARK                         _______ _______ _______ _____ _____    ______ ____
ROOT
ATOM      1  O   UNL     1       3.808   7.587  18.518  0.00  0.00    +0.000 OA
ATOM      2  C   UNL     1       3.495   6.485  18.978  0.00  0.00    +0.000 A 
ATOM      3  C   UNL     1       2.206   6.379  19.745  0.00  0.00    +0.000 A 
ATOM      4  C   UNL     1       1.672   5.143  19.898  0.00  0.00    +0.000 A 
ATOM      5  C   UNL     1       2.396   3.946  19.369  0.00  0.00    +0.000 A 
ATOM      6  C   UNL     1       1.788   2.681  19.257  0.00  0.00    +0.000 A 
ATOM      7  C   UNL     1       2.489   1.582  18.737  0.00  0.00    +0.000 A 
ATOM      8  C   UNL     1       3.826   1.706  18.390  0.00  0.00    +0.000 A 
ATOM      9  C   UNL     1       4.455   2.935  18.533  0.00  0.00    +0.000 A 
ATOM     10  C   UNL     1       3.739   4.072  18.965  0.00  0.00    +0.000 A 
ATOM     11  N   UNL     1       4.309   5.378  18.893  0.00  0.00    +0.000 N 
ENDROOT
BRANCH   3  12
ATOM     12  C   UNL     1       1.662   7.713  20.295  0.00  0.00    +0.000 C 
ATOM     13  N   UNL     1       1.484   7.874  21.568  0.00  0.00    +0.000 NA
ATOM     14  S   UNL     1       0.586   9.146  22.082  0.00  0.00    +0.000 S 
ATOM     15  O   UNL     1      -0.807   8.745  22.099  0.00  0.00    +0.000 OA
ATOM     16  O   UNL     1       1.213   9.694  23.275  0.00  0.00    +0.000 OA
ATOM     17  C   UNL     1       0.688  10.419  20.859  0.00  0.00    +0.000 A 
ATOM     18  C   UNL     1       0.299  11.745  21.117  0.00  0.00    +0.000 A 
ATOM     19  C   UNL     1       0.409  12.699  20.100  0.00  0.00    +0.000 A 
ATOM     20  C   UNL     1       0.904  12.330  18.845  0.00  0.00    +0.000 A 
ATOM     21  C   UNL     1       1.255  10.989  18.605  0.00  0.00    +0.000 A 
ATOM     22  C   UNL     1       1.109  10.029  19.610  0.00  0.00    +0.000 A 
ATOM     23  N   UNL     1       1.390   8.682  19.337  0.00  0.00    +0.000 N 
ATOM     24  H   UNL     1       0.847   8.328  18.536  0.00  0.00    +0.000 HD
ENDBRANCH   3  12
BRANCH   4  25
ATOM     25  O   UNL     1       0.495   4.872  20.554  0.00  0.00    +0.000 OA
ATOM     26  H   UNL     1       0.316   3.910  20.497  0.00  0.00    +0.000 HD
ENDBRANCH   4  25
BRANCH  11  27
ATOM     27  C   UNL     1       5.708   5.585  18.509  0.00  0.00    +0.000 C 
BRANCH  27  28
ATOM     28  C   UNL     1       5.946   5.332  17.032  0.00  0.00    +0.000 A 
ATOM     29  C   UNL     1       5.116   5.917  16.065  0.00  0.00    +0.000 A 
ATOM     30  C   UNL     1       5.250   5.582  14.715  0.00  0.00    +0.000 A 
ATOM     31  C   UNL     1       6.240   4.689  14.313  0.00  0.00    +0.000 A 
ATOM     32  C   UNL     1       7.121   4.160  15.253  0.00  0.00    +0.000 A 
ATOM     33  C   UNL     1       6.981   4.485  16.605  0.00  0.00    +0.000 A 
ENDBRANCH  27  28
ENDBRANCH  11  27
TORSDOF 4
ENDMDL
MODEL 8
REMARK VINA RESULT:      -8.1      5.101      9.658
REMARK  Name = 
REMARK  4 active torsions:
REMARK  status: ('A' for Active; 'I' for Inactive)
REMARK    1  A    between atoms: C_3  and  C_4
REMARK    2  A    between atoms: C_16  and  O_17
REMARK    3  A    between atoms: N_24  and  C_25
REMARK    4  A    between atoms: C_25  and  C_26
REMARK                            x       y       z     vdW  Elec       q    Type
REMARK                         _______ _______ _______ _____ _____    ______ ____
ROOT
ATOM      1  O   UNL     1      -0.630  13.114  20.450  0.00  0.00    +0.000 OA
ATOM      2  C   UNL     1      -1.492  12.434  19.885  0.00  0.00    +0.000 A 
ATOM      3  C   UNL     1      -2.907  12.526  20.388  0.00  0.00    +0.000 A 
ATOM      4  C   UNL     1      -3.892  12.117  19.553  0.00  0.00    +0.000 A 
ATOM      5  C   UNL     1      -3.547  11.540  18.217  0.00  0.00    +0.000 A 
ATOM      6  C   UNL     1      -4.507  11.342  17.206  0.00  0.00    +0.000 A 
ATOM      7  C   UNL     1      -4.147  10.816  15.955  0.00  0.00    +0.000 A 
ATOM      8  C   UNL     1      -2.842  10.412  15.717  0.00  0.00    +0.000 A 
ATOM      9  C   UNL     1      -1.890  10.560  16.715  0.00  0.00    +0.000 A 
ATOM     10  C   UNL     1      -2.215  11.173  17.944  0.00  0.00    +0.000 A 
ATOM     11  N   UNL     1      -1.202  11.540  18.881  0.00  0.00    +0.000 N 
ENDROOT
BRANCH   3  12
ATOM     12  C   UNL     1      -3.055  13.058  21.827  0.00  0.00    +0.000 C 
ATOM     13  N   UNL     1      -3.857  12.477  22.663  0.00  0.00    +0.000 NA
ATOM     14  S   UNL     1      -4.256  13.261  24.046  0.00  0.00    +0.000 S 
ATOM     15  O   UNL     1      -5.404  14.105  23.778  0.00  0.00    +0.000 OA
ATOM     16  O   UNL     1      -4.289  12.290  25.128  0.00  0.00    +0.000 OA
ATOM     17  C   UNL     1      -2.942  14.377  24.443  0.00  0.00    +0.000 A 
ATOM     18  C   UNL     1      -2.815  14.971  25.710  0.00  0.00    +0.000 A 
ATOM     19  C   UNL     1      -1.749  15.844  25.952  0.00  0.00    +0.000 A 
ATOM     20  C   UNL     1      -0.823  16.113  24.939  0.00  0.00    +0.000 A 
ATOM     21  C   UNL     1      -0.993  15.531  23.670  0.00  0.00    +0.000 A 
ATOM     22  C   UNL     1      -2.081  14.689  23.419  0.00  0.00    +0.000 A 
ATOM     23  N   UNL     1      -2.283  14.174  22.130  0.00  0.00    +0.000 N 
ATOM     24  H   UNL     1      -2.340  14.919  21.420  0.00  0.00    +0.000 HD
ENDBRANCH   3  12
BRANCH   4  25
ATOM     25  O   UNL     1      -5.234  12.149  19.847  0.00  0.00    +0.000 OA
ATOM     26  H   UNL     1      -5.351  12.014  20.810  0.00  0.00    +0.000 HD
ENDBRANCH   4  25
BRANCH  11  27
ATOM     27  C   UNL     1       0.201  11.167  18.679  0.00  0.00    +0.000 C 
BRANCH  27  28
ATOM     28  C   UNL     1       0.572   9.894  19.414  0.00  0.00    +0.000 A 
ATOM     29  C   UNL     1      -0.002   9.594  20.659  0.00  0.00    +0.000 A 
ATOM     30  C   UNL     1       0.435   8.491  21.396  0.00  0.00    +0.000 A 
ATOM     31  C   UNL     1       1.421   7.653  20.882  0.00  0.00    +0.000 A 
ATOM     32  C   UNL     1       1.944   7.894  19.613  0.00  0.00    +0.000 A 
ATOM     33  C   UNL     1       1.517   9.004  18.880  0.00  0.00    +0.000 A 
ENDBRANCH  27  28
ENDBRANCH  11  27
TORSDOF 4
ENDMDL
MODEL 9
REMARK VINA RESULT:      -8.1      3.223      7.696
REMARK  Name = 
REMARK  4 active torsions:
REMARK  status: ('A' for Active; 'I' for Inactive)
REMARK    1  A    between atoms: C_3  and  C_4
REMARK    2  A    between atoms: C_16  and  O_17
REMARK    3  A    between atoms: N_24  and  C_25
REMARK    4  A    between atoms: C_25  and  C_26
REMARK                            x       y       z     vdW  Elec       q    Type
REMARK                         _______ _______ _______ _____ _____    ______ ____
ROOT
ATOM      1  O   UNL     1       2.478   8.290  17.243  0.00  0.00    +0.000 OA
ATOM      2  C   UNL     1       2.602   7.500  18.184  0.00  0.00    +0.000 A 
ATOM      3  C   UNL     1       1.890   7.816  19.470  0.00  0.00    +0.000 A 
ATOM      4  C   UNL     1       1.693   6.796  20.339  0.00  0.00    +0.000 A 
ATOM      5  C   UNL     1       2.234   5.435  20.029  0.00  0.00    +0.000 A 
ATOM      6  C   UNL     1       1.848   4.285  20.744  0.00  0.00    +0.000 A 
ATOM      7  C   UNL     1       2.359   3.020  20.415  0.00  0.00    +0.000 A 
ATOM      8  C   UNL     1       3.316   2.890  19.419  0.00  0.00    +0.000 A 
ATOM      9  C   UNL     1       3.740   4.018  18.732  0.00  0.00    +0.000 A 
ATOM     10  C   UNL     1       3.168   5.283  18.986  0.00  0.00    +0.000 A 
ATOM     11  N   UNL     1       3.425   6.398  18.133  0.00  0.00    +0.000 N 
ENDROOT
BRANCH   3  12
ATOM     12  C   UNL     1       1.494   9.295  19.652  0.00  0.00    +0.000 C 
ATOM     13  N   UNL     1       0.788   9.665  20.673  0.00  0.00    +0.000 NA
ATOM     14  S   UNL     1       0.093  11.149  20.653  0.00  0.00    +0.000 S 
ATOM     15  O   UNL     1      -1.198  11.041  20.002  0.00  0.00    +0.000 OA
ATOM     16  O   UNL     1       0.204  11.723  21.985  0.00  0.00    +0.000 OA
ATOM     17  C   UNL     1       1.057  12.193  19.600  0.00  0.00    +0.000 A 
ATOM     18  C   UNL     1       0.927  13.592  19.602  0.00  0.00    +0.000 A 
ATOM     19  C   UNL     1       1.725  14.354  18.741  0.00  0.00    +0.000 A 
ATOM     20  C   UNL     1       2.641  13.722  17.895  0.00  0.00    +0.000 A 
ATOM     21  C   UNL     1       2.728  12.318  17.891  0.00  0.00    +0.000 A 
ATOM     22  C   UNL     1       1.902  11.556  18.723  0.00  0.00    +0.000 A 
ATOM     23  N   UNL     1       1.943  10.155  18.657  0.00  0.00    +0.000 N 
ATOM     24  H   UNL     1       1.769   9.808  17.702  0.00  0.00    +0.000 HD
ENDBRANCH   3  12
BRANCH   4  25
ATOM     25  O   UNL     1       1.049   6.906  21.548  0.00  0.00    +0.000 OA
ATOM     26  H   UNL     1       1.366   6.195  22.142  0.00  0.00    +0.000 HD
ENDBRANCH   4  25
BRANCH  11  27
ATOM     27  C   UNL     1       4.404   6.324  17.046  0.00  0.00    +0.000 C 
BRANCH  27  28
ATOM     28  C   UNL     1       5.814   6.626  17.516  0.00  0.00    +0.000 A 
ATOM     29  C   UNL     1       6.487   5.742  18.372  0.00  0.00    +0.000 A 
ATOM     30  C   UNL     1       7.730   6.080  18.910  0.00  0.00    +0.000 A 
ATOM     31  C   UNL     1       8.334   7.288  18.568  0.00  0.00    +0.000 A 
ATOM     32  C   UNL     1       7.713   8.141  17.658  0.00  0.00    +0.000 A 
ATOM     33  C   UNL     1       6.463   7.809  17.128  0.00  0.00    +0.000 A 
ENDBRANCH  27  28
ENDBRANCH  11  27
TORSDOF 4
ENDMDL
