MODEL 1
REMARK VINA RESULT:      -7.8      0.000      0.000
REMARK  Name = 
REMARK  8 active torsions:
REMARK  status: ('A' for Active; 'I' for Inactive)
REMARK    1  A    between atoms: C_1  and  C_2
REMARK    2  A    between atoms: C_7  and  N_8
REMARK    3  A    between atoms: C_9  and  C_11
REMARK    4  A    between atoms: C_18  and  C_19
REMARK    5  A    between atoms: N_21  and  C_22
REMARK    6  A    between atoms: C_22  and  C_23
REMARK    7  A    between atoms: C_23  and  C_24
REMARK    8  A    between atoms: C_23  and  C_25
REMARK                            x       y       z     vdW  Elec       q    Type
REMARK                         _______ _______ _______ _____ _____    ______ ____
ROOT
ATOM      1  C   UNL     1      -2.279  12.227  22.828  0.00  0.00    +0.000 C 
ATOM      2  C   UNL     1      -1.285  11.171  22.454  0.00  0.00    +0.000 A 
ATOM      3  C   UNL     1      -0.708  10.349  23.513  0.00  0.00    +0.000 A 
ATOM      4  C   UNL     1       0.203   9.397  23.246  0.00  0.00    +0.000 A 
ATOM      5  C   UNL     1       0.623   9.174  21.908  0.00  0.00    +0.000 A 
ATOM      6  N   UNL     1       1.507   8.339  21.425  0.00  0.00    +0.000 NA
ATOM      7  C   UNL     1       1.485   8.509  20.076  0.00  0.00    +0.000 A 
ATOM      8  C   UNL     1       0.604   9.520  19.701  0.00  0.00    +0.000 A 
ATOM      9  N   UNL     1       0.043   9.941  20.904  0.00  0.00    +0.000 N 
ATOM     10  C   UNL     1      -0.900  10.941  21.183  0.00  0.00    +0.000 A 
ENDROOT
BRANCH   7  11
ATOM     11  N   UNL     1       2.239   7.711  19.238  0.00  0.00    +0.000 N 
ATOM     12  C   UNL     1       2.445   6.349  19.436  0.00  0.00    +0.000 C 
ATOM     13  O   UNL     1       2.022   5.649  20.344  0.00  0.00    +0.000 OA
ATOM     14  H   UNL     1       2.548   8.139  18.379  0.00  0.00    +0.000 HD
BRANCH  12  15
ATOM     15  C   UNL     1       3.269   5.682  18.383  0.00  0.00    +0.000 A 
ATOM     16  C   UNL     1       3.153   4.313  18.118  0.00  0.00    +0.000 A 
ATOM     17  C   UNL     1       3.974   3.710  17.160  0.00  0.00    +0.000 A 
ATOM     18  C   UNL     1       4.891   4.482  16.446  0.00  0.00    +0.000 A 
ATOM     19 CL   UNL     1       5.913   3.728  15.286  0.00  0.00    +0.000 Cl
ATOM     20  C   UNL     1       4.981   5.854  16.666  0.00  0.00    +0.000 A 
ATOM     21  C   UNL     1       4.168   6.458  17.631  0.00  0.00    +0.000 A 
ENDBRANCH  12  15
ENDBRANCH   7  11
BRANCH   8  22
ATOM     22  C   UNL     1       0.232  10.047  18.408  0.00  0.00    +0.000 C 
ATOM     23  O   UNL     1       1.049  10.341  17.541  0.00  0.00    +0.000 OA
ATOM     24  N   UNL     1      -1.128  10.184  18.188  0.00  0.00    +0.000 N 
ATOM     25  H   UNL     1      -1.735   9.599  18.747  0.00  0.00    +0.000 HD
BRANCH  24  26
ATOM     26  C   UNL     1      -1.640  10.652  16.904  0.00  0.00    +0.000 C 
BRANCH  26  27
ATOM     27  C   UNL     1      -2.981   9.988  16.554  0.00  0.00    +0.000 C 
ATOM     28  C   UNL     1      -4.145  10.687  17.259  0.00  0.00    +0.000 C 
ATOM     29  C   UNL     1      -3.220   9.993  15.042  0.00  0.00    +0.000 C 
ENDBRANCH  26  27
ENDBRANCH  24  26
ENDBRANCH   8  22
TORSDOF 5
ENDMDL
MODEL 2
REMARK VINA RESULT:      -7.7      3.488      8.432
REMARK  Name = 
REMARK  8 active torsions:
REMARK  status: ('A' for Active; 'I' for Inactive)
REMARK    1  A    between atoms: C_1  and  C_2
REMARK    2  A    between atoms: C_7  and  N_8
REMARK    3  A    between atoms: C_9  and  C_11
REMARK    4  A    between atoms: C_18  and  C_19
REMARK    5  A    between atoms: N_21  and  C_22
REMARK    6  A    between atoms: C_22  and  C_23
REMARK    7  A    between atoms: C_23  and  C_24
REMARK    8  A    between atoms: C_23  and  C_25
REMARK                            x       y       z     vdW  Elec       q    Type
REMARK                         _______ _______ _______ _____ _____    ______ ____
ROOT
ATOM      1  C   UNL     1       5.983   3.223  14.950  0.00  0.00    +0.000 C 
ATOM      2  C   UNL     1       5.505   4.431  15.695  0.00  0.00    +0.000 A 
ATOM      3  C   UNL     1       6.274   5.667  15.588  0.00  0.00    +0.000 A 
ATOM      4  C   UNL     1       5.910   6.781  16.247  0.00  0.00    +0.000 A 
ATOM      5  C   UNL     1       4.752   6.770  17.070  0.00  0.00    +0.000 A 
ATOM      6  N   UNL     1       4.235   7.711  17.816  0.00  0.00    +0.000 NA
ATOM      7  C   UNL     1       3.103   7.184  18.354  0.00  0.00    +0.000 A 
ATOM      8  C   UNL     1       2.931   5.853  17.982  0.00  0.00    +0.000 A 
ATOM      9  N   UNL     1       4.010   5.597  17.138  0.00  0.00    +0.000 N 
ATOM     10  C   UNL     1       4.394   4.432  16.460  0.00  0.00    +0.000 A 
ENDROOT
BRANCH   7  11
ATOM     11  N   UNL     1       2.252   7.945  19.131  0.00  0.00    +0.000 N 
ATOM     12  C   UNL     1       1.577   9.072  18.672  0.00  0.00    +0.000 C 
ATOM     13  O   UNL     1       1.618   9.570  17.557  0.00  0.00    +0.000 OA
ATOM     14  H   UNL     1       2.033   7.574  20.043  0.00  0.00    +0.000 HD
BRANCH  12  15
ATOM     15  C   UNL     1       0.685   9.720  19.680  0.00  0.00    +0.000 A 
ATOM     16  C   UNL     1      -0.058  10.867  19.374  0.00  0.00    +0.000 A 
ATOM     17  C   UNL     1      -0.845  11.476  20.355  0.00  0.00    +0.000 A 
ATOM     18  C   UNL     1      -0.914  10.924  21.634  0.00  0.00    +0.000 A 
ATOM     19 CL   UNL     1      -1.867  11.694  22.841  0.00  0.00    +0.000 Cl
ATOM     20  C   UNL     1      -0.219   9.755  21.936  0.00  0.00    +0.000 A 
ATOM     21  C   UNL     1       0.578   9.149  20.960  0.00  0.00    +0.000 A 
ENDBRANCH  12  15
ENDBRANCH   7  11
BRANCH   8  22
ATOM     22  C   UNL     1       1.895   4.892  18.282  0.00  0.00    +0.000 C 
ATOM     23  O   UNL     1       1.234   4.323  17.419  0.00  0.00    +0.000 OA
ATOM     24  N   UNL     1       1.701   4.624  19.626  0.00  0.00    +0.000 N 
ATOM     25  H   UNL     1       2.483   4.811  20.240  0.00  0.00    +0.000 HD
BRANCH  24  26
ATOM     26  C   UNL     1       0.725   3.631  20.064  0.00  0.00    +0.000 C 
BRANCH  26  27
ATOM     27  C   UNL     1       1.409   2.367  20.610  0.00  0.00    +0.000 C 
ATOM     28  C   UNL     1       2.174   1.633  19.507  0.00  0.00    +0.000 C 
ATOM     29  C   UNL     1       2.363   2.709  21.757  0.00  0.00    +0.000 C 
ENDBRANCH  26  27
ENDBRANCH  24  26
ENDBRANCH   8  22
TORSDOF 5
ENDMDL
MODEL 3
REMARK VINA RESULT:      -7.7      2.867      5.067
REMARK  Name = 
REMARK  8 active torsions:
REMARK  status: ('A' for Active; 'I' for Inactive)
REMARK    1  A    between atoms: C_1  and  C_2
REMARK    2  A    between atoms: C_7  and  N_8
REMARK    3  A    between atoms: C_9  and  C_11
REMARK    4  A    between atoms: C_18  and  C_19
REMARK    5  A    between atoms: N_21  and  C_22
REMARK    6  A    between atoms: C_22  and  C_23
REMARK    7  A    between atoms: C_23  and  C_24
REMARK    8  A    between atoms: C_23  and  C_25
REMARK                            x       y       z     vdW  Elec       q    Type
REMARK                         _______ _______ _______ _____ _____    ______ ____
ROOT
ATOM      1  C   UNL     1      -0.339   9.515  23.320  0.00  0.00    +0.000 C 
ATOM      2  C   UNL     1       0.352   9.303  22.008  0.00  0.00    +0.000 A 
ATOM      3  C   UNL     1       0.536  10.449  21.123  0.00  0.00    +0.000 A 
ATOM      4  C   UNL     1       1.131  10.323  19.924  0.00  0.00    +0.000 A 
ATOM      5  C   UNL     1       1.597   9.051  19.495  0.00  0.00    +0.000 A 
ATOM      6  N   UNL     1       2.167   8.692  18.374  0.00  0.00    +0.000 NA
ATOM      7  C   UNL     1       2.450   7.368  18.505  0.00  0.00    +0.000 A 
ATOM      8  C   UNL     1       1.994   6.865  19.721  0.00  0.00    +0.000 A 
ATOM      9  N   UNL     1       1.445   7.974  20.361  0.00  0.00    +0.000 N 
ATOM     10  C   UNL     1       0.816   8.103  21.606  0.00  0.00    +0.000 A 
ENDROOT
BRANCH   7  11
ATOM     11  N   UNL     1       3.145   6.681  17.530  0.00  0.00    +0.000 N 
ATOM     12  C   UNL     1       4.420   6.153  17.708  0.00  0.00    +0.000 C 
ATOM     13  O   UNL     1       5.122   6.206  18.707  0.00  0.00    +0.000 OA
ATOM     14  H   UNL     1       2.630   6.460  16.692  0.00  0.00    +0.000 HD
BRANCH  12  15
ATOM     15  C   UNL     1       4.965   5.421  16.525  0.00  0.00    +0.000 A 
ATOM     16  C   UNL     1       5.367   6.095  15.366  0.00  0.00    +0.000 A 
ATOM     17  C   UNL     1       5.826   5.375  14.259  0.00  0.00    +0.000 A 
ATOM     18  C   UNL     1       5.911   3.984  14.320  0.00  0.00    +0.000 A 
ATOM     19 CL   UNL     1       6.454   3.106  12.944  0.00  0.00    +0.000 Cl
ATOM     20  C   UNL     1       5.560   3.306  15.485  0.00  0.00    +0.000 A 
ATOM     21  C   UNL     1       5.091   4.023  16.591  0.00  0.00    +0.000 A 
ENDBRANCH  12  15
ENDBRANCH   7  11
BRANCH   8  22
ATOM     22  C   UNL     1       2.069   5.548  20.310  0.00  0.00    +0.000 C 
ATOM     23  O   UNL     1       2.586   5.328  21.401  0.00  0.00    +0.000 OA
ATOM     24  N   UNL     1       1.492   4.530  19.571  0.00  0.00    +0.000 N 
ATOM     25  H   UNL     1       0.779   4.803  18.908  0.00  0.00    +0.000 HD
BRANCH  24  26
ATOM     26  C   UNL     1       1.449   3.161  20.079  0.00  0.00    +0.000 C 
BRANCH  26  27
ATOM     27  C   UNL     1       2.378   2.232  19.281  0.00  0.00    +0.000 C 
ATOM     28  C   UNL     1       2.185   2.418  17.774  0.00  0.00    +0.000 C 
ATOM     29  C   UNL     1       3.844   2.476  19.645  0.00  0.00    +0.000 C 
ENDBRANCH  26  27
ENDBRANCH  24  26
ENDBRANCH   8  22
TORSDOF 5
ENDMDL
MODEL 4
REMARK VINA RESULT:      -7.7      3.884      8.025
REMARK  Name = 
REMARK  8 active torsions:
REMARK  status: ('A' for Active; 'I' for Inactive)
REMARK    1  A    between atoms: C_1  and  C_2
REMARK    2  A    between atoms: C_7  and  N_8
REMARK    3  A    between atoms: C_9  and  C_11
REMARK    4  A    between atoms: C_18  and  C_19
REMARK    5  A    between atoms: N_21  and  C_22
REMARK    6  A    between atoms: C_22  and  C_23
REMARK    7  A    between atoms: C_23  and  C_24
REMARK    8  A    between atoms: C_23  and  C_25
REMARK                            x       y       z     vdW  Elec       q    Type
REMARK                         _______ _______ _______ _____ _____    ______ ____
ROOT
ATOM      1  C   UNL     1       3.408   1.382  18.616  0.00  0.00    +0.000 C 
ATOM      2  C   UNL     1       2.908   2.687  19.153  0.00  0.00    +0.000 A 
ATOM      3  C   UNL     1       2.009   2.670  20.303  0.00  0.00    +0.000 A 
ATOM      4  C   UNL     1       1.510   3.806  20.821  0.00  0.00    +0.000 A 
ATOM      5  C   UNL     1       1.857   5.058  20.248  0.00  0.00    +0.000 A 
ATOM      6  N   UNL     1       1.473   6.269  20.561  0.00  0.00    +0.000 NA
ATOM      7  C   UNL     1       2.143   7.103  19.723  0.00  0.00    +0.000 A 
ATOM      8  C   UNL     1       2.930   6.397  18.817  0.00  0.00    +0.000 A 
ATOM      9  N   UNL     1       2.740   5.063  19.174  0.00  0.00    +0.000 N 
ATOM     10  C   UNL     1       3.252   3.880  18.626  0.00  0.00    +0.000 A 
ENDROOT
BRANCH   7  11
ATOM     11  N   UNL     1       2.042   8.475  19.840  0.00  0.00    +0.000 N 
ATOM     12  C   UNL     1       1.344   9.285  18.948  0.00  0.00    +0.000 C 
ATOM     13  O   UNL     1       0.732   8.944  17.947  0.00  0.00    +0.000 OA
ATOM     14  H   UNL     1       2.402   8.875  20.693  0.00  0.00    +0.000 HD
BRANCH  12  15
ATOM     15  C   UNL     1       1.343  10.739  19.291  0.00  0.00    +0.000 A 
ATOM     16  C   UNL     1       1.913  11.694  18.441  0.00  0.00    +0.000 A 
ATOM     17  C   UNL     1       1.939  13.040  18.816  0.00  0.00    +0.000 A 
ATOM     18  C   UNL     1       1.370  13.437  20.026  0.00  0.00    +0.000 A 
ATOM     19 CL   UNL     1       1.427  15.093  20.488  0.00  0.00    +0.000 Cl
ATOM     20  C   UNL     1       0.756  12.503  20.856  0.00  0.00    +0.000 A 
ATOM     21  C   UNL     1       0.737  11.153  20.489  0.00  0.00    +0.000 A 
ENDBRANCH  12  15
ENDBRANCH   7  11
BRANCH   8  22
ATOM     22  C   UNL     1       3.815   6.831  17.762  0.00  0.00    +0.000 C 
ATOM     23  O   UNL     1       3.433   7.454  16.776  0.00  0.00    +0.000 OA
ATOM     24  N   UNL     1       5.152   6.520  17.939  0.00  0.00    +0.000 N 
ATOM     25  H   UNL     1       5.455   6.362  18.891  0.00  0.00    +0.000 HD
BRANCH  24  26
ATOM     26  C   UNL     1       6.161   6.950  16.975  0.00  0.00    +0.000 C 
BRANCH  26  27
ATOM     27  C   UNL     1       7.574   6.915  17.579  0.00  0.00    +0.000 C 
ATOM     28  C   UNL     1       8.057   8.321  17.939  0.00  0.00    +0.000 C 
ATOM     29  C   UNL     1       7.618   6.024  18.823  0.00  0.00    +0.000 C 
ENDBRANCH  26  27
ENDBRANCH  24  26
ENDBRANCH   8  22
TORSDOF 5
ENDMDL
MODEL 5
REMARK VINA RESULT:      -7.6      3.613      8.059
REMARK  Name = 
REMARK  8 active torsions:
REMARK  status: ('A' for Active; 'I' for Inactive)
REMARK    1  A    between atoms: C_1  and  C_2
REMARK    2  A    between atoms: C_7  and  N_8
REMARK    3  A    between atoms: C_9  and  C_11
REMARK    4  A    between atoms: C_18  and  C_19
REMARK    5  A    between atoms: N_21  and  C_22
REMARK    6  A    between atoms: C_22  and  C_23
REMARK    7  A    between atoms: C_23  and  C_24
REMARK    8  A    between atoms: C_23  and  C_25
REMARK                            x       y       z     vdW  Elec       q    Type
REMARK                         _______ _______ _______ _____ _____    ______ ____
ROOT
ATOM      1  C   UNL     1       4.694   1.342  19.922  0.00  0.00    +0.000 C 
ATOM      2  C   UNL     1       3.887   2.578  20.173  0.00  0.00    +0.000 A 
ATOM      3  C   UNL     1       2.925   2.571  21.271  0.00  0.00    +0.000 A 
ATOM      4  C   UNL     1       2.155   3.641  21.537  0.00  0.00    +0.000 A 
ATOM      5  C   UNL     1       2.270   4.812  20.741  0.00  0.00    +0.000 A 
ATOM      6  N   UNL     1       1.612   5.941  20.795  0.00  0.00    +0.000 NA
ATOM      7  C   UNL     1       2.152   6.736  19.832  0.00  0.00    +0.000 A 
ATOM      8  C   UNL     1       3.140   6.069  19.112  0.00  0.00    +0.000 A 
ATOM      9  N   UNL     1       3.212   4.817  19.719  0.00  0.00    +0.000 N 
ATOM     10  C   UNL     1       4.008   3.699  19.434  0.00  0.00    +0.000 A 
ENDROOT
BRANCH   7  11
ATOM     11  N   UNL     1       1.751   8.047  19.673  0.00  0.00    +0.000 N 
ATOM     12  C   UNL     1       1.125   8.797  20.665  0.00  0.00    +0.000 C 
ATOM     13  O   UNL     1       0.829   8.446  21.797  0.00  0.00    +0.000 OA
ATOM     14  H   UNL     1       2.045   8.500  18.821  0.00  0.00    +0.000 HD
BRANCH  12  15
ATOM     15  C   UNL     1       0.809  10.205  20.279  0.00  0.00    +0.000 A 
ATOM     16  C   UNL     1       0.685  11.219  21.236  0.00  0.00    +0.000 A 
ATOM     17  C   UNL     1       0.340  12.516  20.845  0.00  0.00    +0.000 A 
ATOM     18  C   UNL     1       0.148  12.808  19.495  0.00  0.00    +0.000 A 
ATOM     19 CL   UNL     1      -0.299  14.401  19.025  0.00  0.00    +0.000 Cl
ATOM     20  C   UNL     1       0.318  11.818  18.528  0.00  0.00    +0.000 A 
ATOM     21  C   UNL     1       0.653  10.518  18.918  0.00  0.00    +0.000 A 
ENDBRANCH  12  15
ENDBRANCH   7  11
BRANCH   8  22
ATOM     22  C   UNL     1       3.992   6.489  18.024  0.00  0.00    +0.000 C 
ATOM     23  O   UNL     1       3.643   7.299  17.171  0.00  0.00    +0.000 OA
ATOM     24  N   UNL     1       5.259   5.933  18.010  0.00  0.00    +0.000 N 
ATOM     25  H   UNL     1       5.612   5.595  18.895  0.00  0.00    +0.000 HD
BRANCH  24  26
ATOM     26  C   UNL     1       6.239   6.316  16.997  0.00  0.00    +0.000 C 
BRANCH  26  27
ATOM     27  C   UNL     1       7.595   6.670  17.627  0.00  0.00    +0.000 C 
ATOM     28  C   UNL     1       7.783   8.186  17.719  0.00  0.00    +0.000 C 
ATOM     29  C   UNL     1       7.735   6.050  19.019  0.00  0.00    +0.000 C 
ENDBRANCH  26  27
ENDBRANCH  24  26
ENDBRANCH   8  22
TORSDOF 5
ENDMDL
MODEL 6
REMARK VINA RESULT:      -7.6      3.725      8.578
REMARK  Name = 
REMARK  8 active torsions:
REMARK  status: ('A' for Active; 'I' for Inactive)
REMARK    1  A    between atoms: C_1  and  C_2
REMARK    2  A    between atoms: C_7  and  N_8
REMARK    3  A    between atoms: C_9  and  C_11
REMARK    4  A    between atoms: C_18  and  C_19
REMARK    5  A    between atoms: N_21  and  C_22
REMARK    6  A    between atoms: C_22  and  C_23
REMARK    7  A    between atoms: C_23  and  C_24
REMARK    8  A    between atoms: C_23  and  C_25
REMARK                            x       y       z     vdW  Elec       q    Type
REMARK                         _______ _______ _______ _____ _____    ______ ____
ROOT
ATOM      1  C   UNL     1       6.336   2.972  13.534  0.00  0.00    +0.000 C 
ATOM      2  C   UNL     1       5.919   4.077  14.453  0.00  0.00    +0.000 A 
ATOM      3  C   UNL     1       6.599   5.365  14.350  0.00  0.00    +0.000 A 
ATOM      4  C   UNL     1       6.285   6.392  15.159  0.00  0.00    +0.000 A 
ATOM      5  C   UNL     1       5.270   6.236  16.141  0.00  0.00    +0.000 A 
ATOM      6  N   UNL     1       4.828   7.074  17.042  0.00  0.00    +0.000 NA
ATOM      7  C   UNL     1       3.821   6.430  17.691  0.00  0.00    +0.000 A 
ATOM      8  C   UNL     1       3.661   5.128  17.223  0.00  0.00    +0.000 A 
ATOM      9  N   UNL     1       4.608   5.016  16.207  0.00  0.00    +0.000 N 
ATOM     10  C   UNL     1       4.941   3.941  15.372  0.00  0.00    +0.000 A 
ENDROOT
BRANCH   7  11
ATOM     11  N   UNL     1       3.063   7.065  18.655  0.00  0.00    +0.000 N 
ATOM     12  C   UNL     1       2.265   8.179  18.410  0.00  0.00    +0.000 C 
ATOM     13  O   UNL     1       2.103   8.769  17.353  0.00  0.00    +0.000 OA
ATOM     14  H   UNL     1       3.011   6.605  19.551  0.00  0.00    +0.000 HD
BRANCH  12  15
ATOM     15  C   UNL     1       1.509   8.679  19.598  0.00  0.00    +0.000 A 
ATOM     16  C   UNL     1       0.806   9.889  19.564  0.00  0.00    +0.000 A 
ATOM     17  C   UNL     1       0.149  10.352  20.707  0.00  0.00    +0.000 A 
ATOM     18  C   UNL     1       0.170   9.592  21.877  0.00  0.00    +0.000 A 
ATOM     19 CL   UNL     1      -0.621  10.181  23.286  0.00  0.00    +0.000 Cl
ATOM     20  C   UNL     1       0.825   8.363  21.908  0.00  0.00    +0.000 A 
ATOM     21  C   UNL     1       1.491   7.902  20.768  0.00  0.00    +0.000 A 
ENDBRANCH  12  15
ENDBRANCH   7  11
BRANCH   8  22
ATOM     22  C   UNL     1       2.735   4.080  17.583  0.00  0.00    +0.000 C 
ATOM     23  O   UNL     1       1.843   3.685  16.838  0.00  0.00    +0.000 OA
ATOM     24  N   UNL     1       2.927   3.516  18.832  0.00  0.00    +0.000 N 
ATOM     25  H   UNL     1       3.855   3.597  19.225  0.00  0.00    +0.000 HD
BRANCH  24  26
ATOM     26  C   UNL     1       2.096   2.408  19.296  0.00  0.00    +0.000 C 
BRANCH  26  27
ATOM     27  C   UNL     1       1.270   2.799  20.531  0.00  0.00    +0.000 C 
ATOM     28  C   UNL     1       2.060   2.565  21.821  0.00  0.00    +0.000 C 
ATOM     29  C   UNL     1       0.828   4.262  20.458  0.00  0.00    +0.000 C 
ENDBRANCH  26  27
ENDBRANCH  24  26
ENDBRANCH   8  22
TORSDOF 5
ENDMDL
MODEL 7
REMARK VINA RESULT:      -7.5      3.836      7.999
REMARK  Name = 
REMARK  8 active torsions:
REMARK  status: ('A' for Active; 'I' for Inactive)
REMARK    1  A    between atoms: C_1  and  C_2
REMARK    2  A    between atoms: C_7  and  N_8
REMARK    3  A    between atoms: C_9  and  C_11
REMARK    4  A    between atoms: C_18  and  C_19
REMARK    5  A    between atoms: N_21  and  C_22
REMARK    6  A    between atoms: C_22  and  C_23
REMARK    7  A    between atoms: C_23  and  C_24
REMARK    8  A    between atoms: C_23  and  C_25
REMARK                            x       y       z     vdW  Elec       q    Type
REMARK                         _______ _______ _______ _____ _____    ______ ____
ROOT
ATOM      1  C   UNL     1       3.538   1.366  18.595  0.00  0.00    +0.000 C 
ATOM      2  C   UNL     1       2.988   2.652  19.132  0.00  0.00    +0.000 A 
ATOM      3  C   UNL     1       2.033   2.596  20.234  0.00  0.00    +0.000 A 
ATOM      4  C   UNL     1       1.488   3.712  20.748  0.00  0.00    +0.000 A 
ATOM      5  C   UNL     1       1.841   4.982  20.219  0.00  0.00    +0.000 A 
ATOM      6  N   UNL     1       1.419   6.179  20.535  0.00  0.00    +0.000 NA
ATOM      7  C   UNL     1       2.116   7.042  19.748  0.00  0.00    +0.000 A 
ATOM      8  C   UNL     1       2.960   6.367  18.870  0.00  0.00    +0.000 A 
ATOM      9  N   UNL     1       2.776   5.024  19.191  0.00  0.00    +0.000 N 
ATOM     10  C   UNL     1       3.337   3.860  18.647  0.00  0.00    +0.000 A 
ENDROOT
BRANCH   7  11
ATOM     11  N   UNL     1       1.984   8.409  19.887  0.00  0.00    +0.000 N 
ATOM     12  C   UNL     1       1.317   9.224  18.977  0.00  0.00    +0.000 C 
ATOM     13  O   UNL     1       0.761   8.894  17.940  0.00  0.00    +0.000 OA
ATOM     14  H   UNL     1       2.294   8.797  20.765  0.00  0.00    +0.000 HD
BRANCH  12  15
ATOM     15  C   UNL     1       1.273  10.671  19.348  0.00  0.00    +0.000 A 
ATOM     16  C   UNL     1       1.804  11.660  18.512  0.00  0.00    +0.000 A 
ATOM     17  C   UNL     1       1.790  12.999  18.912  0.00  0.00    +0.000 A 
ATOM     18  C   UNL     1       1.219  13.354  20.134  0.00  0.00    +0.000 A 
ATOM     19 CL   UNL     1       1.228  15.002  20.628  0.00  0.00    +0.000 Cl
ATOM     20  C   UNL     1       0.643  12.385  20.952  0.00  0.00    +0.000 A 
ATOM     21  C   UNL     1       0.665  11.043  20.559  0.00  0.00    +0.000 A 
ENDBRANCH  12  15
ENDBRANCH   7  11
BRANCH   8  22
ATOM     22  C   UNL     1       3.889   6.838  17.870  0.00  0.00    +0.000 C 
ATOM     23  O   UNL     1       3.589   7.653  17.003  0.00  0.00    +0.000 OA
ATOM     24  N   UNL     1       5.172   6.325  17.959  0.00  0.00    +0.000 N 
ATOM     25  H   UNL     1       5.457   5.981  18.866  0.00  0.00    +0.000 HD
BRANCH  24  26
ATOM     26  C   UNL     1       6.224   6.762  17.044  0.00  0.00    +0.000 C 
BRANCH  26  27
ATOM     27  C   UNL     1       6.901   5.569  16.351  0.00  0.00    +0.000 C 
ATOM     28  C   UNL     1       7.431   4.562  17.374  0.00  0.00    +0.000 C 
ATOM     29  C   UNL     1       5.935   4.868  15.393  0.00  0.00    +0.000 C 
ENDBRANCH  26  27
ENDBRANCH  24  26
ENDBRANCH   8  22
TORSDOF 5
ENDMDL
MODEL 8
REMARK VINA RESULT:      -7.5      0.384      1.005
REMARK  Name = 
REMARK  8 active torsions:
REMARK  status: ('A' for Active; 'I' for Inactive)
REMARK    1  A    between atoms: C_1  and  C_2
REMARK    2  A    between atoms: C_7  and  N_8
REMARK    3  A    between atoms: C_9  and  C_11
REMARK    4  A    between atoms: C_18  and  C_19
REMARK    5  A    between atoms: N_21  and  C_22
REMARK    6  A    between atoms: C_22  and  C_23
REMARK    7  A    between atoms: C_23  and  C_24
REMARK    8  A    between atoms: C_23  and  C_25
REMARK                            x       y       z     vdW  Elec       q    Type
REMARK                         _______ _______ _______ _____ _____    ______ ____
ROOT
ATOM      1  C   UNL     1      -2.465  12.201  22.781  0.00  0.00    +0.000 C 
ATOM      2  C   UNL     1      -1.424  11.184  22.432  0.00  0.00    +0.000 A 
ATOM      3  C   UNL     1      -0.790  10.435  23.513  0.00  0.00    +0.000 A 
ATOM      4  C   UNL     1       0.165   9.521  23.269  0.00  0.00    +0.000 A 
ATOM      5  C   UNL     1       0.578   9.267  21.934  0.00  0.00    +0.000 A 
ATOM      6  N   UNL     1       1.497   8.460  21.470  0.00  0.00    +0.000 NA
ATOM      7  C   UNL     1       1.447   8.575  20.116  0.00  0.00    +0.000 A 
ATOM      8  C   UNL     1       0.510   9.523  19.716  0.00  0.00    +0.000 A 
ATOM      9  N   UNL     1      -0.055   9.963  20.911  0.00  0.00    +0.000 N 
ATOM     10  C   UNL     1      -1.044  10.924  21.165  0.00  0.00    +0.000 A 
ENDROOT
BRANCH   7  11
ATOM     11  N   UNL     1       2.230   7.784  19.298  0.00  0.00    +0.000 N 
ATOM     12  C   UNL     1       2.357   6.405  19.436  0.00  0.00    +0.000 C 
ATOM     13  O   UNL     1       1.831   5.682  20.269  0.00  0.00    +0.000 OA
ATOM     14  H   UNL     1       2.627   8.239  18.490  0.00  0.00    +0.000 HD
BRANCH  12  15
ATOM     15  C   UNL     1       3.233   5.752  18.417  0.00  0.00    +0.000 A 
ATOM     16  C   UNL     1       4.256   6.455  17.770  0.00  0.00    +0.000 A 
ATOM     17  C   UNL     1       5.026   5.828  16.786  0.00  0.00    +0.000 A 
ATOM     18  C   UNL     1       4.793   4.490  16.468  0.00  0.00    +0.000 A 
ATOM     19 CL   UNL     1       5.730   3.734  15.240  0.00  0.00    +0.000 Cl
ATOM     20  C   UNL     1       3.811   3.766  17.140  0.00  0.00    +0.000 A 
ATOM     21  C   UNL     1       3.033   4.394  18.118  0.00  0.00    +0.000 A 
ENDBRANCH  12  15
ENDBRANCH   7  11
BRANCH   8  22
ATOM     22  C   UNL     1       0.094   9.979  18.410  0.00  0.00    +0.000 C 
ATOM     23  O   UNL     1       0.868  10.456  17.585  0.00  0.00    +0.000 OA
ATOM     24  N   UNL     1      -1.252   9.824  18.125  0.00  0.00    +0.000 N 
ATOM     25  H   UNL     1      -1.744   9.114  18.650  0.00  0.00    +0.000 HD
BRANCH  24  26
ATOM     26  C   UNL     1      -1.793  10.193  16.819  0.00  0.00    +0.000 C 
BRANCH  26  27
ATOM     27  C   UNL     1      -3.309  10.434  16.883  0.00  0.00    +0.000 C 
ATOM     28  C   UNL     1      -3.657  11.493  17.932  0.00  0.00    +0.000 C 
ATOM     29  C   UNL     1      -3.856  10.863  15.520  0.00  0.00    +0.000 C 
ENDBRANCH  26  27
ENDBRANCH  24  26
ENDBRANCH   8  22
TORSDOF 5
ENDMDL
MODEL 9
REMARK VINA RESULT:      -7.5      3.914      7.931
REMARK  Name = 
REMARK  8 active torsions:
REMARK  status: ('A' for Active; 'I' for Inactive)
REMARK    1  A    between atoms: C_1  and  C_2
REMARK    2  A    between atoms: C_7  and  N_8
REMARK    3  A    between atoms: C_9  and  C_11
REMARK    4  A    between atoms: C_18  and  C_19
REMARK    5  A    between atoms: N_21  and  C_22
REMARK    6  A    between atoms: C_22  and  C_23
REMARK    7  A    between atoms: C_23  and  C_24
REMARK    8  A    between atoms: C_23  and  C_25
REMARK                            x       y       z     vdW  Elec       q    Type
REMARK                         _______ _______ _______ _____ _____    ______ ____
ROOT
ATOM      1  C   UNL     1       3.613   1.638  18.581  0.00  0.00    +0.000 C 
ATOM      2  C   UNL     1       3.010   2.810  19.292  0.00  0.00    +0.000 A 
ATOM      3  C   UNL     1       2.321   2.578  20.558  0.00  0.00    +0.000 A 
ATOM      4  C   UNL     1       1.742   3.584  21.237  0.00  0.00    +0.000 A 
ATOM      5  C   UNL     1       1.794   4.907  20.724  0.00  0.00    +0.000 A 
ATOM      6  N   UNL     1       1.281   6.017  21.189  0.00  0.00    +0.000 NA
ATOM      7  C   UNL     1       1.671   6.998  20.332  0.00  0.00    +0.000 A 
ATOM      8  C   UNL     1       2.401   6.484  19.263  0.00  0.00    +0.000 A 
ATOM      9  N   UNL     1       2.481   5.120  19.534  0.00  0.00    +0.000 N 
ATOM     10  C   UNL     1       3.076   4.071  18.820  0.00  0.00    +0.000 A 
ENDROOT
BRANCH   7  11
ATOM     11  N   UNL     1       1.378   8.325  20.575  0.00  0.00    +0.000 N 
ATOM     12  C   UNL     1       0.234   8.762  21.237  0.00  0.00    +0.000 C 
ATOM     13  O   UNL     1      -0.675   8.085  21.693  0.00  0.00    +0.000 OA
ATOM     14  H   UNL     1       2.107   8.987  20.357  0.00  0.00    +0.000 HD
BRANCH  12  15
ATOM     15  C   UNL     1       0.142  10.243  21.415  0.00  0.00    +0.000 A 
ATOM     16  C   UNL     1      -0.640  10.813  22.427  0.00  0.00    +0.000 A 
ATOM     17  C   UNL     1      -0.743  12.202  22.536  0.00  0.00    +0.000 A 
ATOM     18  C   UNL     1      -0.041  13.023  21.653  0.00  0.00    +0.000 A 
ATOM     19 CL   UNL     1      -0.193  14.732  21.780  0.00  0.00    +0.000 Cl
ATOM     20  C   UNL     1       0.779  12.468  20.673  0.00  0.00    +0.000 A 
ATOM     21  C   UNL     1       0.876  11.077  20.556  0.00  0.00    +0.000 A 
ENDBRANCH  12  15
ENDBRANCH   7  11
BRANCH   8  22
ATOM     22  C   UNL     1       3.028   7.119  18.127  0.00  0.00    +0.000 C 
ATOM     23  O   UNL     1       2.775   8.267  17.774  0.00  0.00    +0.000 OA
ATOM     24  N   UNL     1       3.966   6.353  17.457  0.00  0.00    +0.000 N 
ATOM     25  H   UNL     1       4.397   5.606  17.986  0.00  0.00    +0.000 HD
BRANCH  24  26
ATOM     26  C   UNL     1       4.713   6.895  16.326  0.00  0.00    +0.000 C 
BRANCH  26  27
ATOM     27  C   UNL     1       5.761   5.896  15.809  0.00  0.00    +0.000 C 
ATOM     28  C   UNL     1       6.998   5.877  16.709  0.00  0.00    +0.000 C 
ATOM     29  C   UNL     1       5.175   4.485  15.712  0.00  0.00    +0.000 C 
ENDBRANCH  26  27
ENDBRANCH  24  26
ENDBRANCH   8  22
TORSDOF 5
ENDMDL
