MODEL 1
REMARK VINA RESULT:      -8.1      0.000      0.000
REMARK  Name = 
REMARK  6 active torsions:
REMARK  status: ('A' for Active; 'I' for Inactive)
REMARK    1  A    between atoms: C_1  and  N_2
REMARK    2  A    between atoms: N_2  and  C_18
REMARK    3  A    between atoms: C_3  and  C_5
REMARK    4  A    between atoms: C_5  and  C_6
REMARK    5  A    between atoms: C_5  and  C_12
REMARK    6  A    between atoms: C_23  and  N_24
REMARK                            x       y       z     vdW  Elec       q    Type
REMARK                         _______ _______ _______ _____ _____    ______ ____
ROOT
ATOM      1  C   UNL     1       1.881   7.769  20.434  0.00  0.00    +0.000 C 
ATOM      2  N   UNL     1       1.954   7.969  18.990  0.00  0.00    +0.000 N 
ATOM      3  C   UNL     1       1.586   9.169  18.347  0.00  0.00    +0.000 C 
ATOM      4  O   UNL     1       1.896   9.361  17.166  0.00  0.00    +0.000 OA
ENDROOT
BRANCH   2   5
ATOM      5  C   UNL     1       2.618   6.892  18.178  0.00  0.00    +0.000 C 
ATOM      6  C   UNL     1       3.977   7.414  17.661  0.00  0.00    +0.000 C 
ATOM      7  C   UNL     1       4.768   6.357  16.904  0.00  0.00    +0.000 C 
ATOM      8  C   UNL     1       5.045   5.170  17.804  0.00  0.00    +0.000 C 
ATOM      9  C   UNL     1       3.741   4.523  18.228  0.00  0.00    +0.000 C 
ATOM     10  C   UNL     1       2.743   5.484  18.912  0.00  0.00    +0.000 C 
BRANCH  10  11
ATOM     11  N   UNL     1       1.418   4.856  19.186  0.00  0.00    +0.000 NA
ATOM     12  C   UNL     1       1.207   4.447  20.584  0.00  0.00    +0.000 C 
ATOM     13  C   UNL     1       1.606   2.983  20.680  0.00  0.00    +0.000 C 
ATOM     14  C   UNL     1       1.384   2.435  19.283  0.00  0.00    +0.000 C 
ATOM     15  C   UNL     1       1.113   3.651  18.398  0.00  0.00    +0.000 C 
ENDBRANCH  10  11
ENDBRANCH   2   5
BRANCH   3  16
ATOM     16  C   UNL     1       0.695  10.197  19.121  0.00  0.00    +0.000 C 
BRANCH  16  17
ATOM     17  C   UNL     1       1.379  11.550  19.389  0.00  0.00    +0.000 A 
ATOM     18  C   UNL     1       1.348  12.162  20.649  0.00  0.00    +0.000 A 
ATOM     19  C   UNL     1       1.979  13.394  20.859  0.00  0.00    +0.000 A 
ATOM     20  C   UNL     1       2.654  14.028  19.818  0.00  0.00    +0.000 A 
ATOM     21  C   UNL     1       2.708  13.426  18.563  0.00  0.00    +0.000 A 
ATOM     22  C   UNL     1       2.081  12.196  18.349  0.00  0.00    +0.000 A 
ENDBRANCH  16  17
BRANCH  16  23
ATOM     23  C   UNL     1      -0.696  10.340  18.487  0.00  0.00    +0.000 A 
ATOM     24  C   UNL     1      -1.039   9.580  17.356  0.00  0.00    +0.000 A 
ATOM     25  C   UNL     1      -2.284   9.739  16.739  0.00  0.00    +0.000 A 
ATOM     26  C   UNL     1      -3.204  10.653  17.248  0.00  0.00    +0.000 A 
ATOM     27  C   UNL     1      -2.890  11.393  18.384  0.00  0.00    +0.000 A 
ATOM     28  C   UNL     1      -1.651  11.232  19.004  0.00  0.00    +0.000 A 
ENDBRANCH  16  23
ENDBRANCH   3  16
TORSDOF 5
ENDMDL
MODEL 2
REMARK VINA RESULT:      -8.1      0.056      1.290
REMARK  Name = 
REMARK  6 active torsions:
REMARK  status: ('A' for Active; 'I' for Inactive)
REMARK    1  A    between atoms: C_1  and  N_2
REMARK    2  A    between atoms: N_2  and  C_18
REMARK    3  A    between atoms: C_3  and  C_5
REMARK    4  A    between atoms: C_5  and  C_6
REMARK    5  A    between atoms: C_5  and  C_12
REMARK    6  A    between atoms: C_23  and  N_24
REMARK                            x       y       z     vdW  Elec       q    Type
REMARK                         _______ _______ _______ _____ _____    ______ ____
ROOT
ATOM      1  C   UNL     1       1.887   7.775  20.409  0.00  0.00    +0.000 C 
ATOM      2  N   UNL     1       1.971   7.973  18.965  0.00  0.00    +0.000 N 
ATOM      3  C   UNL     1       1.620   9.175  18.318  0.00  0.00    +0.000 C 
ATOM      4  O   UNL     1       1.940   9.362  17.138  0.00  0.00    +0.000 OA
ENDROOT
BRANCH   2   5
ATOM      5  C   UNL     1       2.630   6.887  18.159  0.00  0.00    +0.000 C 
ATOM      6  C   UNL     1       3.990   7.401  17.635  0.00  0.00    +0.000 C 
ATOM      7  C   UNL     1       4.775   6.336  16.882  0.00  0.00    +0.000 C 
ATOM      8  C   UNL     1       5.049   5.154  17.790  0.00  0.00    +0.000 C 
ATOM      9  C   UNL     1       3.743   4.515  18.221  0.00  0.00    +0.000 C 
ATOM     10  C   UNL     1       2.751   5.484  18.901  0.00  0.00    +0.000 C 
BRANCH  10  11
ATOM     11  N   UNL     1       1.424   4.863  19.183  0.00  0.00    +0.000 NA
ATOM     12  C   UNL     1       1.208   4.483  20.588  0.00  0.00    +0.000 C 
ATOM     13  C   UNL     1       1.605   3.021  20.716  0.00  0.00    +0.000 C 
ATOM     14  C   UNL     1       1.388   2.444  19.330  0.00  0.00    +0.000 C 
ATOM     15  C   UNL     1       1.122   3.642  18.418  0.00  0.00    +0.000 C 
ENDBRANCH  10  11
ENDBRANCH   2   5
BRANCH   3  16
ATOM     16  C   UNL     1       0.735  10.213  19.085  0.00  0.00    +0.000 C 
BRANCH  16  17
ATOM     17  C   UNL     1       1.427  11.564  19.346  0.00  0.00    +0.000 A 
ATOM     18  C   UNL     1       2.120  12.251  18.341  0.00  0.00    +0.000 A 
ATOM     19  C   UNL     1       2.741  13.475  18.612  0.00  0.00    +0.000 A 
ATOM     20  C   UNL     1       2.673  14.034  19.887  0.00  0.00    +0.000 A 
ATOM     21  C   UNL     1       1.976  13.372  20.894  0.00  0.00    +0.000 A 
ATOM     22  C   UNL     1       1.354  12.150  20.628  0.00  0.00    +0.000 A 
ENDBRANCH  16  17
BRANCH  16  23
ATOM     23  C   UNL     1      -0.654  10.361  18.450  0.00  0.00    +0.000 A 
ATOM     24  C   UNL     1      -1.578  11.281  18.976  0.00  0.00    +0.000 A 
ATOM     25  C   UNL     1      -2.864  11.389  18.438  0.00  0.00    +0.000 A 
ATOM     26  C   UNL     1      -3.242  10.587  17.364  0.00  0.00    +0.000 A 
ATOM     27  C   UNL     1      -2.330   9.692  16.813  0.00  0.00    +0.000 A 
ATOM     28  C   UNL     1      -1.044   9.585  17.345  0.00  0.00    +0.000 A 
ENDBRANCH  16  23
ENDBRANCH   3  16
TORSDOF 5
ENDMDL
MODEL 3
REMARK VINA RESULT:      -7.9      3.607      8.193
REMARK  Name = 
REMARK  6 active torsions:
REMARK  status: ('A' for Active; 'I' for Inactive)
REMARK    1  A    between atoms: C_1  and  N_2
REMARK    2  A    between atoms: N_2  and  C_18
REMARK    3  A    between atoms: C_3  and  C_5
REMARK    4  A    between atoms: C_5  and  C_6
REMARK    5  A    between atoms: C_5  and  C_12
REMARK    6  A    between atoms: C_23  and  N_24
REMARK                            x       y       z     vdW  Elec       q    Type
REMARK                         _______ _______ _______ _____ _____    ______ ____
ROOT
ATOM      1  C   UNL     1       5.178   3.329  19.044  0.00  0.00    +0.000 C 
ATOM      2  N   UNL     1       4.289   3.926  18.052  0.00  0.00    +0.000 N 
ATOM      3  C   UNL     1       4.671   4.200  16.723  0.00  0.00    +0.000 C 
ATOM      4  O   UNL     1       3.815   4.475  15.874  0.00  0.00    +0.000 OA
ENDROOT
BRANCH   2   5
ATOM      5  C   UNL     1       2.844   4.092  18.434  0.00  0.00    +0.000 C 
ATOM      6  C   UNL     1       2.136   2.722  18.342  0.00  0.00    +0.000 C 
ATOM      7  C   UNL     1       0.686   2.773  18.802  0.00  0.00    +0.000 C 
ATOM      8  C   UNL     1       0.613   3.231  20.244  0.00  0.00    +0.000 C 
ATOM      9  C   UNL     1       1.164   4.638  20.372  0.00  0.00    +0.000 C 
ATOM     10  C   UNL     1       2.602   4.813  19.833  0.00  0.00    +0.000 C 
BRANCH  10  11
ATOM     11  N   UNL     1       3.062   6.232  19.839  0.00  0.00    +0.000 NA
ATOM     12  C   UNL     1       2.064   7.202  20.318  0.00  0.00    +0.000 C 
ATOM     13  C   UNL     1       1.342   7.734  19.090  0.00  0.00    +0.000 C 
ATOM     14  C   UNL     1       2.348   7.593  17.964  0.00  0.00    +0.000 C 
ATOM     15  C   UNL     1       3.497   6.762  18.536  0.00  0.00    +0.000 C 
ENDBRANCH  10  11
ENDBRANCH   2   5
BRANCH   3  16
ATOM     16  C   UNL     1       6.196   4.253  16.373  0.00  0.00    +0.000 C 
BRANCH  16  17
ATOM     17  C   UNL     1       6.498   4.248  14.863  0.00  0.00    +0.000 A 
ATOM     18  C   UNL     1       5.793   3.434  13.966  0.00  0.00    +0.000 A 
ATOM     19  C   UNL     1       6.094   3.452  12.600  0.00  0.00    +0.000 A 
ATOM     20  C   UNL     1       7.097   4.285  12.108  0.00  0.00    +0.000 A 
ATOM     21  C   UNL     1       7.798   5.112  12.984  0.00  0.00    +0.000 A 
ATOM     22  C   UNL     1       7.499   5.099  14.348  0.00  0.00    +0.000 A 
ENDBRANCH  16  17
BRANCH  16  23
ATOM     23  C   UNL     1       6.918   5.377  17.128  0.00  0.00    +0.000 A 
ATOM     24  C   UNL     1       7.703   5.081  18.257  0.00  0.00    +0.000 A 
ATOM     25  C   UNL     1       8.324   6.102  18.983  0.00  0.00    +0.000 A 
ATOM     26  C   UNL     1       8.177   7.430  18.588  0.00  0.00    +0.000 A 
ATOM     27  C   UNL     1       7.427   7.736  17.456  0.00  0.00    +0.000 A 
ATOM     28  C   UNL     1       6.810   6.719  16.727  0.00  0.00    +0.000 A 
ENDBRANCH  16  23
ENDBRANCH   3  16
TORSDOF 5
ENDMDL
MODEL 4
REMARK VINA RESULT:      -7.4      2.922      8.035
REMARK  Name = 
REMARK  6 active torsions:
REMARK  status: ('A' for Active; 'I' for Inactive)
REMARK    1  A    between atoms: C_1  and  N_2
REMARK    2  A    between atoms: N_2  and  C_18
REMARK    3  A    between atoms: C_3  and  C_5
REMARK    4  A    between atoms: C_5  and  C_6
REMARK    5  A    between atoms: C_5  and  C_12
REMARK    6  A    between atoms: C_23  and  N_24
REMARK                            x       y       z     vdW  Elec       q    Type
REMARK                         _______ _______ _______ _____ _____    ______ ____
ROOT
ATOM      1  C   UNL     1       2.590  13.268  18.302  0.00  0.00    +0.000 C 
ATOM      2  N   UNL     1       1.936  13.091  19.595  0.00  0.00    +0.000 N 
ATOM      3  C   UNL     1       1.285  11.903  19.986  0.00  0.00    +0.000 C 
ATOM      4  O   UNL     1       0.967  11.729  21.168  0.00  0.00    +0.000 OA
ENDROOT
BRANCH   2   5
ATOM      5  C   UNL     1       2.123  14.179  20.616  0.00  0.00    +0.000 C 
ATOM      6  C   UNL     1       3.604  14.210  21.056  0.00  0.00    +0.000 C 
ATOM      7  C   UNL     1       3.910  15.344  22.023  0.00  0.00    +0.000 C 
ATOM      8  C   UNL     1       3.596  16.678  21.376  0.00  0.00    +0.000 C 
ATOM      9  C   UNL     1       2.117  16.764  21.053  0.00  0.00    +0.000 C 
ATOM     10  C   UNL     1       1.587  15.611  20.171  0.00  0.00    +0.000 C 
BRANCH  10  11
ATOM     11  N   UNL     1       0.107  15.643  19.990  0.00  0.00    +0.000 NA
ATOM     12  C   UNL     1      -0.341  16.011  18.638  0.00  0.00    +0.000 C 
ATOM     13  C   UNL     1      -0.591  17.511  18.648  0.00  0.00    +0.000 C 
ATOM     14  C   UNL     1      -0.933  17.830  20.090  0.00  0.00    +0.000 C 
ATOM     15  C   UNL     1      -0.620  16.561  20.882  0.00  0.00    +0.000 C 
ENDBRANCH  10  11
ENDBRANCH   2   5
BRANCH   3  16
ATOM     16  C   UNL     1       0.883  10.866  18.884  0.00  0.00    +0.000 C 
BRANCH  16  17
ATOM     17  C   UNL     1       1.400   9.439  19.142  0.00  0.00    +0.000 A 
ATOM     18  C   UNL     1       1.170   8.771  20.352  0.00  0.00    +0.000 A 
ATOM     19  C   UNL     1       1.656   7.474  20.555  0.00  0.00    +0.000 A 
ATOM     20  C   UNL     1       2.373   6.824  19.552  0.00  0.00    +0.000 A 
ATOM     21  C   UNL     1       2.598   7.467  18.337  0.00  0.00    +0.000 A 
ATOM     22  C   UNL     1       2.113   8.760  18.130  0.00  0.00    +0.000 A 
ENDBRANCH  16  17
BRANCH  16  23
ATOM     23  C   UNL     1      -0.619  10.915  18.572  0.00  0.00    +0.000 A 
ATOM     24  C   UNL     1      -1.426  11.918  19.138  0.00  0.00    +0.000 A 
ATOM     25  C   UNL     1      -2.804  11.943  18.902  0.00  0.00    +0.000 A 
ATOM     26  C   UNL     1      -3.393  10.973  18.093  0.00  0.00    +0.000 A 
ATOM     27  C   UNL     1      -2.603   9.991  17.503  0.00  0.00    +0.000 A 
ATOM     28  C   UNL     1      -1.227   9.967  17.733  0.00  0.00    +0.000 A 
ENDBRANCH  16  23
ENDBRANCH   3  16
TORSDOF 5
ENDMDL
MODEL 5
REMARK VINA RESULT:      -7.4      3.050      8.254
REMARK  Name = 
REMARK  6 active torsions:
REMARK  status: ('A' for Active; 'I' for Inactive)
REMARK    1  A    between atoms: C_1  and  N_2
REMARK    2  A    between atoms: N_2  and  C_18
REMARK    3  A    between atoms: C_3  and  C_5
REMARK    4  A    between atoms: C_5  and  C_6
REMARK    5  A    between atoms: C_5  and  C_12
REMARK    6  A    between atoms: C_23  and  N_24
REMARK                            x       y       z     vdW  Elec       q    Type
REMARK                         _______ _______ _______ _____ _____    ______ ____
ROOT
ATOM      1  C   UNL     1       1.298  12.743  21.274  0.00  0.00    +0.000 C 
ATOM      2  N   UNL     1       1.321  13.107  19.861  0.00  0.00    +0.000 N 
ATOM      3  C   UNL     1       0.468  12.540  18.893  0.00  0.00    +0.000 C 
ATOM      4  O   UNL     1       0.368  13.056  17.774  0.00  0.00    +0.000 OA
ENDROOT
BRANCH   2   5
ATOM      5  C   UNL     1       2.186  14.272  19.464  0.00  0.00    +0.000 C 
ATOM      6  C   UNL     1       3.266  13.785  18.472  0.00  0.00    +0.000 C 
ATOM      7  C   UNL     1       4.135  14.915  17.941  0.00  0.00    +0.000 C 
ATOM      8  C   UNL     1       3.278  15.936  17.221  0.00  0.00    +0.000 C 
ATOM      9  C   UNL     1       2.288  16.559  18.187  0.00  0.00    +0.000 C 
ATOM     10  C   UNL     1       1.391  15.542  18.927  0.00  0.00    +0.000 C 
BRANCH  10  11
ATOM     11  N   UNL     1       0.531  16.170  19.973  0.00  0.00    +0.000 NA
ATOM     12  C   UNL     1      -0.915  16.014  19.757  0.00  0.00    +0.000 C 
ATOM     13  C   UNL     1      -1.389  17.256  19.020  0.00  0.00    +0.000 C 
ATOM     14  C   UNL     1      -0.405  18.337  19.424  0.00  0.00    +0.000 C 
ATOM     15  C   UNL     1       0.723  17.617  20.164  0.00  0.00    +0.000 C 
ENDBRANCH  10  11
ENDBRANCH   2   5
BRANCH   3  16
ATOM     16  C   UNL     1      -0.260  11.195  19.225  0.00  0.00    +0.000 C 
BRANCH  16  17
ATOM     17  C   UNL     1      -1.589  10.993  18.474  0.00  0.00    +0.000 A 
ATOM     18  C   UNL     1      -1.717  10.078  17.421  0.00  0.00    +0.000 A 
ATOM     19  C   UNL     1      -2.939   9.921  16.757  0.00  0.00    +0.000 A 
ATOM     20  C   UNL     1      -4.051  10.670  17.138  0.00  0.00    +0.000 A 
ATOM     21  C   UNL     1      -3.945  11.574  18.192  0.00  0.00    +0.000 A 
ATOM     22  C   UNL     1      -2.728  11.733  18.859  0.00  0.00    +0.000 A 
ENDBRANCH  16  17
BRANCH  16  23
ATOM     23  C   UNL     1       0.684   9.989  19.113  0.00  0.00    +0.000 A 
ATOM     24  C   UNL     1       1.375   9.741  17.915  0.00  0.00    +0.000 A 
ATOM     25  C   UNL     1       2.198   8.618  17.784  0.00  0.00    +0.000 A 
ATOM     26  C   UNL     1       2.347   7.733  18.849  0.00  0.00    +0.000 A 
ATOM     27  C   UNL     1       1.692   7.980  20.052  0.00  0.00    +0.000 A 
ATOM     28  C   UNL     1       0.874   9.103  20.186  0.00  0.00    +0.000 A 
ENDBRANCH  16  23
ENDBRANCH   3  16
TORSDOF 5
ENDMDL
MODEL 6
REMARK VINA RESULT:      -7.3      1.301      7.844
REMARK  Name = 
REMARK  6 active torsions:
REMARK  status: ('A' for Active; 'I' for Inactive)
REMARK    1  A    between atoms: C_1  and  N_2
REMARK    2  A    between atoms: N_2  and  C_18
REMARK    3  A    between atoms: C_3  and  C_5
REMARK    4  A    between atoms: C_5  and  C_6
REMARK    5  A    between atoms: C_5  and  C_12
REMARK    6  A    between atoms: C_23  and  N_24
REMARK                            x       y       z     vdW  Elec       q    Type
REMARK                         _______ _______ _______ _____ _____    ______ ____
ROOT
ATOM      1  C   UNL     1       1.112   8.702  20.528  0.00  0.00    +0.000 C 
ATOM      2  N   UNL     1       1.335   8.840  19.092  0.00  0.00    +0.000 N 
ATOM      3  C   UNL     1       2.005   7.878  18.308  0.00  0.00    +0.000 C 
ATOM      4  O   UNL     1       1.949   7.934  17.074  0.00  0.00    +0.000 OA
ENDROOT
BRANCH   2   5
ATOM      5  C   UNL     1       0.660   9.991  18.398  0.00  0.00    +0.000 C 
ATOM      6  C   UNL     1      -0.768   9.567  17.989  0.00  0.00    +0.000 C 
ATOM      7  C   UNL     1      -1.565  10.700  17.359  0.00  0.00    +0.000 C 
ATOM      8  C   UNL     1      -1.690  11.853  18.336  0.00  0.00    +0.000 C 
ATOM      9  C   UNL     1      -0.318  12.409  18.663  0.00  0.00    +0.000 C 
ATOM     10  C   UNL     1       0.683  11.364  19.204  0.00  0.00    +0.000 C 
BRANCH  10  11
ATOM     11  N   UNL     1       2.061  11.908  19.380  0.00  0.00    +0.000 NA
ATOM     12  C   UNL     1       2.176  12.987  20.373  0.00  0.00    +0.000 C 
ATOM     13  C   UNL     1       2.057  14.299  19.613  0.00  0.00    +0.000 C 
ATOM     14  C   UNL     1       2.549  13.976  18.215  0.00  0.00    +0.000 C 
ATOM     15  C   UNL     1       2.686  12.454  18.165  0.00  0.00    +0.000 C 
ENDBRANCH  10  11
ENDBRANCH   2   5
BRANCH   3  16
ATOM     16  C   UNL     1       2.898   6.812  19.025  0.00  0.00    +0.000 C 
BRANCH  16  17
ATOM     17  C   UNL     1       2.182   5.480  19.314  0.00  0.00    +0.000 A 
ATOM     18  C   UNL     1       1.835   5.088  20.614  0.00  0.00    +0.000 A 
ATOM     19  C   UNL     1       1.187   3.870  20.843  0.00  0.00    +0.000 A 
ATOM     20  C   UNL     1       0.869   3.028  19.779  0.00  0.00    +0.000 A 
ATOM     21  C   UNL     1       1.193   3.408  18.478  0.00  0.00    +0.000 A 
ATOM     22  C   UNL     1       1.839   4.624  18.245  0.00  0.00    +0.000 A 
ENDBRANCH  16  17
BRANCH  16  23
ATOM     23  C   UNL     1       4.249   6.629  18.319  0.00  0.00    +0.000 A 
ATOM     24  C   UNL     1       4.432   7.101  17.008  0.00  0.00    +0.000 A 
ATOM     25  C   UNL     1       5.641   6.895  16.337  0.00  0.00    +0.000 A 
ATOM     26  C   UNL     1       6.685   6.222  16.967  0.00  0.00    +0.000 A 
ATOM     27  C   UNL     1       6.529   5.773  18.275  0.00  0.00    +0.000 A 
ATOM     28  C   UNL     1       5.325   5.982  18.949  0.00  0.00    +0.000 A 
ENDBRANCH  16  23
ENDBRANCH   3  16
TORSDOF 5
ENDMDL
MODEL 7
REMARK VINA RESULT:      -7.2      1.909      7.257
REMARK  Name = 
REMARK  6 active torsions:
REMARK  status: ('A' for Active; 'I' for Inactive)
REMARK    1  A    between atoms: C_1  and  N_2
REMARK    2  A    between atoms: N_2  and  C_18
REMARK    3  A    between atoms: C_3  and  C_5
REMARK    4  A    between atoms: C_5  and  C_6
REMARK    5  A    between atoms: C_5  and  C_12
REMARK    6  A    between atoms: C_23  and  N_24
REMARK                            x       y       z     vdW  Elec       q    Type
REMARK                         _______ _______ _______ _____ _____    ______ ____
ROOT
ATOM      1  C   UNL     1       2.435   8.782  17.755  0.00  0.00    +0.000 C 
ATOM      2  N   UNL     1       1.967   8.007  18.900  0.00  0.00    +0.000 N 
ATOM      3  C   UNL     1       2.465   6.732  19.238  0.00  0.00    +0.000 C 
ATOM      4  O   UNL     1       2.209   6.237  20.341  0.00  0.00    +0.000 OA
ENDROOT
BRANCH   2   5
ATOM      5  C   UNL     1       1.028   8.690  19.856  0.00  0.00    +0.000 C 
ATOM      6  C   UNL     1       1.412   8.306  21.302  0.00  0.00    +0.000 C 
ATOM      7  C   UNL     1       0.573   9.025  22.349  0.00  0.00    +0.000 C 
ATOM      8  C   UNL     1       0.743  10.524  22.211  0.00  0.00    +0.000 C 
ATOM      9  C   UNL     1       0.242  10.983  20.854  0.00  0.00    +0.000 C 
ATOM     10  C   UNL     1       0.898  10.264  19.655  0.00  0.00    +0.000 C 
BRANCH  10  11
ATOM     11  N   UNL     1       0.285  10.630  18.345  0.00  0.00    +0.000 NA
ATOM     12  C   UNL     1      -0.099  12.044  18.218  0.00  0.00    +0.000 C 
ATOM     13  C   UNL     1      -1.564  12.141  18.613  0.00  0.00    +0.000 C 
ATOM     14  C   UNL     1      -2.134  10.771  18.301  0.00  0.00    +0.000 C 
ATOM     15  C   UNL     1      -0.931   9.883  17.984  0.00  0.00    +0.000 C 
ENDBRANCH  10  11
ENDBRANCH   2   5
BRANCH   3  16
ATOM     16  C   UNL     1       3.253   5.920  18.156  0.00  0.00    +0.000 C 
BRANCH  16  17
ATOM     17  C   UNL     1       4.782   6.083  18.234  0.00  0.00    +0.000 A 
ATOM     18  C   UNL     1       5.544   5.486  19.248  0.00  0.00    +0.000 A 
ATOM     19  C   UNL     1       6.932   5.656  19.291  0.00  0.00    +0.000 A 
ATOM     20  C   UNL     1       7.580   6.418  18.321  0.00  0.00    +0.000 A 
ATOM     21  C   UNL     1       6.841   7.006  17.297  0.00  0.00    +0.000 A 
ATOM     22  C   UNL     1       5.456   6.837  17.249  0.00  0.00    +0.000 A 
ENDBRANCH  16  17
BRANCH  16  23
ATOM     23  C   UNL     1       2.806   4.453  18.103  0.00  0.00    +0.000 A 
ATOM     24  C   UNL     1       1.516   4.091  18.530  0.00  0.00    +0.000 A 
ATOM     25  C   UNL     1       1.115   2.751  18.535  0.00  0.00    +0.000 A 
ATOM     26  C   UNL     1       1.992   1.757  18.106  0.00  0.00    +0.000 A 
ATOM     27  C   UNL     1       3.262   2.103  17.653  0.00  0.00    +0.000 A 
ATOM     28  C   UNL     1       3.663   3.439  17.643  0.00  0.00    +0.000 A 
ENDBRANCH  16  23
ENDBRANCH   3  16
TORSDOF 5
ENDMDL
MODEL 8
REMARK VINA RESULT:      -7.2      1.620      7.086
REMARK  Name = 
REMARK  6 active torsions:
REMARK  status: ('A' for Active; 'I' for Inactive)
REMARK    1  A    between atoms: C_1  and  N_2
REMARK    2  A    between atoms: N_2  and  C_18
REMARK    3  A    between atoms: C_3  and  C_5
REMARK    4  A    between atoms: C_5  and  C_6
REMARK    5  A    between atoms: C_5  and  C_12
REMARK    6  A    between atoms: C_23  and  N_24
REMARK                            x       y       z     vdW  Elec       q    Type
REMARK                         _______ _______ _______ _____ _____    ______ ____
ROOT
ATOM      1  C   UNL     1       1.720   8.981  17.246  0.00  0.00    +0.000 C 
ATOM      2  N   UNL     1       1.469   8.709  18.658  0.00  0.00    +0.000 N 
ATOM      3  C   UNL     1       1.986   7.590  19.343  0.00  0.00    +0.000 C 
ATOM      4  O   UNL     1       1.942   7.543  20.578  0.00  0.00    +0.000 OA
ENDROOT
BRANCH   2   5
ATOM      5  C   UNL     1       0.763   9.775  19.450  0.00  0.00    +0.000 C 
ATOM      6  C   UNL     1       1.815  10.665  20.149  0.00  0.00    +0.000 C 
ATOM      7  C   UNL     1       1.196  11.833  20.902  0.00  0.00    +0.000 C 
ATOM      8  C   UNL     1       0.413  12.712  19.947  0.00  0.00    +0.000 C 
ATOM      9  C   UNL     1      -0.731  11.926  19.336  0.00  0.00    +0.000 C 
ATOM     10  C   UNL     1      -0.304  10.622  18.626  0.00  0.00    +0.000 C 
BRANCH  10  11
ATOM     11  N   UNL     1      -1.460   9.801  18.163  0.00  0.00    +0.000 NA
ATOM     12  C   UNL     1      -1.613   9.721  16.702  0.00  0.00    +0.000 C 
ATOM     13  C   UNL     1      -2.590  10.815  16.300  0.00  0.00    +0.000 C 
ATOM     14  C   UNL     1      -3.453  11.025  17.529  0.00  0.00    +0.000 C 
ATOM     15  C   UNL     1      -2.780  10.233  18.650  0.00  0.00    +0.000 C 
ENDBRANCH  10  11
ENDBRANCH   2   5
BRANCH   3  16
ATOM     16  C   UNL     1       2.514   6.375  18.511  0.00  0.00    +0.000 C 
BRANCH  16  17
ATOM     17  C   UNL     1       4.049   6.311  18.390  0.00  0.00    +0.000 A 
ATOM     18  C   UNL     1       4.833   5.548  19.265  0.00  0.00    +0.000 A 
ATOM     19  C   UNL     1       6.225   5.513  19.129  0.00  0.00    +0.000 A 
ATOM     20  C   UNL     1       6.853   6.235  18.116  0.00  0.00    +0.000 A 
ATOM     21  C   UNL     1       6.088   6.987  17.228  0.00  0.00    +0.000 A 
ATOM     22  C   UNL     1       4.698   7.023  17.359  0.00  0.00    +0.000 A 
ENDBRANCH  16  17
BRANCH  16  23
ATOM     23  C   UNL     1       1.891   5.050  18.973  0.00  0.00    +0.000 A 
ATOM     24  C   UNL     1       1.647   4.821  20.338  0.00  0.00    +0.000 A 
ATOM     25  C   UNL     1       1.128   3.599  20.776  0.00  0.00    +0.000 A 
ATOM     26  C   UNL     1       0.838   2.593  19.857  0.00  0.00    +0.000 A 
ATOM     27  C   UNL     1       1.047   2.815  18.498  0.00  0.00    +0.000 A 
ATOM     28  C   UNL     1       1.561   4.035  18.059  0.00  0.00    +0.000 A 
ENDBRANCH  16  23
ENDBRANCH   3  16
TORSDOF 5
ENDMDL
MODEL 9
REMARK VINA RESULT:      -7.2      4.269      7.760
REMARK  Name = 
REMARK  6 active torsions:
REMARK  status: ('A' for Active; 'I' for Inactive)
REMARK    1  A    between atoms: C_1  and  N_2
REMARK    2  A    between atoms: N_2  and  C_18
REMARK    3  A    between atoms: C_3  and  C_5
REMARK    4  A    between atoms: C_5  and  C_6
REMARK    5  A    between atoms: C_5  and  C_12
REMARK    6  A    between atoms: C_23  and  N_24
REMARK                            x       y       z     vdW  Elec       q    Type
REMARK                         _______ _______ _______ _____ _____    ______ ____
ROOT
ATOM      1  C   UNL     1      -1.908  10.124  18.323  0.00  0.00    +0.000 C 
ATOM      2  N   UNL     1      -2.063  11.530  18.684  0.00  0.00    +0.000 N 
ATOM      3  C   UNL     1      -0.990  12.364  19.058  0.00  0.00    +0.000 C 
ATOM      4  O   UNL     1      -1.146  13.589  19.115  0.00  0.00    +0.000 OA
ENDROOT
BRANCH   2   5
ATOM      5  C   UNL     1      -3.417  12.149  18.475  0.00  0.00    +0.000 C 
ATOM      6  C   UNL     1      -4.116  11.446  17.289  0.00  0.00    +0.000 C 
ATOM      7  C   UNL     1      -5.536  11.944  17.059  0.00  0.00    +0.000 C 
ATOM      8  C   UNL     1      -6.378  11.704  18.296  0.00  0.00    +0.000 C 
ATOM      9  C   UNL     1      -5.820  12.490  19.467  0.00  0.00    +0.000 C 
ATOM     10  C   UNL     1      -4.333  12.208  19.776  0.00  0.00    +0.000 C 
BRANCH  10  11
ATOM     11  N   UNL     1      -3.774  13.098  20.835  0.00  0.00    +0.000 NA
ATOM     12  C   UNL     1      -3.914  12.586  22.207  0.00  0.00    +0.000 C 
ATOM     13  C   UNL     1      -5.193  13.183  22.773  0.00  0.00    +0.000 C 
ATOM     14  C   UNL     1      -5.373  14.485  22.015  0.00  0.00    +0.000 C 
ATOM     15  C   UNL     1      -4.343  14.455  20.886  0.00  0.00    +0.000 C 
ENDBRANCH  10  11
ENDBRANCH   2   5
BRANCH   3  16
ATOM     16  C   UNL     1       0.359  11.704  19.499  0.00  0.00    +0.000 C 
BRANCH  16  17
ATOM     17  C   UNL     1       1.557  12.672  19.523  0.00  0.00    +0.000 A 
ATOM     18  C   UNL     1       2.048  13.219  20.716  0.00  0.00    +0.000 A 
ATOM     19  C   UNL     1       3.138  14.097  20.703  0.00  0.00    +0.000 A 
ATOM     20  C   UNL     1       3.755  14.438  19.501  0.00  0.00    +0.000 A 
ATOM     21  C   UNL     1       3.290  13.892  18.307  0.00  0.00    +0.000 A 
ATOM     22  C   UNL     1       2.204  13.013  18.316  0.00  0.00    +0.000 A 
ENDBRANCH  16  17
BRANCH  16  23
ATOM     23  C   UNL     1       0.207  10.902  20.799  0.00  0.00    +0.000 A 
ATOM     24  C   UNL     1      -0.645  11.362  21.818  0.00  0.00    +0.000 A 
ATOM     25  C   UNL     1      -0.753  10.667  23.027  0.00  0.00    +0.000 A 
ATOM     26  C   UNL     1      -0.018   9.501  23.231  0.00  0.00    +0.000 A 
ATOM     27  C   UNL     1       0.808   9.018  22.220  0.00  0.00    +0.000 A 
ATOM     28  C   UNL     1       0.914   9.707  21.012  0.00  0.00    +0.000 A 
ENDBRANCH  16  23
ENDBRANCH   3  16
TORSDOF 5
ENDMDL
