MODEL 1
REMARK VINA RESULT:      -7.1      0.000      0.000
REMARK  Name = 
REMARK  7 active torsions:
REMARK  status: ('A' for Active; 'I' for Inactive)
REMARK    1  A    between atoms: C_1  and  N_2
REMARK    2  A    between atoms: N_2  and  C_3
REMARK    3  A    between atoms: N_2  and  C_4
REMARK    4  A    between atoms: C_4  and  C_5
REMARK    5  A    between atoms: C_4  and  C_12
REMARK    6  A    between atoms: C_5  and  C_6
REMARK    7  A    between atoms: C_12  and  C_14
REMARK                            x       y       z     vdW  Elec       q    Type
REMARK                         _______ _______ _______ _____ _____    ______ ____
ROOT
ATOM      1  C   UNL     1       3.304   4.356  19.006  0.00  0.00    +0.000 C 
ENDROOT
BRANCH   1   3
ATOM      2  C   UNL     1       1.132   3.271  19.465  0.00  0.00    +0.000 C 
ATOM      3  N   UNL     1       2.526   3.075  19.058  0.00  0.00    +0.000 NA
ATOM      4  C   UNL     1       2.544   2.373  17.767  0.00  0.00    +0.000 C 
ENDBRANCH   1   3
BRANCH   1   5
ATOM      5  C   UNL     1       4.830   4.093  19.158  0.00  0.00    +0.000 C 
ATOM      6  O   UNL     1       5.297   3.101  19.721  0.00  0.00    +0.000 OA
BRANCH   5   7
ATOM      7  C   UNL     1       5.823   5.064  18.612  0.00  0.00    +0.000 A 
ATOM      8  C   UNL     1       5.511   5.676  17.385  0.00  0.00    +0.000 A 
ATOM      9  C   UNL     1       6.344   6.656  16.847  0.00  0.00    +0.000 A 
ATOM     10  C   UNL     1       7.494   7.035  17.531  0.00  0.00    +0.000 A 
ATOM     11  C   UNL     1       7.814   6.431  18.749  0.00  0.00    +0.000 A 
ATOM     12  C   UNL     1       6.984   5.444  19.292  0.00  0.00    +0.000 A 
ENDBRANCH   5   7
ENDBRANCH   1   5
BRANCH   1  13
ATOM     13  C   UNL     1       2.869   5.446  20.034  0.00  0.00    +0.000 C 
BRANCH  13  14
ATOM     14  C   UNL     1       2.315   6.786  19.583  0.00  0.00    +0.000 A 
ATOM     15  C   UNL     1       1.709   7.709  20.440  0.00  0.00    +0.000 A 
ATOM     16  C   UNL     1       1.312   8.970  19.982  0.00  0.00    +0.000 A 
ATOM     17  C   UNL     1       1.474   9.313  18.644  0.00  0.00    +0.000 A 
ATOM     18  C   UNL     1       2.022   8.388  17.761  0.00  0.00    +0.000 A 
ATOM     19  C   UNL     1       2.443   7.138  18.226  0.00  0.00    +0.000 A 
ENDBRANCH  13  14
ENDBRANCH   1  13
TORSDOF 5
ENDMDL
MODEL 2
REMARK VINA RESULT:      -7.1      1.146      1.761
REMARK  Name = 
REMARK  7 active torsions:
REMARK  status: ('A' for Active; 'I' for Inactive)
REMARK    1  A    between atoms: C_1  and  N_2
REMARK    2  A    between atoms: N_2  and  C_3
REMARK    3  A    between atoms: N_2  and  C_4
REMARK    4  A    between atoms: C_4  and  C_5
REMARK    5  A    between atoms: C_4  and  C_12
REMARK    6  A    between atoms: C_5  and  C_6
REMARK    7  A    between atoms: C_12  and  C_14
REMARK                            x       y       z     vdW  Elec       q    Type
REMARK                         _______ _______ _______ _____ _____    ______ ____
ROOT
ATOM      1  C   UNL     1       2.844   3.940  19.327  0.00  0.00    +0.000 C 
ENDROOT
BRANCH   1   3
ATOM      2  C   UNL     1       1.495   3.015  21.180  0.00  0.00    +0.000 C 
ATOM      3  N   UNL     1       2.028   2.788  19.834  0.00  0.00    +0.000 NA
ATOM      4  C   UNL     1       0.911   2.472  18.933  0.00  0.00    +0.000 C 
ENDBRANCH   1   3
BRANCH   1   5
ATOM      5  C   UNL     1       4.323   3.519  19.092  0.00  0.00    +0.000 C 
ATOM      6  O   UNL     1       4.930   2.728  19.816  0.00  0.00    +0.000 OA
BRANCH   5   7
ATOM      7  C   UNL     1       5.094   4.077  17.942  0.00  0.00    +0.000 A 
ATOM      8  C   UNL     1       6.338   4.666  18.230  0.00  0.00    +0.000 A 
ATOM      9  C   UNL     1       7.157   5.136  17.205  0.00  0.00    +0.000 A 
ATOM     10  C   UNL     1       6.742   5.019  15.883  0.00  0.00    +0.000 A 
ATOM     11  C   UNL     1       5.508   4.438  15.586  0.00  0.00    +0.000 A 
ATOM     12  C   UNL     1       4.679   3.968  16.611  0.00  0.00    +0.000 A 
ENDBRANCH   5   7
ENDBRANCH   1   5
BRANCH   1  13
ATOM     13  C   UNL     1       2.813   5.224  20.214  0.00  0.00    +0.000 C 
BRANCH  13  14
ATOM     14  C   UNL     1       2.359   6.561  19.656  0.00  0.00    +0.000 A 
ATOM     15  C   UNL     1       1.717   7.546  20.413  0.00  0.00    +0.000 A 
ATOM     16  C   UNL     1       1.416   8.798  19.867  0.00  0.00    +0.000 A 
ATOM     17  C   UNL     1       1.712   9.071  18.537  0.00  0.00    +0.000 A 
ATOM     18  C   UNL     1       2.299   8.087  17.749  0.00  0.00    +0.000 A 
ATOM     19  C   UNL     1       2.623   6.845  18.304  0.00  0.00    +0.000 A 
ENDBRANCH  13  14
ENDBRANCH   1  13
TORSDOF 5
ENDMDL
MODEL 3
REMARK VINA RESULT:      -7.0      1.123      1.381
REMARK  Name = 
REMARK  7 active torsions:
REMARK  status: ('A' for Active; 'I' for Inactive)
REMARK    1  A    between atoms: C_1  and  N_2
REMARK    2  A    between atoms: N_2  and  C_3
REMARK    3  A    between atoms: N_2  and  C_4
REMARK    4  A    between atoms: C_4  and  C_5
REMARK    5  A    between atoms: C_4  and  C_12
REMARK    6  A    between atoms: C_5  and  C_6
REMARK    7  A    between atoms: C_12  and  C_14
REMARK                            x       y       z     vdW  Elec       q    Type
REMARK                         _______ _______ _______ _____ _____    ______ ____
ROOT
ATOM      1  C   UNL     1       2.909   4.028  19.298  0.00  0.00    +0.000 C 
ENDROOT
BRANCH   1   3
ATOM      2  C   UNL     1       1.563   3.105  21.154  0.00  0.00    +0.000 C 
ATOM      3  N   UNL     1       2.076   2.886  19.798  0.00  0.00    +0.000 NA
ATOM      4  C   UNL     1       0.942   2.605  18.906  0.00  0.00    +0.000 C 
ENDBRANCH   1   3
BRANCH   1   5
ATOM      5  C   UNL     1       4.391   3.596  19.101  0.00  0.00    +0.000 C 
ATOM      6  O   UNL     1       4.980   2.818  19.852  0.00  0.00    +0.000 OA
BRANCH   5   7
ATOM      7  C   UNL     1       5.187   4.129  17.956  0.00  0.00    +0.000 A 
ATOM      8  C   UNL     1       4.563   4.148  16.696  0.00  0.00    +0.000 A 
ATOM      9  C   UNL     1       5.205   4.705  15.592  0.00  0.00    +0.000 A 
ATOM     10  C   UNL     1       6.476   5.251  15.737  0.00  0.00    +0.000 A 
ATOM     11  C   UNL     1       7.107   5.235  16.983  0.00  0.00    +0.000 A 
ATOM     12  C   UNL     1       6.468   4.673  18.095  0.00  0.00    +0.000 A 
ENDBRANCH   5   7
ENDBRANCH   1   5
BRANCH   1  13
ATOM     13  C   UNL     1       2.866   5.321  20.170  0.00  0.00    +0.000 C 
BRANCH  13  14
ATOM     14  C   UNL     1       2.404   6.648  19.595  0.00  0.00    +0.000 A 
ATOM     15  C   UNL     1       1.719   7.621  20.330  0.00  0.00    +0.000 A 
ATOM     16  C   UNL     1       1.412   8.867  19.772  0.00  0.00    +0.000 A 
ATOM     17  C   UNL     1       1.744   9.144  18.451  0.00  0.00    +0.000 A 
ATOM     18  C   UNL     1       2.375   8.170  17.683  0.00  0.00    +0.000 A 
ATOM     19  C   UNL     1       2.705   6.935  18.251  0.00  0.00    +0.000 A 
ENDBRANCH  13  14
ENDBRANCH   1  13
TORSDOF 5
ENDMDL
MODEL 4
REMARK VINA RESULT:      -7.0      1.492      4.371
REMARK  Name = 
REMARK  7 active torsions:
REMARK  status: ('A' for Active; 'I' for Inactive)
REMARK    1  A    between atoms: C_1  and  N_2
REMARK    2  A    between atoms: N_2  and  C_3
REMARK    3  A    between atoms: N_2  and  C_4
REMARK    4  A    between atoms: C_4  and  C_5
REMARK    5  A    between atoms: C_4  and  C_12
REMARK    6  A    between atoms: C_5  and  C_6
REMARK    7  A    between atoms: C_12  and  C_14
REMARK                            x       y       z     vdW  Elec       q    Type
REMARK                         _______ _______ _______ _____ _____    ______ ____
ROOT
ATOM      1  C   UNL     1       4.728   5.851  18.309  0.00  0.00    +0.000 C 
ENDROOT
BRANCH   1   3
ATOM      2  C   UNL     1       5.312   5.821  15.909  0.00  0.00    +0.000 C 
ATOM      3  N   UNL     1       5.821   5.853  17.283  0.00  0.00    +0.000 NA
ATOM      4  C   UNL     1       6.706   7.017  17.430  0.00  0.00    +0.000 C 
ENDBRANCH   1   3
BRANCH   1   5
ATOM      5  C   UNL     1       4.606   4.460  18.997  0.00  0.00    +0.000 C 
ATOM      6  O   UNL     1       5.576   3.798  19.368  0.00  0.00    +0.000 OA
BRANCH   5   7
ATOM      7  C   UNL     1       3.265   3.852  19.240  0.00  0.00    +0.000 A 
ATOM      8  C   UNL     1       2.706   4.023  20.518  0.00  0.00    +0.000 A 
ATOM      9  C   UNL     1       1.423   3.559  20.802  0.00  0.00    +0.000 A 
ATOM     10  C   UNL     1       0.686   2.922  19.810  0.00  0.00    +0.000 A 
ATOM     11  C   UNL     1       1.232   2.744  18.537  0.00  0.00    +0.000 A 
ATOM     12  C   UNL     1       2.521   3.205  18.248  0.00  0.00    +0.000 A 
ENDBRANCH   5   7
ENDBRANCH   1   5
BRANCH   1  13
ATOM     13  C   UNL     1       3.322   6.289  17.792  0.00  0.00    +0.000 C 
BRANCH  13  14
ATOM     14  C   UNL     1       2.576   7.454  18.418  0.00  0.00    +0.000 A 
ATOM     15  C   UNL     1       2.217   8.615  17.725  0.00  0.00    +0.000 A 
ATOM     16  C   UNL     1       1.440   9.608  18.329  0.00  0.00    +0.000 A 
ATOM     17  C   UNL     1       1.046   9.479  19.656  0.00  0.00    +0.000 A 
ATOM     18  C   UNL     1       1.439   8.360  20.383  0.00  0.00    +0.000 A 
ATOM     19  C   UNL     1       2.194   7.355  19.769  0.00  0.00    +0.000 A 
ENDBRANCH  13  14
ENDBRANCH   1  13
TORSDOF 5
ENDMDL
MODEL 5
REMARK VINA RESULT:      -7.0      2.007      4.866
REMARK  Name = 
REMARK  7 active torsions:
REMARK  status: ('A' for Active; 'I' for Inactive)
REMARK    1  A    between atoms: C_1  and  N_2
REMARK    2  A    between atoms: N_2  and  C_3
REMARK    3  A    between atoms: N_2  and  C_4
REMARK    4  A    between atoms: C_4  and  C_5
REMARK    5  A    between atoms: C_4  and  C_12
REMARK    6  A    between atoms: C_5  and  C_6
REMARK    7  A    between atoms: C_12  and  C_14
REMARK                            x       y       z     vdW  Elec       q    Type
REMARK                         _______ _______ _______ _____ _____    ______ ____
ROOT
ATOM      1  C   UNL     1       4.258   4.697  17.174  0.00  0.00    +0.000 C 
ENDROOT
BRANCH   1   3
ATOM      2  C   UNL     1       5.738   3.539  15.569  0.00  0.00    +0.000 C 
ATOM      3  N   UNL     1       5.494   4.769  16.328  0.00  0.00    +0.000 NA
ATOM      4  C   UNL     1       5.449   5.900  15.390  0.00  0.00    +0.000 C 
ENDBRANCH   1   3
BRANCH   1   5
ATOM      5  C   UNL     1       4.354   5.664  18.390  0.00  0.00    +0.000 C 
ATOM      6  O   UNL     1       5.252   5.614  19.231  0.00  0.00    +0.000 OA
BRANCH   5   7
ATOM      7  C   UNL     1       3.324   6.724  18.594  0.00  0.00    +0.000 A 
ATOM      8  C   UNL     1       2.627   6.714  19.815  0.00  0.00    +0.000 A 
ATOM      9  C   UNL     1       1.709   7.718  20.120  0.00  0.00    +0.000 A 
ATOM     10  C   UNL     1       1.481   8.743  19.208  0.00  0.00    +0.000 A 
ATOM     11  C   UNL     1       2.166   8.761  17.990  0.00  0.00    +0.000 A 
ATOM     12  C   UNL     1       3.086   7.754  17.678  0.00  0.00    +0.000 A 
ENDBRANCH   5   7
ENDBRANCH   1   5
BRANCH   1  13
ATOM     13  C   UNL     1       3.877   3.272  17.683  0.00  0.00    +0.000 C 
BRANCH  13  14
ATOM     14  C   UNL     1       2.991   3.077  18.901  0.00  0.00    +0.000 A 
ATOM     15  C   UNL     1       3.470   2.734  20.169  0.00  0.00    +0.000 A 
ATOM     16  C   UNL     1       2.614   2.670  21.273  0.00  0.00    +0.000 A 
ATOM     17  C   UNL     1       1.253   2.904  21.119  0.00  0.00    +0.000 A 
ATOM     18  C   UNL     1       0.745   3.192  19.857  0.00  0.00    +0.000 A 
ATOM     19  C   UNL     1       1.606   3.281  18.758  0.00  0.00    +0.000 A 
ENDBRANCH  13  14
ENDBRANCH   1  13
TORSDOF 5
ENDMDL
MODEL 6
REMARK VINA RESULT:      -7.0      1.452      4.302
REMARK  Name = 
REMARK  7 active torsions:
REMARK  status: ('A' for Active; 'I' for Inactive)
REMARK    1  A    between atoms: C_1  and  N_2
REMARK    2  A    between atoms: N_2  and  C_3
REMARK    3  A    between atoms: N_2  and  C_4
REMARK    4  A    between atoms: C_4  and  C_5
REMARK    5  A    between atoms: C_4  and  C_12
REMARK    6  A    between atoms: C_5  and  C_6
REMARK    7  A    between atoms: C_12  and  C_14
REMARK                            x       y       z     vdW  Elec       q    Type
REMARK                         _______ _______ _______ _____ _____    ______ ____
ROOT
ATOM      1  C   UNL     1       4.651   5.884  18.284  0.00  0.00    +0.000 C 
ENDROOT
BRANCH   1   3
ATOM      2  C   UNL     1       5.250   6.251  15.915  0.00  0.00    +0.000 C 
ATOM      3  N   UNL     1       5.723   5.834  17.238  0.00  0.00    +0.000 NA
ATOM      4  C   UNL     1       6.883   6.660  17.604  0.00  0.00    +0.000 C 
ENDBRANCH   1   3
BRANCH   1   5
ATOM      5  C   UNL     1       4.507   4.513  19.007  0.00  0.00    +0.000 C 
ATOM      6  O   UNL     1       5.466   3.822  19.353  0.00  0.00    +0.000 OA
BRANCH   5   7
ATOM      7  C   UNL     1       3.156   3.961  19.319  0.00  0.00    +0.000 A 
ATOM      8  C   UNL     1       2.531   3.195  18.319  0.00  0.00    +0.000 A 
ATOM      9  C   UNL     1       1.306   2.575  18.559  0.00  0.00    +0.000 A 
ATOM     10  C   UNL     1       0.696   2.712  19.802  0.00  0.00    +0.000 A 
ATOM     11  C   UNL     1       1.307   3.472  20.801  0.00  0.00    +0.000 A 
ATOM     12  C   UNL     1       2.535   4.101  20.564  0.00  0.00    +0.000 A 
ENDBRANCH   5   7
ENDBRANCH   1   5
BRANCH   1  13
ATOM     13  C   UNL     1       3.247   6.346  17.783  0.00  0.00    +0.000 C 
BRANCH  13  14
ATOM     14  C   UNL     1       2.532   7.530  18.411  0.00  0.00    +0.000 A 
ATOM     15  C   UNL     1       2.205   8.701  17.720  0.00  0.00    +0.000 A 
ATOM     16  C   UNL     1       1.454   9.713  18.327  0.00  0.00    +0.000 A 
ATOM     17  C   UNL     1       1.055   9.591  19.653  0.00  0.00    +0.000 A 
ATOM     18  C   UNL     1       1.418   8.460  20.377  0.00  0.00    +0.000 A 
ATOM     19  C   UNL     1       2.147   7.437  19.761  0.00  0.00    +0.000 A 
ENDBRANCH  13  14
ENDBRANCH   1  13
TORSDOF 5
ENDMDL
MODEL 7
REMARK VINA RESULT:      -7.0      1.513      4.277
REMARK  Name = 
REMARK  7 active torsions:
REMARK  status: ('A' for Active; 'I' for Inactive)
REMARK    1  A    between atoms: C_1  and  N_2
REMARK    2  A    between atoms: N_2  and  C_3
REMARK    3  A    between atoms: N_2  and  C_4
REMARK    4  A    between atoms: C_4  and  C_5
REMARK    5  A    between atoms: C_4  and  C_12
REMARK    6  A    between atoms: C_5  and  C_6
REMARK    7  A    between atoms: C_12  and  C_14
REMARK                            x       y       z     vdW  Elec       q    Type
REMARK                         _______ _______ _______ _____ _____    ______ ____
ROOT
ATOM      1  C   UNL     1       4.721   5.793  18.403  0.00  0.00    +0.000 C 
ENDROOT
BRANCH   1   3
ATOM      2  C   UNL     1       5.489   5.358  16.095  0.00  0.00    +0.000 C 
ATOM      3  N   UNL     1       5.864   5.823  17.433  0.00  0.00    +0.000 NA
ATOM      4  C   UNL     1       6.449   7.167  17.317  0.00  0.00    +0.000 C 
ENDBRANCH   1   3
BRANCH   1   5
ATOM      5  C   UNL     1       4.574   4.387  19.054  0.00  0.00    +0.000 C 
ATOM      6  O   UNL     1       5.531   3.695  19.403  0.00  0.00    +0.000 OA
BRANCH   5   7
ATOM      7  C   UNL     1       3.222   3.801  19.287  0.00  0.00    +0.000 A 
ATOM      8  C   UNL     1       2.660   3.973  20.564  0.00  0.00    +0.000 A 
ATOM      9  C   UNL     1       1.368   3.529  20.839  0.00  0.00    +0.000 A 
ATOM     10  C   UNL     1       0.624   2.912  19.840  0.00  0.00    +0.000 A 
ATOM     11  C   UNL     1       1.173   2.733  18.568  0.00  0.00    +0.000 A 
ATOM     12  C   UNL     1       2.471   3.173  18.287  0.00  0.00    +0.000 A 
ENDBRANCH   5   7
ENDBRANCH   1   5
BRANCH   1  13
ATOM     13  C   UNL     1       3.341   6.236  17.825  0.00  0.00    +0.000 C 
BRANCH  13  14
ATOM     14  C   UNL     1       2.513   7.319  18.493  0.00  0.00    +0.000 A 
ATOM     15  C   UNL     1       2.136   7.295  19.840  0.00  0.00    +0.000 A 
ATOM     16  C   UNL     1       1.461   8.373  20.422  0.00  0.00    +0.000 A 
ATOM     17  C   UNL     1       1.110   9.477  19.654  0.00  0.00    +0.000 A 
ATOM     18  C   UNL     1       1.425   9.498  18.299  0.00  0.00    +0.000 A 
ATOM     19  C   UNL     1       2.123   8.431  17.725  0.00  0.00    +0.000 A 
ENDBRANCH  13  14
ENDBRANCH   1  13
TORSDOF 5
ENDMDL
MODEL 8
REMARK VINA RESULT:      -6.9      1.645      4.498
REMARK  Name = 
REMARK  7 active torsions:
REMARK  status: ('A' for Active; 'I' for Inactive)
REMARK    1  A    between atoms: C_1  and  N_2
REMARK    2  A    between atoms: N_2  and  C_3
REMARK    3  A    between atoms: N_2  and  C_4
REMARK    4  A    between atoms: C_4  and  C_5
REMARK    5  A    between atoms: C_4  and  C_12
REMARK    6  A    between atoms: C_5  and  C_6
REMARK    7  A    between atoms: C_12  and  C_14
REMARK                            x       y       z     vdW  Elec       q    Type
REMARK                         _______ _______ _______ _____ _____    ______ ____
ROOT
ATOM      1  C   UNL     1       4.712   5.129  18.126  0.00  0.00    +0.000 C 
ENDROOT
BRANCH   1   3
ATOM      2  C   UNL     1       6.299   5.628  16.299  0.00  0.00    +0.000 C 
ATOM      3  N   UNL     1       6.118   5.013  17.616  0.00  0.00    +0.000 NA
ATOM      4  C   UNL     1       7.088   5.604  18.549  0.00  0.00    +0.000 C 
ENDBRANCH   1   3
BRANCH   1   5
ATOM      5  C   UNL     1       3.984   3.754  18.083  0.00  0.00    +0.000 C 
ATOM      6  O   UNL     1       4.170   2.913  17.203  0.00  0.00    +0.000 OA
BRANCH   5   7
ATOM      7  C   UNL     1       2.997   3.389  19.141  0.00  0.00    +0.000 A 
ATOM      8  C   UNL     1       3.512   2.984  20.385  0.00  0.00    +0.000 A 
ATOM      9  C   UNL     1       2.659   2.706  21.452  0.00  0.00    +0.000 A 
ATOM     10  C   UNL     1       1.284   2.832  21.286  0.00  0.00    +0.000 A 
ATOM     11  C   UNL     1       0.762   3.231  20.054  0.00  0.00    +0.000 A 
ATOM     12  C   UNL     1       1.613   3.508  18.978  0.00  0.00    +0.000 A 
ENDBRANCH   5   7
ENDBRANCH   1   5
BRANCH   1  13
ATOM     13  C   UNL     1       3.827   6.198  17.413  0.00  0.00    +0.000 C 
BRANCH  13  14
ATOM     14  C   UNL     1       2.983   7.183  18.203  0.00  0.00    +0.000 A 
ATOM     15  C   UNL     1       2.491   8.383  17.682  0.00  0.00    +0.000 A 
ATOM     16  C   UNL     1       1.633   9.198  18.427  0.00  0.00    +0.000 A 
ATOM     17  C   UNL     1       1.288   8.848  19.728  0.00  0.00    +0.000 A 
ATOM     18  C   UNL     1       1.812   7.688  20.287  0.00  0.00    +0.000 A 
ATOM     19  C   UNL     1       2.649   6.860  19.531  0.00  0.00    +0.000 A 
ENDBRANCH  13  14
ENDBRANCH   1  13
TORSDOF 5
ENDMDL
MODEL 9
REMARK VINA RESULT:      -6.9      1.649      4.442
REMARK  Name = 
REMARK  7 active torsions:
REMARK  status: ('A' for Active; 'I' for Inactive)
REMARK    1  A    between atoms: C_1  and  N_2
REMARK    2  A    between atoms: N_2  and  C_3
REMARK    3  A    between atoms: N_2  and  C_4
REMARK    4  A    between atoms: C_4  and  C_5
REMARK    5  A    between atoms: C_4  and  C_12
REMARK    6  A    between atoms: C_5  and  C_6
REMARK    7  A    between atoms: C_12  and  C_14
REMARK                            x       y       z     vdW  Elec       q    Type
REMARK                         _______ _______ _______ _____ _____    ______ ____
ROOT
ATOM      1  C   UNL     1       4.392   5.502  18.110  0.00  0.00    +0.000 C 
ENDROOT
BRANCH   1   3
ATOM      2  C   UNL     1       5.946   6.006  16.256  0.00  0.00    +0.000 C 
ATOM      3  N   UNL     1       5.766   5.321  17.539  0.00  0.00    +0.000 NA
ATOM      4  C   UNL     1       6.809   5.781  18.467  0.00  0.00    +0.000 C 
ENDBRANCH   1   3
BRANCH   1   5
ATOM      5  C   UNL     1       3.534   4.216  17.927  0.00  0.00    +0.000 C 
ATOM      6  O   UNL     1       3.485   3.574  16.877  0.00  0.00    +0.000 OA
BRANCH   5   7
ATOM      7  C   UNL     1       2.707   3.693  19.053  0.00  0.00    +0.000 A 
ATOM      8  C   UNL     1       3.395   3.172  20.164  0.00  0.00    +0.000 A 
ATOM      9  C   UNL     1       2.700   2.740  21.292  0.00  0.00    +0.000 A 
ATOM     10  C   UNL     1       1.312   2.827  21.322  0.00  0.00    +0.000 A 
ATOM     11  C   UNL     1       0.619   3.341  20.224  0.00  0.00    +0.000 A 
ATOM     12  C   UNL     1       1.311   3.773  19.087  0.00  0.00    +0.000 A 
ENDBRANCH   5   7
ENDBRANCH   1   5
BRANCH   1  13
ATOM     13  C   UNL     1       3.596   6.728  17.564  0.00  0.00    +0.000 C 
BRANCH  13  14
ATOM     14  C   UNL     1       2.641   7.510  18.449  0.00  0.00    +0.000 A 
ATOM     15  C   UNL     1       2.347   7.170  19.773  0.00  0.00    +0.000 A 
ATOM     16  C   UNL     1       1.540   7.989  20.569  0.00  0.00    +0.000 A 
ATOM     17  C   UNL     1       0.974   9.143  20.039  0.00  0.00    +0.000 A 
ATOM     18  C   UNL     1       1.206   9.472  18.707  0.00  0.00    +0.000 A 
ATOM     19  C   UNL     1       2.035   8.665  17.920  0.00  0.00    +0.000 A 
ENDBRANCH  13  14
ENDBRANCH   1  13
TORSDOF 5
ENDMDL
