MODEL 1
REMARK VINA RESULT:      -7.9      0.000      0.000
REMARK  Name = 
REMARK  7 active torsions:
REMARK  status: ('A' for Active; 'I' for Inactive)
REMARK    1  A    between atoms: C_2  and  C_3
REMARK    2  A    between atoms: C_5  and  C_6
REMARK    3  A    between atoms: N_8  and  C_9
REMARK    4  A    between atoms: C_9  and  C_10
REMARK    5  A    between atoms: C_16  and  N_17
REMARK    6  A    between atoms: C_19  and  C_20
REMARK    7  A    between atoms: N_24  and  C_25
REMARK                            x       y       z     vdW  Elec       q    Type
REMARK                         _______ _______ _______ _____ _____    ______ ____
ROOT
ATOM      1  N   UNL     1       0.179  10.126  19.312  0.00  0.00    +0.000 N 
ATOM      2  C   UNL     1      -0.141  10.480  20.584  0.00  0.00    +0.000 A 
ATOM      3  C   UNL     1       0.496   9.566  21.408  0.00  0.00    +0.000 A 
ATOM      4  C   UNL     1       1.165   8.677  20.514  0.00  0.00    +0.000 A 
ATOM      5  N   UNL     1       1.833   7.558  20.905  0.00  0.00    +0.000 N 
ATOM      6  N   UNL     1       0.966   9.057  19.253  0.00  0.00    +0.000 NA
ATOM      7  H   UNL     1       1.971   7.424  21.904  0.00  0.00    +0.000 HD
ENDROOT
BRANCH   5   8
ATOM      8  C   UNL     1       2.121   6.395  20.145  0.00  0.00    +0.000 A 
ATOM      9  C   UNL     1       2.944   6.403  19.010  0.00  0.00    +0.000 A 
ATOM     10  C   UNL     1       3.083   5.275  18.191  0.00  0.00    +0.000 A 
ATOM     11  C   UNL     1       2.404   4.111  18.505  0.00  0.00    +0.000 A 
ATOM     12 CL   UNL     1       2.543   2.735  17.480  0.00  0.00    +0.000 Cl
ATOM     13  C   UNL     1       1.604   4.059  19.643  0.00  0.00    +0.000 A 
ATOM     14  C   UNL     1       1.467   5.195  20.456  0.00  0.00    +0.000 A 
ENDBRANCH   5   8
BRANCH   1  20
ATOM     15  C   UNL     1      -0.554  12.266  18.212  0.00  0.00    +0.000 C 
ATOM     16  C   UNL     1      -1.847  12.572  18.975  0.00  0.00    +0.000 C 
ATOM     17  C   UNL     1      -3.069  11.821  18.406  0.00  0.00    +0.000 C 
ATOM     18  C   UNL     1      -2.800  10.327  18.173  0.00  0.00    +0.000 C 
ATOM     19  C   UNL     1      -1.476  10.043  17.459  0.00  0.00    +0.000 C 
ATOM     20  C   UNL     1      -0.261  10.758  18.072  0.00  0.00    +0.000 C 
BRANCH  17  21
ATOM     21  C   UNL     1      -4.297  12.029  19.301  0.00  0.00    +0.000 C 
ATOM     22  O   UNL     1      -5.409  11.588  19.031  0.00  0.00    +0.000 OA
ATOM     23  N   UNL     1      -4.053  12.691  20.481  0.00  0.00    +0.000 N 
ATOM     24  H   UNL     1      -3.125  13.033  20.705  0.00  0.00    +0.000 HD
BRANCH  23  25
ATOM     25  C   UNL     1      -5.126  12.926  21.453  0.00  0.00    +0.000 C 
BRANCH  25  26
ATOM     26  C   UNL     1      -4.680  12.964  22.916  0.00  0.00    +0.000 C 
ATOM     27  F   UNL     1      -3.611  12.152  23.118  0.00  0.00    +0.000 F 
ATOM     28  F   UNL     1      -4.318  14.209  23.294  0.00  0.00    +0.000 F 
ATOM     29  F   UNL     1      -5.663  12.548  23.745  0.00  0.00    +0.000 F 
ENDBRANCH  25  26
ENDBRANCH  23  25
ENDBRANCH  17  21
BRANCH  15  31
ATOM     30  N   UNL     1       1.537  13.559  19.164  0.00  0.00    +0.000 NA
ATOM     31  C   UNL     1       0.605  12.978  18.779  0.00  0.00    +0.000 C 
ENDBRANCH  15  31
ENDBRANCH   1  20
BRANCH   3  32
ATOM     32  C   UNL     1       0.449   9.530  22.854  0.00  0.00    +0.000 C 
ATOM     33  N   UNL     1      -0.808   9.565  23.397  0.00  0.00    +0.000 N 
ATOM     34  O   UNL     1       1.445   9.438  23.562  0.00  0.00    +0.000 OA
ATOM     35  H   UNL     1      -1.610   9.309  22.837  0.00  0.00    +0.000 HD
ATOM     36  H   UNL     1      -0.873   9.429  24.396  0.00  0.00    +0.000 HD
ENDBRANCH   3  32
TORSDOF 7
ENDMDL
MODEL 2
REMARK VINA RESULT:      -7.8      0.539      1.172
REMARK  Name = 
REMARK  7 active torsions:
REMARK  status: ('A' for Active; 'I' for Inactive)
REMARK    1  A    between atoms: C_2  and  C_3
REMARK    2  A    between atoms: C_5  and  C_6
REMARK    3  A    between atoms: N_8  and  C_9
REMARK    4  A    between atoms: C_9  and  C_10
REMARK    5  A    between atoms: C_16  and  N_17
REMARK    6  A    between atoms: C_19  and  C_20
REMARK    7  A    between atoms: N_24  and  C_25
REMARK                            x       y       z     vdW  Elec       q    Type
REMARK                         _______ _______ _______ _____ _____    ______ ____
ROOT
ATOM      1  N   UNL     1       0.304   9.943  19.350  0.00  0.00    +0.000 N 
ATOM      2  C   UNL     1      -0.040  10.344  20.601  0.00  0.00    +0.000 A 
ATOM      3  C   UNL     1       0.526   9.422  21.468  0.00  0.00    +0.000 A 
ATOM      4  C   UNL     1       1.179   8.479  20.618  0.00  0.00    +0.000 A 
ATOM      5  N   UNL     1       1.779   7.341  21.058  0.00  0.00    +0.000 N 
ATOM      6  N   UNL     1       1.040   8.837  19.342  0.00  0.00    +0.000 NA
ATOM      7  H   UNL     1       1.879   7.226  22.065  0.00  0.00    +0.000 HD
ENDROOT
BRANCH   5   8
ATOM      8  C   UNL     1       2.036   6.146  20.337  0.00  0.00    +0.000 A 
ATOM      9  C   UNL     1       1.333   4.952  20.554  0.00  0.00    +0.000 A 
ATOM     10  C   UNL     1       1.714   3.750  19.943  0.00  0.00    +0.000 A 
ATOM     11  C   UNL     1       2.804   3.728  19.091  0.00  0.00    +0.000 A 
ATOM     12 CL   UNL     1       3.296   2.247  18.367  0.00  0.00    +0.000 Cl
ATOM     13  C   UNL     1       3.504   4.903  18.828  0.00  0.00    +0.000 A 
ATOM     14  C   UNL     1       3.119   6.102  19.447  0.00  0.00    +0.000 A 
ENDBRANCH   5   8
BRANCH   1  20
ATOM     15  C   UNL     1      -0.233  12.093  18.161  0.00  0.00    +0.000 C 
ATOM     16  C   UNL     1      -1.505  12.534  18.891  0.00  0.00    +0.000 C 
ATOM     17  C   UNL     1      -2.778  11.867  18.330  0.00  0.00    +0.000 C 
ATOM     18  C   UNL     1      -2.632  10.348  18.155  0.00  0.00    +0.000 C 
ATOM     19  C   UNL     1      -1.327   9.928  17.474  0.00  0.00    +0.000 C 
ATOM     20  C   UNL     1      -0.065  10.562  18.080  0.00  0.00    +0.000 C 
BRANCH  17  21
ATOM     21  C   UNL     1      -3.997  12.210  19.197  0.00  0.00    +0.000 C 
ATOM     22  O   UNL     1      -5.020  11.535  19.216  0.00  0.00    +0.000 OA
ATOM     23  N   UNL     1      -3.838  13.300  20.020  0.00  0.00    +0.000 N 
ATOM     24  H   UNL     1      -2.979  13.839  20.013  0.00  0.00    +0.000 HD
BRANCH  23  25
ATOM     25  C   UNL     1      -4.907  13.719  20.933  0.00  0.00    +0.000 C 
BRANCH  25  26
ATOM     26  C   UNL     1      -4.842  13.104  22.333  0.00  0.00    +0.000 C 
ATOM     27  F   UNL     1      -5.978  12.415  22.611  0.00  0.00    +0.000 F 
ATOM     28  F   UNL     1      -3.809  12.244  22.452  0.00  0.00    +0.000 F 
ATOM     29  F   UNL     1      -4.704  14.053  23.285  0.00  0.00    +0.000 F 
ENDBRANCH  25  26
ENDBRANCH  23  25
ENDBRANCH  17  21
BRANCH  15  31
ATOM     30  N   UNL     1       1.910  13.284  19.131  0.00  0.00    +0.000 NA
ATOM     31  C   UNL     1       0.974  12.727  18.722  0.00  0.00    +0.000 C 
ENDBRANCH  15  31
ENDBRANCH   1  20
BRANCH   3  32
ATOM     32  C   UNL     1       0.430   9.426  22.912  0.00  0.00    +0.000 C 
ATOM     33  N   UNL     1      -0.842   9.349  23.412  0.00  0.00    +0.000 N 
ATOM     34  O   UNL     1       1.404   9.457  23.655  0.00  0.00    +0.000 OA
ATOM     35  H   UNL     1      -1.594   8.995  22.835  0.00  0.00    +0.000 HD
ATOM     36  H   UNL     1      -0.929   9.237  24.412  0.00  0.00    +0.000 HD
ENDBRANCH   3  32
TORSDOF 7
ENDMDL
MODEL 3
REMARK VINA RESULT:      -7.7      1.353      1.590
REMARK  Name = 
REMARK  7 active torsions:
REMARK  status: ('A' for Active; 'I' for Inactive)
REMARK    1  A    between atoms: C_2  and  C_3
REMARK    2  A    between atoms: C_5  and  C_6
REMARK    3  A    between atoms: N_8  and  C_9
REMARK    4  A    between atoms: C_9  and  C_10
REMARK    5  A    between atoms: C_16  and  N_17
REMARK    6  A    between atoms: C_19  and  C_20
REMARK    7  A    between atoms: N_24  and  C_25
REMARK                            x       y       z     vdW  Elec       q    Type
REMARK                         _______ _______ _______ _____ _____    ______ ____
ROOT
ATOM      1  N   UNL     1       0.000  10.286  19.307  0.00  0.00    +0.000 N 
ATOM      2  C   UNL     1      -0.371  10.612  20.573  0.00  0.00    +0.000 A 
ATOM      3  C   UNL     1       0.278   9.713  21.406  0.00  0.00    +0.000 A 
ATOM      4  C   UNL     1       1.007   8.861  20.522  0.00  0.00    +0.000 A 
ATOM      5  N   UNL     1       1.707   7.765  20.920  0.00  0.00    +0.000 N 
ATOM      6  N   UNL     1       0.830   9.249  19.260  0.00  0.00    +0.000 NA
ATOM      7  H   UNL     1       1.821   7.625  21.922  0.00  0.00    +0.000 HD
ENDROOT
BRANCH   5   8
ATOM      8  C   UNL     1       2.063   6.623  20.158  0.00  0.00    +0.000 A 
ATOM      9  C   UNL     1       2.784   6.696  18.957  0.00  0.00    +0.000 A 
ATOM     10  C   UNL     1       2.983   5.570  18.147  0.00  0.00    +0.000 A 
ATOM     11  C   UNL     1       2.469   4.346  18.534  0.00  0.00    +0.000 A 
ATOM     12 CL   UNL     1       2.680   2.969  17.523  0.00  0.00    +0.000 Cl
ATOM     13  C   UNL     1       1.776   4.233  19.736  0.00  0.00    +0.000 A 
ATOM     14  C   UNL     1       1.577   5.365  20.541  0.00  0.00    +0.000 A 
ENDBRANCH   5   8
BRANCH   1  20
ATOM     15  C   UNL     1      -0.948  12.355  18.238  0.00  0.00    +0.000 C 
ATOM     16  C   UNL     1      -2.328  12.433  18.899  0.00  0.00    +0.000 C 
ATOM     17  C   UNL     1      -3.378  11.548  18.197  0.00  0.00    +0.000 C 
ATOM     18  C   UNL     1      -2.876  10.123  17.925  0.00  0.00    +0.000 C 
ATOM     19  C   UNL     1      -1.473  10.068  17.317  0.00  0.00    +0.000 C 
ATOM     20  C   UNL     1      -0.428  10.914  18.061  0.00  0.00    +0.000 C 
BRANCH  17  21
ATOM     21  C   UNL     1      -4.691  11.532  18.991  0.00  0.00    +0.000 C 
ATOM     22  O   UNL     1      -5.628  10.787  18.726  0.00  0.00    +0.000 OA
ATOM     23  N   UNL     1      -4.722  12.369  20.082  0.00  0.00    +0.000 N 
ATOM     24  H   UNL     1      -3.933  12.965  20.305  0.00  0.00    +0.000 HD
BRANCH  23  25
ATOM     25  C   UNL     1      -5.899  12.426  20.956  0.00  0.00    +0.000 C 
BRANCH  25  26
ATOM     26  C   UNL     1      -6.973  13.432  20.534  0.00  0.00    +0.000 C 
ATOM     27  F   UNL     1      -7.897  12.844  19.733  0.00  0.00    +0.000 F 
ATOM     28  F   UNL     1      -7.626  13.939  21.601  0.00  0.00    +0.000 F 
ATOM     29  F   UNL     1      -6.440  14.464  19.844  0.00  0.00    +0.000 F 
ENDBRANCH  25  26
ENDBRANCH  23  25
ENDBRANCH  17  21
BRANCH  15  31
ATOM     30  N   UNL     1       0.879  13.831  19.437  0.00  0.00    +0.000 NA
ATOM     31  C   UNL     1       0.046  13.193  18.932  0.00  0.00    +0.000 C 
ENDBRANCH  15  31
ENDBRANCH   1  20
BRANCH   3  32
ATOM     32  C   UNL     1       0.189   9.659  22.849  0.00  0.00    +0.000 C 
ATOM     33  N   UNL     1      -1.077   9.764  23.360  0.00  0.00    +0.000 N 
ATOM     34  O   UNL     1       1.158   9.493  23.581  0.00  0.00    +0.000 OA
ATOM     35  H   UNL     1      -1.878   9.566  22.775  0.00  0.00    +0.000 HD
ATOM     36  H   UNL     1      -1.177   9.617  24.354  0.00  0.00    +0.000 HD
ENDBRANCH   3  32
TORSDOF 7
ENDMDL
MODEL 4
REMARK VINA RESULT:      -7.7      1.079      1.336
REMARK  Name = 
REMARK  7 active torsions:
REMARK  status: ('A' for Active; 'I' for Inactive)
REMARK    1  A    between atoms: C_2  and  C_3
REMARK    2  A    between atoms: C_5  and  C_6
REMARK    3  A    between atoms: N_8  and  C_9
REMARK    4  A    between atoms: C_9  and  C_10
REMARK    5  A    between atoms: C_16  and  N_17
REMARK    6  A    between atoms: C_19  and  C_20
REMARK    7  A    between atoms: N_24  and  C_25
REMARK                            x       y       z     vdW  Elec       q    Type
REMARK                         _______ _______ _______ _____ _____    ______ ____
ROOT
ATOM      1  N   UNL     1       0.063  10.312  19.622  0.00  0.00    +0.000 N 
ATOM      2  C   UNL     1      -0.136  10.549  20.945  0.00  0.00    +0.000 A 
ATOM      3  C   UNL     1       0.626   9.609  21.621  0.00  0.00    +0.000 A 
ATOM      4  C   UNL     1       1.236   8.829  20.593  0.00  0.00    +0.000 A 
ATOM      5  N   UNL     1       1.992   7.722  20.819  0.00  0.00    +0.000 N 
ATOM      6  N   UNL     1       0.887   9.295  19.394  0.00  0.00    +0.000 NA
ATOM      7  H   UNL     1       2.242   7.518  21.785  0.00  0.00    +0.000 HD
ENDROOT
BRANCH   5   8
ATOM      8  C   UNL     1       2.251   6.638  19.941  0.00  0.00    +0.000 A 
ATOM      9  C   UNL     1       2.880   6.791  18.697  0.00  0.00    +0.000 A 
ATOM     10  C   UNL     1       2.979   5.732  17.785  0.00  0.00    +0.000 A 
ATOM     11  C   UNL     1       2.457   4.493  18.112  0.00  0.00    +0.000 A 
ATOM     12 CL   UNL     1       2.545   3.200  16.980  0.00  0.00    +0.000 Cl
ATOM     13  C   UNL     1       1.855   4.299  19.352  0.00  0.00    +0.000 A 
ATOM     14  C   UNL     1       1.756   5.366  20.259  0.00  0.00    +0.000 A 
ENDBRANCH   5   8
BRANCH   1  20
ATOM     15  C   UNL     1      -0.315  12.540  18.517  0.00  0.00    +0.000 C 
ATOM     16  C   UNL     1      -1.158  13.262  19.572  0.00  0.00    +0.000 C 
ATOM     17  C   UNL     1      -2.660  12.921  19.474  0.00  0.00    +0.000 C 
ATOM     18  C   UNL     1      -2.925  11.413  19.362  0.00  0.00    +0.000 C 
ATOM     19  C   UNL     1      -2.032  10.702  18.343  0.00  0.00    +0.000 C 
ATOM     20  C   UNL     1      -0.534  11.013  18.489  0.00  0.00    +0.000 C 
BRANCH  17  21
ATOM     21  C   UNL     1      -3.433  13.535  20.648  0.00  0.00    +0.000 C 
ATOM     22  O   UNL     1      -3.680  14.732  20.738  0.00  0.00    +0.000 OA
ATOM     23  N   UNL     1      -3.902  12.632  21.573  0.00  0.00    +0.000 N 
ATOM     24  H   UNL     1      -3.711  11.640  21.478  0.00  0.00    +0.000 HD
BRANCH  23  25
ATOM     25  C   UNL     1      -4.692  13.073  22.727  0.00  0.00    +0.000 C 
BRANCH  25  26
ATOM     26  C   UNL     1      -4.134  12.662  24.091  0.00  0.00    +0.000 C 
ATOM     27  F   UNL     1      -3.558  13.720  24.717  0.00  0.00    +0.000 F 
ATOM     28  F   UNL     1      -5.103  12.191  24.905  0.00  0.00    +0.000 F 
ATOM     29  F   UNL     1      -3.190  11.703  23.971  0.00  0.00    +0.000 F 
ENDBRANCH  25  26
ENDBRANCH  23  25
ENDBRANCH  17  21
BRANCH  15  31
ATOM     30  N   UNL     1       2.232  13.186  18.736  0.00  0.00    +0.000 NA
ATOM     31  C   UNL     1       1.118  12.864  18.637  0.00  0.00    +0.000 C 
ENDBRANCH  15  31
ENDBRANCH   1  20
BRANCH   3  32
ATOM     32  C   UNL     1       0.734   9.459  23.056  0.00  0.00    +0.000 C 
ATOM     33  N   UNL     1      -0.458   9.385  23.726  0.00  0.00    +0.000 N 
ATOM     34  O   UNL     1       1.802   9.366  23.649  0.00  0.00    +0.000 OA
ATOM     35  H   UNL     1      -1.303   9.130  23.231  0.00  0.00    +0.000 HD
ATOM     36  H   UNL     1      -0.411   9.168  24.711  0.00  0.00    +0.000 HD
ENDBRANCH   3  32
TORSDOF 7
ENDMDL
MODEL 5
REMARK VINA RESULT:      -7.6      1.477      1.857
REMARK  Name = 
REMARK  7 active torsions:
REMARK  status: ('A' for Active; 'I' for Inactive)
REMARK    1  A    between atoms: C_2  and  C_3
REMARK    2  A    between atoms: C_5  and  C_6
REMARK    3  A    between atoms: N_8  and  C_9
REMARK    4  A    between atoms: C_9  and  C_10
REMARK    5  A    between atoms: C_16  and  N_17
REMARK    6  A    between atoms: C_19  and  C_20
REMARK    7  A    between atoms: N_24  and  C_25
REMARK                            x       y       z     vdW  Elec       q    Type
REMARK                         _______ _______ _______ _____ _____    ______ ____
ROOT
ATOM      1  N   UNL     1      -0.163  10.280  19.234  0.00  0.00    +0.000 N 
ATOM      2  C   UNL     1      -0.544  10.646  20.486  0.00  0.00    +0.000 A 
ATOM      3  C   UNL     1       0.136   9.806  21.354  0.00  0.00    +0.000 A 
ATOM      4  C   UNL     1       0.892   8.943  20.505  0.00  0.00    +0.000 A 
ATOM      5  N   UNL     1       1.629   7.889  20.947  0.00  0.00    +0.000 N 
ATOM      6  N   UNL     1       0.702   9.272  19.227  0.00  0.00    +0.000 NA
ATOM      7  H   UNL     1       1.749   7.795  21.954  0.00  0.00    +0.000 HD
ENDROOT
BRANCH   5   8
ATOM      8  C   UNL     1       2.024   6.729  20.232  0.00  0.00    +0.000 A 
ATOM      9  C   UNL     1       1.749   5.425  20.670  0.00  0.00    +0.000 A 
ATOM     10  C   UNL     1       2.287   4.303  20.029  0.00  0.00    +0.000 A 
ATOM     11  C   UNL     1       3.105   4.468  18.925  0.00  0.00    +0.000 A 
ATOM     12 CL   UNL     1       3.797   3.092  18.157  0.00  0.00    +0.000 Cl
ATOM     13  C   UNL     1       3.372   5.747  18.444  0.00  0.00    +0.000 A 
ATOM     14  C   UNL     1       2.833   6.868  19.095  0.00  0.00    +0.000 A 
ENDBRANCH   5   8
BRANCH   1  20
ATOM     15  C   UNL     1      -1.165  12.277  18.078  0.00  0.00    +0.000 C 
ATOM     16  C   UNL     1      -2.541  12.355  18.745  0.00  0.00    +0.000 C 
ATOM     17  C   UNL     1      -3.576  11.416  18.092  0.00  0.00    +0.000 C 
ATOM     18  C   UNL     1      -3.044   9.990  17.882  0.00  0.00    +0.000 C 
ATOM     19  C   UNL     1      -1.643   9.939  17.267  0.00  0.00    +0.000 C 
ATOM     20  C   UNL     1      -0.613  10.842  17.963  0.00  0.00    +0.000 C 
BRANCH  17  21
ATOM     21  C   UNL     1      -4.883  11.406  18.896  0.00  0.00    +0.000 C 
ATOM     22  O   UNL     1      -5.824  10.662  18.641  0.00  0.00    +0.000 OA
ATOM     23  N   UNL     1      -4.904  12.248  19.983  0.00  0.00    +0.000 N 
ATOM     24  H   UNL     1      -4.112  12.843  20.198  0.00  0.00    +0.000 HD
BRANCH  23  25
ATOM     25  C   UNL     1      -6.074  12.313  20.866  0.00  0.00    +0.000 C 
BRANCH  25  26
ATOM     26  C   UNL     1      -7.097  13.394  20.510  0.00  0.00    +0.000 C 
ATOM     27  F   UNL     1      -7.917  13.649  21.561  0.00  0.00    +0.000 F 
ATOM     28  F   UNL     1      -6.497  14.556  20.174  0.00  0.00    +0.000 F 
ATOM     29  F   UNL     1      -7.877  13.015  19.474  0.00  0.00    +0.000 F 
ENDBRANCH  25  26
ENDBRANCH  23  25
ENDBRANCH  17  21
BRANCH  15  31
ATOM     30  N   UNL     1       0.633  13.856  19.187  0.00  0.00    +0.000 NA
ATOM     31  C   UNL     1      -0.185  13.168  18.726  0.00  0.00    +0.000 C 
ENDBRANCH  15  31
ENDBRANCH   1  20
BRANCH   3  32
ATOM     32  C   UNL     1       0.050   9.809  22.798  0.00  0.00    +0.000 C 
ATOM     33  N   UNL     1      -1.174  10.150  23.309  0.00  0.00    +0.000 N 
ATOM     34  O   UNL     1       0.980   9.495  23.532  0.00  0.00    +0.000 OA
ATOM     35  H   UNL     1      -2.002  10.081  22.732  0.00  0.00    +0.000 HD
ATOM     36  H   UNL     1      -1.291  10.051  24.307  0.00  0.00    +0.000 HD
ENDBRANCH   3  32
TORSDOF 7
ENDMDL
MODEL 6
REMARK VINA RESULT:      -7.6      1.172      1.552
REMARK  Name = 
REMARK  7 active torsions:
REMARK  status: ('A' for Active; 'I' for Inactive)
REMARK    1  A    between atoms: C_2  and  C_3
REMARK    2  A    between atoms: C_5  and  C_6
REMARK    3  A    between atoms: N_8  and  C_9
REMARK    4  A    between atoms: C_9  and  C_10
REMARK    5  A    between atoms: C_16  and  N_17
REMARK    6  A    between atoms: C_19  and  C_20
REMARK    7  A    between atoms: N_24  and  C_25
REMARK                            x       y       z     vdW  Elec       q    Type
REMARK                         _______ _______ _______ _____ _____    ______ ____
ROOT
ATOM      1  N   UNL     1      -0.100  10.471  19.523  0.00  0.00    +0.000 N 
ATOM      2  C   UNL     1      -0.318  10.620  20.856  0.00  0.00    +0.000 A 
ATOM      3  C   UNL     1       0.495   9.688  21.483  0.00  0.00    +0.000 A 
ATOM      4  C   UNL     1       1.152   9.004  20.417  0.00  0.00    +0.000 A 
ATOM      5  N   UNL     1       1.969   7.930  20.586  0.00  0.00    +0.000 N 
ATOM      6  N   UNL     1       0.781   9.517  19.244  0.00  0.00    +0.000 NA
ATOM      7  H   UNL     1       2.226   7.687  21.540  0.00  0.00    +0.000 HD
ENDROOT
BRANCH   5   8
ATOM      8  C   UNL     1       2.293   6.914  19.650  0.00  0.00    +0.000 A 
ATOM      9  C   UNL     1       2.016   5.556  19.863  0.00  0.00    +0.000 A 
ATOM     10  C   UNL     1       2.489   4.562  18.997  0.00  0.00    +0.000 A 
ATOM     11  C   UNL     1       3.241   4.916  17.890  0.00  0.00    +0.000 A 
ATOM     12 CL   UNL     1       3.854   3.694  16.844  0.00  0.00    +0.000 Cl
ATOM     13  C   UNL     1       3.506   6.258  17.632  0.00  0.00    +0.000 A 
ATOM     14  C   UNL     1       3.033   7.248  18.506  0.00  0.00    +0.000 A 
ENDBRANCH   5   8
BRANCH   1  20
ATOM     15  C   UNL     1      -0.530  12.727  18.499  0.00  0.00    +0.000 C 
ATOM     16  C   UNL     1      -1.356  13.406  19.596  0.00  0.00    +0.000 C 
ATOM     17  C   UNL     1      -2.855  13.050  19.522  0.00  0.00    +0.000 C 
ATOM     18  C   UNL     1      -3.107  11.543  19.369  0.00  0.00    +0.000 C 
ATOM     19  C   UNL     1      -2.230  10.875  18.307  0.00  0.00    +0.000 C 
ATOM     20  C   UNL     1      -0.732  11.200  18.428  0.00  0.00    +0.000 C 
BRANCH  17  21
ATOM     21  C   UNL     1      -3.607  13.617  20.734  0.00  0.00    +0.000 C 
ATOM     22  O   UNL     1      -3.907  14.801  20.845  0.00  0.00    +0.000 OA
ATOM     23  N   UNL     1      -3.993  12.685  21.668  0.00  0.00    +0.000 N 
ATOM     24  H   UNL     1      -3.759  11.705  21.556  0.00  0.00    +0.000 HD
BRANCH  23  25
ATOM     25  C   UNL     1      -4.754  13.079  22.859  0.00  0.00    +0.000 C 
BRANCH  25  26
ATOM     26  C   UNL     1      -4.150  12.635  24.192  0.00  0.00    +0.000 C 
ATOM     27  F   UNL     1      -3.167  11.719  23.997  0.00  0.00    +0.000 F 
ATOM     28  F   UNL     1      -3.606  13.672  24.863  0.00  0.00    +0.000 F 
ATOM     29  F   UNL     1      -5.078  12.064  24.991  0.00  0.00    +0.000 F 
ENDBRANCH  25  26
ENDBRANCH  23  25
ENDBRANCH  17  21
BRANCH  15  31
ATOM     30  N   UNL     1       2.020  13.384  18.629  0.00  0.00    +0.000 NA
ATOM     31  C   UNL     1       0.901  13.065  18.595  0.00  0.00    +0.000 C 
ENDBRANCH  15  31
ENDBRANCH   1  20
BRANCH   3  32
ATOM     32  C   UNL     1       0.605   9.464  22.908  0.00  0.00    +0.000 C 
ATOM     33  N   UNL     1      -0.581   9.257  23.560  0.00  0.00    +0.000 N 
ATOM     34  O   UNL     1       1.675   9.419  23.506  0.00  0.00    +0.000 OA
ATOM     35  H   UNL     1      -1.400   8.966  23.042  0.00  0.00    +0.000 HD
ATOM     36  H   UNL     1      -0.523   8.988  24.532  0.00  0.00    +0.000 HD
ENDBRANCH   3  32
TORSDOF 7
ENDMDL
MODEL 7
REMARK VINA RESULT:      -7.6      0.868      1.228
REMARK  Name = 
REMARK  7 active torsions:
REMARK  status: ('A' for Active; 'I' for Inactive)
REMARK    1  A    between atoms: C_2  and  C_3
REMARK    2  A    between atoms: C_5  and  C_6
REMARK    3  A    between atoms: N_8  and  C_9
REMARK    4  A    between atoms: C_9  and  C_10
REMARK    5  A    between atoms: C_16  and  N_17
REMARK    6  A    between atoms: C_19  and  C_20
REMARK    7  A    between atoms: N_24  and  C_25
REMARK                            x       y       z     vdW  Elec       q    Type
REMARK                         _______ _______ _______ _____ _____    ______ ____
ROOT
ATOM      1  N   UNL     1      -0.131  10.270  19.290  0.00  0.00    +0.000 N 
ATOM      2  C   UNL     1      -0.545  10.656  20.525  0.00  0.00    +0.000 A 
ATOM      3  C   UNL     1       0.094   9.816  21.423  0.00  0.00    +0.000 A 
ATOM      4  C   UNL     1       0.863   8.932  20.608  0.00  0.00    +0.000 A 
ATOM      5  N   UNL     1       1.570   7.873  21.085  0.00  0.00    +0.000 N 
ATOM      6  N   UNL     1       0.718   9.249  19.322  0.00  0.00    +0.000 NA
ATOM      7  H   UNL     1       1.656   7.788  22.096  0.00  0.00    +0.000 HD
ENDROOT
BRANCH   5   8
ATOM      8  C   UNL     1       1.969   6.698  20.396  0.00  0.00    +0.000 A 
ATOM      9  C   UNL     1       1.658   5.404  20.838  0.00  0.00    +0.000 A 
ATOM     10  C   UNL     1       2.198   4.266  20.227  0.00  0.00    +0.000 A 
ATOM     11  C   UNL     1       3.055   4.406  19.150  0.00  0.00    +0.000 A 
ATOM     12 CL   UNL     1       3.749   3.011  18.420  0.00  0.00    +0.000 Cl
ATOM     13  C   UNL     1       3.359   5.675  18.665  0.00  0.00    +0.000 A 
ATOM     14  C   UNL     1       2.816   6.811  19.285  0.00  0.00    +0.000 A 
ENDBRANCH   5   8
BRANCH   1  20
ATOM     15  C   UNL     1      -0.958  12.305  18.063  0.00  0.00    +0.000 C 
ATOM     16  C   UNL     1      -2.322  12.524  18.724  0.00  0.00    +0.000 C 
ATOM     17  C   UNL     1      -3.435  11.655  18.102  0.00  0.00    +0.000 C 
ATOM     18  C   UNL     1      -3.027  10.182  17.943  0.00  0.00    +0.000 C 
ATOM     19  C   UNL     1      -1.637   9.989  17.333  0.00  0.00    +0.000 C 
ATOM     20  C   UNL     1      -0.532  10.823  17.999  0.00  0.00    +0.000 C 
BRANCH  17  21
ATOM     21  C   UNL     1      -4.736  11.786  18.903  0.00  0.00    +0.000 C 
ATOM     22  O   UNL     1      -5.544  10.872  19.029  0.00  0.00    +0.000 OA
ATOM     23  N   UNL     1      -4.908  12.991  19.541  0.00  0.00    +0.000 N 
ATOM     24  H   UNL     1      -4.224  13.734  19.449  0.00  0.00    +0.000 HD
BRANCH  23  25
ATOM     25  C   UNL     1      -6.088  13.243  20.377  0.00  0.00    +0.000 C 
BRANCH  25  26
ATOM     26  C   UNL     1      -5.895  12.974  21.871  0.00  0.00    +0.000 C 
ATOM     27  F   UNL     1      -4.686  12.405  22.107  0.00  0.00    +0.000 F 
ATOM     28  F   UNL     1      -5.953  14.113  22.593  0.00  0.00    +0.000 F 
ATOM     29  F   UNL     1      -6.837  12.131  22.347  0.00  0.00    +0.000 F 
ENDBRANCH  25  26
ENDBRANCH  23  25
ENDBRANCH  17  21
BRANCH  15  31
ATOM     30  N   UNL     1       0.956  13.723  19.192  0.00  0.00    +0.000 NA
ATOM     31  C   UNL     1       0.095  13.129  18.681  0.00  0.00    +0.000 C 
ENDBRANCH  15  31
ENDBRANCH   1  20
BRANCH   3  32
ATOM     32  C   UNL     1      -0.037   9.837  22.863  0.00  0.00    +0.000 C 
ATOM     33  N   UNL     1      -1.252  10.259  23.333  0.00  0.00    +0.000 N 
ATOM     34  O   UNL     1       0.848   9.472  23.629  0.00  0.00    +0.000 OA
ATOM     35  H   UNL     1      -2.064  10.237  22.730  0.00  0.00    +0.000 HD
ATOM     36  H   UNL     1      -1.407  10.177  24.327  0.00  0.00    +0.000 HD
ENDBRANCH   3  32
TORSDOF 7
ENDMDL
MODEL 8
REMARK VINA RESULT:      -7.5      1.912      2.264
REMARK  Name = 
REMARK  7 active torsions:
REMARK  status: ('A' for Active; 'I' for Inactive)
REMARK    1  A    between atoms: C_2  and  C_3
REMARK    2  A    between atoms: C_5  and  C_6
REMARK    3  A    between atoms: N_8  and  C_9
REMARK    4  A    between atoms: C_9  and  C_10
REMARK    5  A    between atoms: C_16  and  N_17
REMARK    6  A    between atoms: C_19  and  C_20
REMARK    7  A    between atoms: N_24  and  C_25
REMARK                            x       y       z     vdW  Elec       q    Type
REMARK                         _______ _______ _______ _____ _____    ______ ____
ROOT
ATOM      1  N   UNL     1       0.501   9.920  19.370  0.00  0.00    +0.000 N 
ATOM      2  C   UNL     1       0.214  10.339  20.630  0.00  0.00    +0.000 A 
ATOM      3  C   UNL     1       0.756   9.389  21.482  0.00  0.00    +0.000 A 
ATOM      4  C   UNL     1       1.335   8.413  20.616  0.00  0.00    +0.000 A 
ATOM      5  N   UNL     1       1.888   7.245  21.040  0.00  0.00    +0.000 N 
ATOM      6  N   UNL     1       1.178   8.777  19.343  0.00  0.00    +0.000 NA
ATOM      7  H   UNL     1       2.009   7.126  22.044  0.00  0.00    +0.000 HD
ENDROOT
BRANCH   5   8
ATOM      8  C   UNL     1       2.061   6.039  20.315  0.00  0.00    +0.000 A 
ATOM      9  C   UNL     1       1.265   4.901  20.513  0.00  0.00    +0.000 A 
ATOM     10  C   UNL     1       1.561   3.677  19.899  0.00  0.00    +0.000 A 
ATOM     11  C   UNL     1       2.658   3.576  19.062  0.00  0.00    +0.000 A 
ATOM     12 CL   UNL     1       3.045   2.065  18.335  0.00  0.00    +0.000 Cl
ATOM     13  C   UNL     1       3.451   4.694  18.818  0.00  0.00    +0.000 A 
ATOM     14  C   UNL     1       3.151   5.916  19.441  0.00  0.00    +0.000 A 
ENDBRANCH   5   8
BRANCH   1  20
ATOM     15  C   UNL     1      -0.059  12.085  18.218  0.00  0.00    +0.000 C 
ATOM     16  C   UNL     1      -1.340  12.495  18.950  0.00  0.00    +0.000 C 
ATOM     17  C   UNL     1      -2.602  11.822  18.371  0.00  0.00    +0.000 C 
ATOM     18  C   UNL     1      -2.434  10.308  18.169  0.00  0.00    +0.000 C 
ATOM     19  C   UNL     1      -1.121   9.918  17.487  0.00  0.00    +0.000 C 
ATOM     20  C   UNL     1       0.130  10.557  18.110  0.00  0.00    +0.000 C 
BRANCH  17  21
ATOM     21  C   UNL     1      -3.828  12.133  19.238  0.00  0.00    +0.000 C 
ATOM     22  O   UNL     1      -3.770  12.779  20.279  0.00  0.00    +0.000 OA
ATOM     23  N   UNL     1      -5.028  11.696  18.729  0.00  0.00    +0.000 N 
ATOM     24  H   UNL     1      -5.069  11.181  17.856  0.00  0.00    +0.000 HD
BRANCH  23  25
ATOM     25  C   UNL     1      -6.289  11.959  19.432  0.00  0.00    +0.000 C 
BRANCH  25  26
ATOM     26  C   UNL     1      -7.059  13.189  18.945  0.00  0.00    +0.000 C 
ATOM     27  F   UNL     1      -6.210  14.134  18.469  0.00  0.00    +0.000 F 
ATOM     28  F   UNL     1      -7.916  12.877  17.950  0.00  0.00    +0.000 F 
ATOM     29  F   UNL     1      -7.771  13.754  19.944  0.00  0.00    +0.000 F 
ENDBRANCH  25  26
ENDBRANCH  23  25
ENDBRANCH  17  21
BRANCH  15  31
ATOM     30  N   UNL     1       2.070  13.194  19.309  0.00  0.00    +0.000 NA
ATOM     31  C   UNL     1       1.137  12.724  18.795  0.00  0.00    +0.000 C 
ENDBRANCH  15  31
ENDBRANCH   1  20
BRANCH   3  32
ATOM     32  C   UNL     1       0.701   9.398  22.927  0.00  0.00    +0.000 C 
ATOM     33  N   UNL     1      -0.559   9.370  23.464  0.00  0.00    +0.000 N 
ATOM     34  O   UNL     1       1.696   9.393  23.643  0.00  0.00    +0.000 OA
ATOM     35  H   UNL     1      -1.339   9.044  22.909  0.00  0.00    +0.000 HD
ATOM     36  H   UNL     1      -0.622   9.263  24.466  0.00  0.00    +0.000 HD
ENDBRANCH   3  32
TORSDOF 7
ENDMDL
MODEL 9
REMARK VINA RESULT:      -7.5      4.858      8.798
REMARK  Name = 
REMARK  7 active torsions:
REMARK  status: ('A' for Active; 'I' for Inactive)
REMARK    1  A    between atoms: C_2  and  C_3
REMARK    2  A    between atoms: C_5  and  C_6
REMARK    3  A    between atoms: N_8  and  C_9
REMARK    4  A    between atoms: C_9  and  C_10
REMARK    5  A    between atoms: C_16  and  N_17
REMARK    6  A    between atoms: C_19  and  C_20
REMARK    7  A    between atoms: N_24  and  C_25
REMARK                            x       y       z     vdW  Elec       q    Type
REMARK                         _______ _______ _______ _____ _____    ______ ____
ROOT
ATOM      1  N   UNL     1      -1.559  11.771  19.678  0.00  0.00    +0.000 N 
ATOM      2  C   UNL     1      -1.663  11.250  18.427  0.00  0.00    +0.000 A 
ATOM      3  C   UNL     1      -2.934  11.577  17.981  0.00  0.00    +0.000 A 
ATOM      4  C   UNL     1      -3.529  12.286  19.067  0.00  0.00    +0.000 A 
ATOM      5  N   UNL     1      -4.823  12.702  19.092  0.00  0.00    +0.000 N 
ATOM      6  N   UNL     1      -2.661  12.401  20.072  0.00  0.00    +0.000 NA
ATOM      7  H   UNL     1      -5.356  12.615  18.228  0.00  0.00    +0.000 HD
ENDROOT
BRANCH   5   8
ATOM      8  C   UNL     1      -5.638  12.979  20.219  0.00  0.00    +0.000 A 
ATOM      9  C   UNL     1      -5.608  14.200  20.909  0.00  0.00    +0.000 A 
ATOM     10  C   UNL     1      -6.304  14.387  22.110  0.00  0.00    +0.000 A 
ATOM     11  C   UNL     1      -7.056  13.351  22.636  0.00  0.00    +0.000 A 
ATOM     12 CL   UNL     1      -7.883  13.565  24.130  0.00  0.00    +0.000 Cl
ATOM     13  C   UNL     1      -7.133  12.136  21.961  0.00  0.00    +0.000 A 
ATOM     14  C   UNL     1      -6.429  11.955  20.760  0.00  0.00    +0.000 A 
ENDBRANCH   5   8
BRANCH   1  20
ATOM     15  C   UNL     1       0.918  12.105  19.958  0.00  0.00    +0.000 C 
ATOM     16  C   UNL     1       1.476  11.083  18.963  0.00  0.00    +0.000 C 
ATOM     17  C   UNL     1       1.567   9.660  19.554  0.00  0.00    +0.000 C 
ATOM     18  C   UNL     1       0.279   9.225  20.267  0.00  0.00    +0.000 C 
ATOM     19  C   UNL     1      -0.292  10.284  21.214  0.00  0.00    +0.000 C 
ATOM     20  C   UNL     1      -0.424  11.683  20.591  0.00  0.00    +0.000 C 
BRANCH  17  21
ATOM     21  C   UNL     1       1.971   8.650  18.473  0.00  0.00    +0.000 C 
ATOM     22  O   UNL     1       2.063   8.937  17.284  0.00  0.00    +0.000 OA
ATOM     23  N   UNL     1       2.300   7.399  18.939  0.00  0.00    +0.000 N 
ATOM     24  H   UNL     1       2.241   7.177  19.927  0.00  0.00    +0.000 HD
BRANCH  23  25
ATOM     25  C   UNL     1       2.744   6.343  18.022  0.00  0.00    +0.000 C 
BRANCH  25  26
ATOM     26  C   UNL     1       2.114   4.969  18.261  0.00  0.00    +0.000 C 
ATOM     27  F   UNL     1       3.046   3.986  18.162  0.00  0.00    +0.000 F 
ATOM     28  F   UNL     1       1.563   4.880  19.490  0.00  0.00    +0.000 F 
ATOM     29  F   UNL     1       1.150   4.701  17.353  0.00  0.00    +0.000 F 
ENDBRANCH  25  26
ENDBRANCH  23  25
ENDBRANCH  17  21
BRANCH  15  31
ATOM     30  N   UNL     1       0.714  14.491  18.854  0.00  0.00    +0.000 NA
ATOM     31  C   UNL     1       0.822  13.453  19.371  0.00  0.00    +0.000 C 
ENDBRANCH  15  31
ENDBRANCH   1  20
BRANCH   3  32
ATOM     32  C   UNL     1      -3.511  11.232  16.700  0.00  0.00    +0.000 C 
ATOM     33  N   UNL     1      -2.610  11.041  15.687  0.00  0.00    +0.000 N 
ATOM     34  O   UNL     1      -4.713  11.079  16.518  0.00  0.00    +0.000 OA
ATOM     35  H   UNL     1      -1.642  10.840  15.900  0.00  0.00    +0.000 HD
ATOM     36  H   UNL     1      -2.978  10.691  14.814  0.00  0.00    +0.000 HD
ENDBRANCH   3  32
TORSDOF 7
ENDMDL
