MODEL 1
REMARK VINA RESULT:      -8.1      0.000      0.000
REMARK  Name = 
REMARK  3 active torsions:
REMARK  status: ('A' for Active; 'I' for Inactive)
REMARK    1  A    between atoms: C_1  and  C_2
REMARK    2  A    between atoms: C_2  and  C_3
REMARK    3  A    between atoms: C_5  and  C_6
REMARK                            x       y       z     vdW  Elec       q    Type
REMARK                         _______ _______ _______ _____ _____    ______ ____
ROOT
ATOM      1  C   UNL     1       5.312   5.793  15.417  0.00  0.00    +0.000 C 
ATOM      2  C   UNL     1       5.392   5.862  16.947  0.00  0.00    +0.000 C 
ATOM      3  C   UNL     1       6.784   6.341  17.379  0.00  0.00    +0.000 C 
ATOM      4  C   UNL     1       4.361   6.842  17.445  0.00  0.00    +0.000 C 
ATOM      5  C   UNL     1       3.381   6.539  18.310  0.00  0.00    +0.000 C 
ATOM      6  C   UNL     1       3.345   5.151  18.795  0.00  0.00    +0.000 A 
ATOM      7  C   UNL     1       2.384   4.727  19.726  0.00  0.00    +0.000 A 
ATOM      8  C   UNL     1       2.377   3.408  20.184  0.00  0.00    +0.000 A 
ATOM      9 CL   UNL     1       1.201   2.911  21.337  0.00  0.00    +0.000 Cl
ATOM     10  C   UNL     1       3.316   2.492  19.720  0.00  0.00    +0.000 A 
ATOM     11  C   UNL     1       4.268   2.902  18.788  0.00  0.00    +0.000 A 
ATOM     12  C   UNL     1       4.284   4.223  18.330  0.00  0.00    +0.000 A 
ATOM     13  O   UNL     1       5.259   4.510  17.420  0.00  0.00    +0.000 OA
ENDROOT
BRANCH   5  14
ATOM     14  C   UNL     1       2.466   7.632  18.684  0.00  0.00    +0.000 A 
ATOM     15  C   UNL     1       1.994   7.740  19.992  0.00  0.00    +0.000 A 
ATOM     16  C   UNL     1       1.125   8.775  20.293  0.00  0.00    +0.000 A 
ATOM     17  N   UNL     1       0.709   9.691  19.392  0.00  0.00    +0.000 NA
ATOM     18  C   UNL     1       1.179   9.564  18.133  0.00  0.00    +0.000 A 
ATOM     19  C   UNL     1       2.043   8.561  17.730  0.00  0.00    +0.000 A 
ENDBRANCH   5  14
TORSDOF 1
ENDMDL
MODEL 2
REMARK VINA RESULT:      -8.1      0.079      1.083
REMARK  Name = 
REMARK  3 active torsions:
REMARK  status: ('A' for Active; 'I' for Inactive)
REMARK    1  A    between atoms: C_1  and  C_2
REMARK    2  A    between atoms: C_2  and  C_3
REMARK    3  A    between atoms: C_5  and  C_6
REMARK                            x       y       z     vdW  Elec       q    Type
REMARK                         _______ _______ _______ _____ _____    ______ ____
ROOT
ATOM      1  C   UNL     1       5.227   5.846  15.431  0.00  0.00    +0.000 C 
ATOM      2  C   UNL     1       5.319   5.915  16.961  0.00  0.00    +0.000 C 
ATOM      3  C   UNL     1       6.708   6.412  17.381  0.00  0.00    +0.000 C 
ATOM      4  C   UNL     1       4.280   6.883  17.467  0.00  0.00    +0.000 C 
ATOM      5  C   UNL     1       3.311   6.568  18.341  0.00  0.00    +0.000 C 
ATOM      6  C   UNL     1       3.296   5.180  18.826  0.00  0.00    +0.000 A 
ATOM      7  C   UNL     1       2.348   4.744  19.765  0.00  0.00    +0.000 A 
ATOM      8  C   UNL     1       2.361   3.425  20.223  0.00  0.00    +0.000 A 
ATOM      9 CL   UNL     1       1.200   2.914  21.386  0.00  0.00    +0.000 Cl
ATOM     10  C   UNL     1       3.307   2.520  19.750  0.00  0.00    +0.000 A 
ATOM     11  C   UNL     1       4.246   2.942  18.811  0.00  0.00    +0.000 A 
ATOM     12  C   UNL     1       4.243   4.264  18.353  0.00  0.00    +0.000 A 
ATOM     13  O   UNL     1       5.206   4.562  17.435  0.00  0.00    +0.000 OA
ENDROOT
BRANCH   5  14
ATOM     14  C   UNL     1       2.386   7.650  18.722  0.00  0.00    +0.000 A 
ATOM     15  C   UNL     1       1.948   8.571  17.769  0.00  0.00    +0.000 A 
ATOM     16  C   UNL     1       1.092   9.579  18.177  0.00  0.00    +0.000 A 
ATOM     17  N   UNL     1       0.650   9.722  19.445  0.00  0.00    +0.000 NA
ATOM     18  C   UNL     1       1.089   8.819  20.349  0.00  0.00    +0.000 A 
ATOM     19  C   UNL     1       1.953   7.781  20.043  0.00  0.00    +0.000 A 
ENDBRANCH   5  14
TORSDOF 1
ENDMDL
MODEL 3
REMARK VINA RESULT:      -8.0      1.041      1.041
REMARK  Name = 
REMARK  3 active torsions:
REMARK  status: ('A' for Active; 'I' for Inactive)
REMARK    1  A    between atoms: C_1  and  C_2
REMARK    2  A    between atoms: C_2  and  C_3
REMARK    3  A    between atoms: C_5  and  C_6
REMARK                            x       y       z     vdW  Elec       q    Type
REMARK                         _______ _______ _______ _____ _____    ______ ____
ROOT
ATOM      1  C   UNL     1       5.641   6.116  15.098  0.00  0.00    +0.000 C 
ATOM      2  C   UNL     1       5.500   5.735  16.577  0.00  0.00    +0.000 C 
ATOM      3  C   UNL     1       6.862   5.826  17.275  0.00  0.00    +0.000 C 
ATOM      4  C   UNL     1       4.546   6.698  17.238  0.00  0.00    +0.000 C 
ATOM      5  C   UNL     1       3.416   6.336  17.865  0.00  0.00    +0.000 C 
ATOM      6  C   UNL     1       3.122   4.896  17.902  0.00  0.00    +0.000 A 
ATOM      7  C   UNL     1       1.985   4.398  18.556  0.00  0.00    +0.000 A 
ATOM      8  C   UNL     1       1.732   3.026  18.591  0.00  0.00    +0.000 A 
ATOM      9 CL   UNL     1       0.341   2.434  19.412  0.00  0.00    +0.000 Cl
ATOM     10  C   UNL     1       2.599   2.130  17.971  0.00  0.00    +0.000 A 
ATOM     11  C   UNL     1       3.725   2.616  17.310  0.00  0.00    +0.000 A 
ATOM     12  C   UNL     1       3.988   3.990  17.278  0.00  0.00    +0.000 A 
ATOM     13  O   UNL     1       5.117   4.349  16.603  0.00  0.00    +0.000 OA
ENDROOT
BRANCH   5  14
ATOM     14  C   UNL     1       2.610   7.421  18.455  0.00  0.00    +0.000 A 
ATOM     15  C   UNL     1       2.243   7.373  19.800  0.00  0.00    +0.000 A 
ATOM     16  C   UNL     1       1.473   8.407  20.306  0.00  0.00    +0.000 A 
ATOM     17  N   UNL     1       1.060   9.463  19.574  0.00  0.00    +0.000 NA
ATOM     18  C   UNL     1       1.428   9.485  18.275  0.00  0.00    +0.000 A 
ATOM     19  C   UNL     1       2.188   8.497  17.672  0.00  0.00    +0.000 A 
ENDBRANCH   5  14
TORSDOF 1
ENDMDL
MODEL 4
REMARK VINA RESULT:      -8.0      1.149      1.576
REMARK  Name = 
REMARK  3 active torsions:
REMARK  status: ('A' for Active; 'I' for Inactive)
REMARK    1  A    between atoms: C_1  and  C_2
REMARK    2  A    between atoms: C_2  and  C_3
REMARK    3  A    between atoms: C_5  and  C_6
REMARK                            x       y       z     vdW  Elec       q    Type
REMARK                         _______ _______ _______ _____ _____    ______ ____
ROOT
ATOM      1  C   UNL     1       6.485   5.998  16.008  0.00  0.00    +0.000 C 
ATOM      2  C   UNL     1       5.978   5.613  17.403  0.00  0.00    +0.000 C 
ATOM      3  C   UNL     1       7.129   5.678  18.416  0.00  0.00    +0.000 C 
ATOM      4  C   UNL     1       4.906   6.588  17.818  0.00  0.00    +0.000 C 
ATOM      5  C   UNL     1       3.651   6.242  18.145  0.00  0.00    +0.000 C 
ATOM      6  C   UNL     1       3.336   4.807  18.096  0.00  0.00    +0.000 A 
ATOM      7  C   UNL     1       2.065   4.325  18.446  0.00  0.00    +0.000 A 
ATOM      8  C   UNL     1       1.791   2.957  18.406  0.00  0.00    +0.000 A 
ATOM      9 CL   UNL     1       0.231   2.385  18.854  0.00  0.00    +0.000 Cl
ATOM     10  C   UNL     1       2.770   2.050  18.010  0.00  0.00    +0.000 A 
ATOM     11  C   UNL     1       4.032   2.520  17.651  0.00  0.00    +0.000 A 
ATOM     12  C   UNL     1       4.314   3.889  17.695  0.00  0.00    +0.000 A 
ATOM     13  O   UNL     1       5.581   4.233  17.323  0.00  0.00    +0.000 OA
ENDROOT
BRANCH   5  14
ATOM     14  C   UNL     1       2.741   7.337  18.528  0.00  0.00    +0.000 A 
ATOM     15  C   UNL     1       2.391   8.318  17.600  0.00  0.00    +0.000 A 
ATOM     16  C   UNL     1       1.546   9.335  18.010  0.00  0.00    +0.000 A 
ATOM     17  N   UNL     1       1.036   9.431  19.257  0.00  0.00    +0.000 NA
ATOM     18  C   UNL     1       1.392   8.470  20.136  0.00  0.00    +0.000 A 
ATOM     19  C   UNL     1       2.237   7.418  19.828  0.00  0.00    +0.000 A 
ENDBRANCH   5  14
TORSDOF 1
ENDMDL
MODEL 5
REMARK VINA RESULT:      -7.9      3.822      5.478
REMARK  Name = 
REMARK  3 active torsions:
REMARK  status: ('A' for Active; 'I' for Inactive)
REMARK    1  A    between atoms: C_1  and  C_2
REMARK    2  A    between atoms: C_2  and  C_3
REMARK    3  A    between atoms: C_5  and  C_6
REMARK                            x       y       z     vdW  Elec       q    Type
REMARK                         _______ _______ _______ _____ _____    ______ ____
ROOT
ATOM      1  C   UNL     1       6.778   7.732  17.740  0.00  0.00    +0.000 C 
ATOM      2  C   UNL     1       6.991   6.233  17.495  0.00  0.00    +0.000 C 
ATOM      3  C   UNL     1       8.046   5.687  18.464  0.00  0.00    +0.000 C 
ATOM      4  C   UNL     1       5.688   5.512  17.733  0.00  0.00    +0.000 C 
ATOM      5  C   UNL     1       5.062   4.755  16.819  0.00  0.00    +0.000 C 
ATOM      6  C   UNL     1       5.721   4.633  15.510  0.00  0.00    +0.000 A 
ATOM      7  C   UNL     1       5.174   3.843  14.487  0.00  0.00    +0.000 A 
ATOM      8  C   UNL     1       5.824   3.730  13.256  0.00  0.00    +0.000 A 
ATOM      9 CL   UNL     1       5.145   2.744  12.020  0.00  0.00    +0.000 Cl
ATOM     10  C   UNL     1       7.019   4.404  13.022  0.00  0.00    +0.000 A 
ATOM     11  C   UNL     1       7.564   5.198  14.029  0.00  0.00    +0.000 A 
ATOM     12  C   UNL     1       6.921   5.310  15.266  0.00  0.00    +0.000 A 
ATOM     13  O   UNL     1       7.546   6.114  16.174  0.00  0.00    +0.000 OA
ENDROOT
BRANCH   5  14
ATOM     14  C   UNL     1       3.796   4.125  17.236  0.00  0.00    +0.000 A 
ATOM     15  C   UNL     1       2.675   4.909  17.509  0.00  0.00    +0.000 A 
ATOM     16  C   UNL     1       1.513   4.273  17.912  0.00  0.00    +0.000 A 
ATOM     17  N   UNL     1       1.400   2.935  18.053  0.00  0.00    +0.000 NA
ATOM     18  C   UNL     1       2.499   2.199  17.785  0.00  0.00    +0.000 A 
ATOM     19  C   UNL     1       3.710   2.739  17.384  0.00  0.00    +0.000 A 
ENDBRANCH   5  14
TORSDOF 1
ENDMDL
MODEL 6
REMARK VINA RESULT:      -7.9      3.827      5.441
REMARK  Name = 
REMARK  3 active torsions:
REMARK  status: ('A' for Active; 'I' for Inactive)
REMARK    1  A    between atoms: C_1  and  C_2
REMARK    2  A    between atoms: C_2  and  C_3
REMARK    3  A    between atoms: C_5  and  C_6
REMARK                            x       y       z     vdW  Elec       q    Type
REMARK                         _______ _______ _______ _____ _____    ______ ____
ROOT
ATOM      1  C   UNL     1       6.993   7.466  17.848  0.00  0.00    +0.000 C 
ATOM      2  C   UNL     1       7.103   5.972  17.521  0.00  0.00    +0.000 C 
ATOM      3  C   UNL     1       8.149   5.312  18.427  0.00  0.00    +0.000 C 
ATOM      4  C   UNL     1       5.765   5.321  17.764  0.00  0.00    +0.000 C 
ATOM      5  C   UNL     1       5.065   4.653  16.833  0.00  0.00    +0.000 C 
ATOM      6  C   UNL     1       5.677   4.558  15.500  0.00  0.00    +0.000 A 
ATOM      7  C   UNL     1       5.052   3.859  14.456  0.00  0.00    +0.000 A 
ATOM      8  C   UNL     1       5.658   3.769  13.202  0.00  0.00    +0.000 A 
ATOM      9 CL   UNL     1       4.882   2.893  11.940  0.00  0.00    +0.000 Cl
ATOM     10  C   UNL     1       6.886   4.379  12.963  0.00  0.00    +0.000 A 
ATOM     11  C   UNL     1       7.509   5.085  13.990  0.00  0.00    +0.000 A 
ATOM     12  C   UNL     1       6.911   5.172  15.252  0.00  0.00    +0.000 A 
ATOM     13  O   UNL     1       7.611   5.887  16.178  0.00  0.00    +0.000 OA
ENDROOT
BRANCH   5  14
ATOM     14  C   UNL     1       3.775   4.081  17.259  0.00  0.00    +0.000 A 
ATOM     15  C   UNL     1       3.636   2.703  17.427  0.00  0.00    +0.000 A 
ATOM     16  C   UNL     1       2.401   2.211  17.813  0.00  0.00    +0.000 A 
ATOM     17  N   UNL     1       1.321   2.989  18.042  0.00  0.00    +0.000 NA
ATOM     18  C   UNL     1       1.481   4.319  17.871  0.00  0.00    +0.000 A 
ATOM     19  C   UNL     1       2.671   4.908  17.478  0.00  0.00    +0.000 A 
ENDBRANCH   5  14
TORSDOF 1
ENDMDL
MODEL 7
REMARK VINA RESULT:      -7.8      2.391      3.975
REMARK  Name = 
REMARK  3 active torsions:
REMARK  status: ('A' for Active; 'I' for Inactive)
REMARK    1  A    between atoms: C_1  and  C_2
REMARK    2  A    between atoms: C_2  and  C_3
REMARK    3  A    between atoms: C_5  and  C_6
REMARK                            x       y       z     vdW  Elec       q    Type
REMARK                         _______ _______ _______ _____ _____    ______ ____
ROOT
ATOM      1  C   UNL     1       2.895   2.689  19.917  0.00  0.00    +0.000 C 
ATOM      2  C   UNL     1       3.109   3.452  18.604  0.00  0.00    +0.000 C 
ATOM      3  C   UNL     1       2.390   2.733  17.456  0.00  0.00    +0.000 C 
ATOM      4  C   UNL     1       2.534   4.839  18.748  0.00  0.00    +0.000 C 
ATOM      5  C   UNL     1       3.236   5.971  18.588  0.00  0.00    +0.000 C 
ATOM      6  C   UNL     1       4.655   5.816  18.237  0.00  0.00    +0.000 A 
ATOM      7  C   UNL     1       5.480   6.929  18.015  0.00  0.00    +0.000 A 
ATOM      8  C   UNL     1       6.822   6.758  17.669  0.00  0.00    +0.000 A 
ATOM      9 CL   UNL     1       7.812   8.136  17.385  0.00  0.00    +0.000 Cl
ATOM     10  C   UNL     1       7.365   5.483  17.548  0.00  0.00    +0.000 A 
ATOM     11  C   UNL     1       6.556   4.371  17.777  0.00  0.00    +0.000 A 
ATOM     12  C   UNL     1       5.209   4.536  18.117  0.00  0.00    +0.000 A 
ATOM     13  O   UNL     1       4.516   3.378  18.317  0.00  0.00    +0.000 OA
ENDROOT
BRANCH   5  14
ATOM     14  C   UNL     1       2.501   7.237  18.767  0.00  0.00    +0.000 A 
ATOM     15  C   UNL     1       2.321   8.105  17.690  0.00  0.00    +0.000 A 
ATOM     16  C   UNL     1       1.637   9.288  17.910  0.00  0.00    +0.000 A 
ATOM     17  N   UNL     1       1.128   9.651  19.107  0.00  0.00    +0.000 NA
ATOM     18  C   UNL     1       1.317   8.793  20.134  0.00  0.00    +0.000 A 
ATOM     19  C   UNL     1       1.994   7.591  20.019  0.00  0.00    +0.000 A 
ENDBRANCH   5  14
TORSDOF 1
ENDMDL
MODEL 8
REMARK VINA RESULT:      -7.7      2.363      3.810
REMARK  Name = 
REMARK  3 active torsions:
REMARK  status: ('A' for Active; 'I' for Inactive)
REMARK    1  A    between atoms: C_1  and  C_2
REMARK    2  A    between atoms: C_2  and  C_3
REMARK    3  A    between atoms: C_5  and  C_6
REMARK                            x       y       z     vdW  Elec       q    Type
REMARK                         _______ _______ _______ _____ _____    ______ ____
ROOT
ATOM      1  C   UNL     1       2.574   2.874  20.287  0.00  0.00    +0.000 C 
ATOM      2  C   UNL     1       2.805   3.536  18.923  0.00  0.00    +0.000 C 
ATOM      3  C   UNL     1       2.027   2.783  17.837  0.00  0.00    +0.000 C 
ATOM      4  C   UNL     1       2.310   4.958  18.982  0.00  0.00    +0.000 C 
ATOM      5  C   UNL     1       3.069   6.037  18.735  0.00  0.00    +0.000 C 
ATOM      6  C   UNL     1       4.471   5.780  18.375  0.00  0.00    +0.000 A 
ATOM      7  C   UNL     1       5.351   6.829  18.066  0.00  0.00    +0.000 A 
ATOM      8  C   UNL     1       6.675   6.561  17.713  0.00  0.00    +0.000 A 
ATOM      9 CL   UNL     1       7.733   7.860  17.322  0.00  0.00    +0.000 Cl
ATOM     10  C   UNL     1       7.145   5.252  17.670  0.00  0.00    +0.000 A 
ATOM     11  C   UNL     1       6.281   4.205  17.985  0.00  0.00    +0.000 A 
ATOM     12  C   UNL     1       4.952   4.466  18.333  0.00  0.00    +0.000 A 
ATOM     13  O   UNL     1       4.201   3.365  18.621  0.00  0.00    +0.000 OA
ENDROOT
BRANCH   5  14
ATOM     14  C   UNL     1       2.407   7.350  18.840  0.00  0.00    +0.000 A 
ATOM     15  C   UNL     1       1.874   7.775  20.057  0.00  0.00    +0.000 A 
ATOM     16  C   UNL     1       1.248   9.009  20.103  0.00  0.00    +0.000 A 
ATOM     17  N   UNL     1       1.128   9.830  19.038  0.00  0.00    +0.000 NA
ATOM     18  C   UNL     1       1.651   9.395  17.871  0.00  0.00    +0.000 A 
ATOM     19  C   UNL     1       2.287   8.175  17.720  0.00  0.00    +0.000 A 
ENDBRANCH   5  14
TORSDOF 1
ENDMDL
MODEL 9
REMARK VINA RESULT:      -7.6      2.287      3.890
REMARK  Name = 
REMARK  3 active torsions:
REMARK  status: ('A' for Active; 'I' for Inactive)
REMARK    1  A    between atoms: C_1  and  C_2
REMARK    2  A    between atoms: C_2  and  C_3
REMARK    3  A    between atoms: C_5  and  C_6
REMARK                            x       y       z     vdW  Elec       q    Type
REMARK                         _______ _______ _______ _____ _____    ______ ____
ROOT
ATOM      1  C   UNL     1       1.881   3.088  21.592  0.00  0.00    +0.000 C 
ATOM      2  C   UNL     1       1.956   3.548  20.132  0.00  0.00    +0.000 C 
ATOM      3  C   UNL     1       0.931   2.782  19.286  0.00  0.00    +0.000 C 
ATOM      4  C   UNL     1       1.639   5.021  20.069  0.00  0.00    +0.000 C 
ATOM      5  C   UNL     1       2.462   5.954  19.566  0.00  0.00    +0.000 C 
ATOM      6  C   UNL     1       3.748   5.474  19.040  0.00  0.00    +0.000 A 
ATOM      7  C   UNL     1       4.677   6.355  18.463  0.00  0.00    +0.000 A 
ATOM      8  C   UNL     1       5.886   5.876  17.956  0.00  0.00    +0.000 A 
ATOM      9 CL   UNL     1       7.004   6.969  17.238  0.00  0.00    +0.000 Cl
ATOM     10  C   UNL     1       6.195   4.520  18.023  0.00  0.00    +0.000 A 
ATOM     11  C   UNL     1       5.283   3.640  18.604  0.00  0.00    +0.000 A 
ATOM     12  C   UNL     1       4.067   4.113  19.107  0.00  0.00    +0.000 A 
ATOM     13  O   UNL     1       3.255   3.161  19.651  0.00  0.00    +0.000 OA
ENDROOT
BRANCH   5  14
ATOM     14  C   UNL     1       1.977   7.346  19.588  0.00  0.00    +0.000 A 
ATOM     15  C   UNL     1       1.477   7.899  20.767  0.00  0.00    +0.000 A 
ATOM     16  C   UNL     1       1.019   9.205  20.734  0.00  0.00    +0.000 A 
ATOM     17  N   UNL     1       1.031   9.978  19.627  0.00  0.00    +0.000 NA
ATOM     18  C   UNL     1       1.518   9.419  18.499  0.00  0.00    +0.000 A 
ATOM     19  C   UNL     1       1.992   8.120  18.425  0.00  0.00    +0.000 A 
ENDBRANCH   5  14
TORSDOF 1
ENDMDL
