MODEL 1
REMARK VINA RESULT:      -8.3      0.000      0.000
REMARK  Name = 
REMARK  9 active torsions:
REMARK  status: ('A' for Active; 'I' for Inactive)
REMARK    1  A    between atoms: C_1  and  O_2
REMARK    2  A    between atoms: O_2  and  C_3
REMARK    3  A    between atoms: C_6  and  S_7
REMARK    4  A    between atoms: S_7  and  N_10
REMARK    5  A    between atoms: C_13  and  C_14
REMARK    6  A    between atoms: N_16  and  C_17
REMARK    7  A    between atoms: C_17  and  C_18
REMARK    8  A    between atoms: C_27  and  O_28
REMARK    9  A    between atoms: O_28  and  C_29
REMARK                            x       y       z     vdW  Elec       q    Type
REMARK                         _______ _______ _______ _____ _____    ______ ____
ROOT
ATOM      1  N   UNL     1       5.047   4.641  18.411  0.00  0.00    +0.000 NA
ATOM      2  C   UNL     1       5.590   4.757  17.037  0.00  0.00    +0.000 C 
ATOM      3  C   UNL     1       7.115   4.736  17.009  0.00  0.00    +0.000 C 
ATOM      4  C   UNL     1       7.723   5.730  18.001  0.00  0.00    +0.000 C 
ATOM      5  C   UNL     1       7.220   5.362  19.397  0.00  0.00    +0.000 C 
ATOM      6  C   UNL     1       5.701   5.424  19.483  0.00  0.00    +0.000 C 
ENDROOT
BRANCH   4   7
ATOM      7  C   UNL     1       7.413   7.181  17.614  0.00  0.00    +0.000 C 
ATOM      8  O   UNL     1       6.513   7.488  16.836  0.00  0.00    +0.000 OA
ATOM      9  N   UNL     1       8.226   8.120  18.199  0.00  0.00    +0.000 N 
ATOM     10  H   UNL     1       9.076   7.835  18.665  0.00  0.00    +0.000 HD
BRANCH   9  11
ATOM     11  C   UNL     1       8.083   9.536  17.913  0.00  0.00    +0.000 C 
BRANCH  11  12
ATOM     12  C   UNL     1       9.136  10.391  18.586  0.00  0.00    +0.000 A 
ATOM     13  C   UNL     1      10.085  11.069  17.825  0.00  0.00    +0.000 A 
ATOM     14  C   UNL     1      11.013  11.881  18.469  0.00  0.00    +0.000 A 
ATOM     15  C   UNL     1      10.980  11.992  19.853  0.00  0.00    +0.000 A 
ATOM     16  C   UNL     1      10.019  11.267  20.541  0.00  0.00    +0.000 A 
ATOM     17  N   UNL     1       9.106  10.466  19.944  0.00  0.00    +0.000 NA
ENDBRANCH  11  12
ENDBRANCH   9  11
ENDBRANCH   4   7
BRANCH   1  18
ATOM     18  S   UNL     1       3.336   4.561  18.531  0.00  0.00    +0.000 S 
ATOM     19  O   UNL     1       3.044   3.895  19.783  0.00  0.00    +0.000 OA
ATOM     20  O   UNL     1       2.802   4.073  17.277  0.00  0.00    +0.000 OA
BRANCH  18  24
ATOM     21  C   UNL     1       1.846   8.883  19.016  0.00  0.00    +0.000 A 
ATOM     22  C   UNL     1       2.443   8.467  17.814  0.00  0.00    +0.000 A 
ATOM     23  C   UNL     1       2.878   7.152  17.642  0.00  0.00    +0.000 A 
ATOM     24  C   UNL     1       2.798   6.257  18.703  0.00  0.00    +0.000 A 
ATOM     25  C   UNL     1       2.269   6.680  19.926  0.00  0.00    +0.000 A 
ATOM     26  C   UNL     1       1.788   7.987  20.096  0.00  0.00    +0.000 A 
BRANCH  21  28
ATOM     27  C   UNL     1       0.104  10.398  18.478  0.00  0.00    +0.000 C 
ATOM     28  O   UNL     1       1.337  10.147  19.152  0.00  0.00    +0.000 OA
ENDBRANCH  21  28
BRANCH  26  29
ATOM     29  O   UNL     1       1.291   8.184  21.356  0.00  0.00    +0.000 OA
ATOM     30  C   UNL     1      -0.103   8.370  21.539  0.00  0.00    +0.000 C 
ENDBRANCH  26  29
ENDBRANCH  18  24
ENDBRANCH   1  18
TORSDOF 7
ENDMDL
MODEL 2
REMARK VINA RESULT:      -8.2      0.724      1.018
REMARK  Name = 
REMARK  9 active torsions:
REMARK  status: ('A' for Active; 'I' for Inactive)
REMARK    1  A    between atoms: C_1  and  O_2
REMARK    2  A    between atoms: O_2  and  C_3
REMARK    3  A    between atoms: C_6  and  S_7
REMARK    4  A    between atoms: S_7  and  N_10
REMARK    5  A    between atoms: C_13  and  C_14
REMARK    6  A    between atoms: N_16  and  C_17
REMARK    7  A    between atoms: C_17  and  C_18
REMARK    8  A    between atoms: C_27  and  O_28
REMARK    9  A    between atoms: O_28  and  C_29
REMARK                            x       y       z     vdW  Elec       q    Type
REMARK                         _______ _______ _______ _____ _____    ______ ____
ROOT
ATOM      1  N   UNL     1       5.143   4.656  18.393  0.00  0.00    +0.000 NA
ATOM      2  C   UNL     1       5.698   4.804  17.027  0.00  0.00    +0.000 C 
ATOM      3  C   UNL     1       7.223   4.814  17.014  0.00  0.00    +0.000 C 
ATOM      4  C   UNL     1       7.801   5.806  18.026  0.00  0.00    +0.000 C 
ATOM      5  C   UNL     1       7.291   5.407  19.412  0.00  0.00    +0.000 C 
ATOM      6  C   UNL     1       5.771   5.437  19.483  0.00  0.00    +0.000 C 
ENDROOT
BRANCH   4   7
ATOM      7  C   UNL     1       7.464   7.256  17.657  0.00  0.00    +0.000 C 
ATOM      8  O   UNL     1       6.549   7.557  16.895  0.00  0.00    +0.000 OA
ATOM      9  N   UNL     1       8.272   8.201  18.240  0.00  0.00    +0.000 N 
ATOM     10  H   UNL     1       9.133   7.924  18.691  0.00  0.00    +0.000 HD
BRANCH   9  11
ATOM     11  C   UNL     1       8.105   9.617  17.969  0.00  0.00    +0.000 C 
BRANCH  11  12
ATOM     12  C   UNL     1       9.197  10.474  18.574  0.00  0.00    +0.000 A 
ATOM     13  C   UNL     1       9.245  10.686  19.949  0.00  0.00    +0.000 A 
ATOM     14  C   UNL     1      10.284  11.443  20.482  0.00  0.00    +0.000 A 
ATOM     15  C   UNL     1      11.244  11.977  19.632  0.00  0.00    +0.000 A 
ATOM     16  C   UNL     1      11.114  11.740  18.273  0.00  0.00    +0.000 A 
ATOM     17  N   UNL     1      10.113  11.012  17.725  0.00  0.00    +0.000 NA
ENDBRANCH  11  12
ENDBRANCH   9  11
ENDBRANCH   4   7
BRANCH   1  18
ATOM     18  S   UNL     1       3.434   4.540  18.494  0.00  0.00    +0.000 S 
ATOM     19  O   UNL     1       3.143   3.842  19.729  0.00  0.00    +0.000 OA
ATOM     20  O   UNL     1       2.922   4.067  17.225  0.00  0.00    +0.000 OA
BRANCH  18  24
ATOM     21  C   UNL     1       1.848   8.820  19.040  0.00  0.00    +0.000 A 
ATOM     22  C   UNL     1       2.586   8.476  17.896  0.00  0.00    +0.000 A 
ATOM     23  C   UNL     1       3.053   7.174  17.703  0.00  0.00    +0.000 A 
ATOM     24  C   UNL     1       2.860   6.220  18.696  0.00  0.00    +0.000 A 
ATOM     25  C   UNL     1       2.186   6.571  19.870  0.00  0.00    +0.000 A 
ATOM     26  C   UNL     1       1.674   7.865  20.055  0.00  0.00    +0.000 A 
BRANCH  21  28
ATOM     27  C   UNL     1       1.825  11.075  18.308  0.00  0.00    +0.000 C 
ATOM     28  O   UNL     1       1.312  10.072  19.186  0.00  0.00    +0.000 OA
ENDBRANCH  21  28
BRANCH  26  29
ATOM     29  O   UNL     1       1.031   7.988  21.257  0.00  0.00    +0.000 OA
ATOM     30  C   UNL     1       1.417   9.015  22.156  0.00  0.00    +0.000 C 
ENDBRANCH  26  29
ENDBRANCH  18  24
ENDBRANCH   1  18
TORSDOF 7
ENDMDL
MODEL 3
REMARK VINA RESULT:      -8.0      0.896      1.898
REMARK  Name = 
REMARK  9 active torsions:
REMARK  status: ('A' for Active; 'I' for Inactive)
REMARK    1  A    between atoms: C_1  and  O_2
REMARK    2  A    between atoms: O_2  and  C_3
REMARK    3  A    between atoms: C_6  and  S_7
REMARK    4  A    between atoms: S_7  and  N_10
REMARK    5  A    between atoms: C_13  and  C_14
REMARK    6  A    between atoms: N_16  and  C_17
REMARK    7  A    between atoms: C_17  and  C_18
REMARK    8  A    between atoms: C_27  and  O_28
REMARK    9  A    between atoms: O_28  and  C_29
REMARK                            x       y       z     vdW  Elec       q    Type
REMARK                         _______ _______ _______ _____ _____    ______ ____
ROOT
ATOM      1  N   UNL     1       5.264   4.348  18.271  0.00  0.00    +0.000 NA
ATOM      2  C   UNL     1       6.044   4.455  17.016  0.00  0.00    +0.000 C 
ATOM      3  C   UNL     1       7.544   4.567  17.268  0.00  0.00    +0.000 C 
ATOM      4  C   UNL     1       7.876   5.650  18.297  0.00  0.00    +0.000 C 
ATOM      5  C   UNL     1       7.151   5.297  19.596  0.00  0.00    +0.000 C 
ATOM      6  C   UNL     1       5.643   5.229  19.399  0.00  0.00    +0.000 C 
ENDROOT
BRANCH   4   7
ATOM      7  C   UNL     1       7.530   7.051  17.778  0.00  0.00    +0.000 C 
ATOM      8  O   UNL     1       6.655   7.257  16.941  0.00  0.00    +0.000 OA
ATOM      9  N   UNL     1       8.282   8.067  18.316  0.00  0.00    +0.000 N 
ATOM     10  H   UNL     1       9.121   7.854  18.838  0.00  0.00    +0.000 HD
BRANCH   9  11
ATOM     11  C   UNL     1       8.101   9.447  17.907  0.00  0.00    +0.000 C 
BRANCH  11  12
ATOM     12  C   UNL     1       9.098  10.394  18.540  0.00  0.00    +0.000 A 
ATOM     13  C   UNL     1       9.189  10.499  19.926  0.00  0.00    +0.000 A 
ATOM     14  C   UNL     1      10.145  11.345  20.480  0.00  0.00    +0.000 A 
ATOM     15  C   UNL     1      10.979  12.073  19.642  0.00  0.00    +0.000 A 
ATOM     16  C   UNL     1      10.812  11.931  18.273  0.00  0.00    +0.000 A 
ATOM     17  N   UNL     1       9.889  11.119  17.704  0.00  0.00    +0.000 NA
ENDBRANCH  11  12
ENDBRANCH   9  11
ENDBRANCH   4   7
BRANCH   1  18
ATOM     18  S   UNL     1       3.573   4.124  18.080  0.00  0.00    +0.000 S 
ATOM     19  O   UNL     1       3.239   2.907  18.792  0.00  0.00    +0.000 OA
ATOM     20  O   UNL     1       3.234   4.295  16.684  0.00  0.00    +0.000 OA
BRANCH  18  24
ATOM     21  C   UNL     1       1.727   7.667  20.354  0.00  0.00    +0.000 A 
ATOM     22  C   UNL     1       1.706   6.376  20.910  0.00  0.00    +0.000 A 
ATOM     23  C   UNL     1       2.284   5.294  20.243  0.00  0.00    +0.000 A 
ATOM     24  C   UNL     1       2.817   5.475  18.972  0.00  0.00    +0.000 A 
ATOM     25  C   UNL     1       2.780   6.742  18.380  0.00  0.00    +0.000 A 
ATOM     26  C   UNL     1       2.241   7.845  19.060  0.00  0.00    +0.000 A 
BRANCH  21  28
ATOM     27  C   UNL     1      -0.140   8.680  21.408  0.00  0.00    +0.000 C 
ATOM     28  O   UNL     1       1.241   8.743  21.048  0.00  0.00    +0.000 OA
ENDBRANCH  21  28
BRANCH  26  29
ATOM     29  O   UNL     1       2.327   8.990  18.314  0.00  0.00    +0.000 OA
ATOM     30  C   UNL     1       1.142   9.672  17.936  0.00  0.00    +0.000 C 
ENDBRANCH  26  29
ENDBRANCH  18  24
ENDBRANCH   1  18
TORSDOF 7
ENDMDL
MODEL 4
REMARK VINA RESULT:      -7.5      0.874      1.650
REMARK  Name = 
REMARK  9 active torsions:
REMARK  status: ('A' for Active; 'I' for Inactive)
REMARK    1  A    between atoms: C_1  and  O_2
REMARK    2  A    between atoms: O_2  and  C_3
REMARK    3  A    between atoms: C_6  and  S_7
REMARK    4  A    between atoms: S_7  and  N_10
REMARK    5  A    between atoms: C_13  and  C_14
REMARK    6  A    between atoms: N_16  and  C_17
REMARK    7  A    between atoms: C_17  and  C_18
REMARK    8  A    between atoms: C_27  and  O_28
REMARK    9  A    between atoms: O_28  and  C_29
REMARK                            x       y       z     vdW  Elec       q    Type
REMARK                         _______ _______ _______ _____ _____    ______ ____
ROOT
ATOM      1  N   UNL     1       5.124   4.437  18.352  0.00  0.00    +0.000 NA
ATOM      2  C   UNL     1       5.828   4.493  17.049  0.00  0.00    +0.000 C 
ATOM      3  C   UNL     1       7.341   4.600  17.208  0.00  0.00    +0.000 C 
ATOM      4  C   UNL     1       7.742   5.716  18.175  0.00  0.00    +0.000 C 
ATOM      5  C   UNL     1       7.093   5.416  19.527  0.00  0.00    +0.000 C 
ATOM      6  C   UNL     1       5.576   5.354  19.423  0.00  0.00    +0.000 C 
ENDROOT
BRANCH   4   7
ATOM      7  C   UNL     1       7.375   7.101  17.628  0.00  0.00    +0.000 C 
ATOM      8  O   UNL     1       6.491   7.278  16.793  0.00  0.00    +0.000 OA
ATOM      9  N   UNL     1       8.117   8.137  18.138  0.00  0.00    +0.000 N 
ATOM     10  H   UNL     1       8.962   7.947  18.660  0.00  0.00    +0.000 HD
BRANCH   9  11
ATOM     11  C   UNL     1       7.916   9.506  17.701  0.00  0.00    +0.000 C 
BRANCH  11  12
ATOM     12  C   UNL     1       8.803  10.500  18.420  0.00  0.00    +0.000 A 
ATOM     13  C   UNL     1       9.088  11.735  17.844  0.00  0.00    +0.000 A 
ATOM     14  C   UNL     1       9.871  12.646  18.547  0.00  0.00    +0.000 A 
ATOM     15  C   UNL     1      10.358  12.301  19.801  0.00  0.00    +0.000 A 
ATOM     16  C   UNL     1      10.049  11.043  20.297  0.00  0.00    +0.000 A 
ATOM     17  N   UNL     1       9.294  10.135  19.635  0.00  0.00    +0.000 NA
ENDBRANCH  11  12
ENDBRANCH   9  11
ENDBRANCH   4   7
BRANCH   1  18
ATOM     18  S   UNL     1       3.423   4.221  18.271  0.00  0.00    +0.000 S 
ATOM     19  O   UNL     1       3.096   3.182  19.226  0.00  0.00    +0.000 OA
ATOM     20  O   UNL     1       3.032   4.115  16.881  0.00  0.00    +0.000 OA
BRANCH  18  24
ATOM     21  C   UNL     1       1.729   8.196  19.840  0.00  0.00    +0.000 A 
ATOM     22  C   UNL     1       1.735   7.053  20.657  0.00  0.00    +0.000 A 
ATOM     23  C   UNL     1       2.269   5.845  20.205  0.00  0.00    +0.000 A 
ATOM     24  C   UNL     1       2.726   5.743  18.896  0.00  0.00    +0.000 A 
ATOM     25  C   UNL     1       2.660   6.856  18.051  0.00  0.00    +0.000 A 
ATOM     26  C   UNL     1       2.166   8.087  18.510  0.00  0.00    +0.000 A 
BRANCH  21  28
ATOM     27  C   UNL     1      -0.127   9.552  20.421  0.00  0.00    +0.000 C 
ATOM     28  O   UNL     1       1.289   9.403  20.315  0.00  0.00    +0.000 OA
ENDBRANCH  21  28
BRANCH  26  29
ATOM     29  O   UNL     1       2.213   9.047  17.535  0.00  0.00    +0.000 OA
ATOM     30  C   UNL     1       2.289  10.415  17.900  0.00  0.00    +0.000 C 
ENDBRANCH  26  29
ENDBRANCH  18  24
ENDBRANCH   1  18
TORSDOF 7
ENDMDL
MODEL 5
REMARK VINA RESULT:      -7.2      5.137     10.158
REMARK  Name = 
REMARK  9 active torsions:
REMARK  status: ('A' for Active; 'I' for Inactive)
REMARK    1  A    between atoms: C_1  and  O_2
REMARK    2  A    between atoms: O_2  and  C_3
REMARK    3  A    between atoms: C_6  and  S_7
REMARK    4  A    between atoms: S_7  and  N_10
REMARK    5  A    between atoms: C_13  and  C_14
REMARK    6  A    between atoms: N_16  and  C_17
REMARK    7  A    between atoms: C_17  and  C_18
REMARK    8  A    between atoms: C_27  and  O_28
REMARK    9  A    between atoms: O_28  and  C_29
REMARK                            x       y       z     vdW  Elec       q    Type
REMARK                         _______ _______ _______ _____ _____    ______ ____
ROOT
ATOM      1  N   UNL     1       0.485  10.176  20.045  0.00  0.00    +0.000 NA
ATOM      2  C   UNL     1      -0.831  10.111  19.366  0.00  0.00    +0.000 C 
ATOM      3  C   UNL     1      -0.971  11.156  18.264  0.00  0.00    +0.000 C 
ATOM      4  C   UNL     1      -0.594  12.558  18.748  0.00  0.00    +0.000 C 
ATOM      5  C   UNL     1       0.852  12.507  19.241  0.00  0.00    +0.000 C 
ATOM      6  C   UNL     1       1.025  11.513  20.380  0.00  0.00    +0.000 C 
ENDROOT
BRANCH   4   7
ATOM      7  C   UNL     1      -1.572  13.074  19.810  0.00  0.00    +0.000 C 
ATOM      8  O   UNL     1      -1.212  13.705  20.801  0.00  0.00    +0.000 OA
ATOM      9  N   UNL     1      -2.891  12.771  19.576  0.00  0.00    +0.000 N 
ATOM     10  H   UNL     1      -3.136  12.085  18.875  0.00  0.00    +0.000 HD
BRANCH   9  11
ATOM     11  C   UNL     1      -3.938  13.160  20.502  0.00  0.00    +0.000 C 
BRANCH  11  12
ATOM     12  C   UNL     1      -5.221  12.377  20.316  0.00  0.00    +0.000 A 
ATOM     13  C   UNL     1      -5.533  11.819  19.080  0.00  0.00    +0.000 A 
ATOM     14  C   UNL     1      -6.698  11.069  18.949  0.00  0.00    +0.000 A 
ATOM     15  C   UNL     1      -7.527  10.901  20.051  0.00  0.00    +0.000 A 
ATOM     16  C   UNL     1      -7.159  11.507  21.242  0.00  0.00    +0.000 A 
ATOM     17  N   UNL     1      -6.035  12.246  21.398  0.00  0.00    +0.000 NA
ENDBRANCH  11  12
ENDBRANCH   9  11
ENDBRANCH   4   7
BRANCH   1  18
ATOM     18  S   UNL     1       0.768   8.974  21.237  0.00  0.00    +0.000 S 
ATOM     19  O   UNL     1      -0.534   8.477  21.633  0.00  0.00    +0.000 OA
ATOM     20  O   UNL     1       1.702   9.495  22.213  0.00  0.00    +0.000 OA
BRANCH  18  24
ATOM     21  C   UNL     1       2.962   5.529  19.127  0.00  0.00    +0.000 A 
ATOM     22  C   UNL     1       2.877   6.795  18.523  0.00  0.00    +0.000 A 
ATOM     23  C   UNL     1       2.235   7.858  19.162  0.00  0.00    +0.000 A 
ATOM     24  C   UNL     1       1.597   7.644  20.378  0.00  0.00    +0.000 A 
ATOM     25  C   UNL     1       1.616   6.371  20.955  0.00  0.00    +0.000 A 
ATOM     26  C   UNL     1       2.294   5.306  20.342  0.00  0.00    +0.000 A 
BRANCH  21  28
ATOM     27  C   UNL     1       4.052   4.722  17.183  0.00  0.00    +0.000 C 
ATOM     28  O   UNL     1       3.668   4.512  18.542  0.00  0.00    +0.000 OA
ENDBRANCH  21  28
BRANCH  26  29
ATOM     29  O   UNL     1       2.210   4.159  21.084  0.00  0.00    +0.000 OA
ATOM     30  C   UNL     1       1.223   3.191  20.768  0.00  0.00    +0.000 C 
ENDBRANCH  26  29
ENDBRANCH  18  24
ENDBRANCH   1  18
TORSDOF 7
ENDMDL
MODEL 6
REMARK VINA RESULT:      -7.2      3.125      5.101
REMARK  Name = 
REMARK  9 active torsions:
REMARK  status: ('A' for Active; 'I' for Inactive)
REMARK    1  A    between atoms: C_1  and  O_2
REMARK    2  A    between atoms: O_2  and  C_3
REMARK    3  A    between atoms: C_6  and  S_7
REMARK    4  A    between atoms: S_7  and  N_10
REMARK    5  A    between atoms: C_13  and  C_14
REMARK    6  A    between atoms: N_16  and  C_17
REMARK    7  A    between atoms: C_17  and  C_18
REMARK    8  A    between atoms: C_27  and  O_28
REMARK    9  A    between atoms: O_28  and  C_29
REMARK                            x       y       z     vdW  Elec       q    Type
REMARK                         _______ _______ _______ _____ _____    ______ ____
ROOT
ATOM      1  N   UNL     1       4.576   6.304  18.845  0.00  0.00    +0.000 NA
ATOM      2  C   UNL     1       5.444   5.296  19.500  0.00  0.00    +0.000 C 
ATOM      3  C   UNL     1       6.921   5.672  19.442  0.00  0.00    +0.000 C 
ATOM      4  C   UNL     1       7.366   6.043  18.026  0.00  0.00    +0.000 C 
ATOM      5  C   UNL     1       6.507   7.220  17.561  0.00  0.00    +0.000 C 
ATOM      6  C   UNL     1       5.026   6.868  17.552  0.00  0.00    +0.000 C 
ENDROOT
BRANCH   4   7
ATOM      7  C   UNL     1       7.300   4.840  17.076  0.00  0.00    +0.000 C 
ATOM      8  O   UNL     1       8.198   4.006  16.989  0.00  0.00    +0.000 OA
ATOM      9  N   UNL     1       6.159   4.767  16.317  0.00  0.00    +0.000 N 
ATOM     10  H   UNL     1       5.538   5.563  16.256  0.00  0.00    +0.000 HD
BRANCH   9  11
ATOM     11  C   UNL     1       5.955   3.707  15.347  0.00  0.00    +0.000 C 
BRANCH  11  12
ATOM     12  C   UNL     1       6.506   4.038  13.976  0.00  0.00    +0.000 A 
ATOM     13  C   UNL     1       6.149   3.273  12.869  0.00  0.00    +0.000 A 
ATOM     14  C   UNL     1       6.636   3.626  11.615  0.00  0.00    +0.000 A 
ATOM     15  C   UNL     1       7.475   4.727  11.495  0.00  0.00    +0.000 A 
ATOM     16  C   UNL     1       7.803   5.425  12.646  0.00  0.00    +0.000 A 
ATOM     17  N   UNL     1       7.348   5.103  13.881  0.00  0.00    +0.000 NA
ENDBRANCH  11  12
ENDBRANCH   9  11
ENDBRANCH   4   7
BRANCH   1  18
ATOM     18  S   UNL     1       2.888   6.010  18.944  0.00  0.00    +0.000 S 
ATOM     19  O   UNL     1       2.653   5.404  20.238  0.00  0.00    +0.000 OA
ATOM     20  O   UNL     1       2.453   5.366  17.722  0.00  0.00    +0.000 OA
BRANCH  18  24
ATOM     21  C   UNL     1       0.843  10.125  19.088  0.00  0.00    +0.000 A 
ATOM     22  C   UNL     1       1.421   9.659  17.895  0.00  0.00    +0.000 A 
ATOM     23  C   UNL     1       2.024   8.401  17.828  0.00  0.00    +0.000 A 
ATOM     24  C   UNL     1       2.131   7.628  18.979  0.00  0.00    +0.000 A 
ATOM     25  C   UNL     1       1.620   8.112  20.187  0.00  0.00    +0.000 A 
ATOM     26  C   UNL     1       0.973   9.356  20.256  0.00  0.00    +0.000 A 
BRANCH  21  28
ATOM     27  C   UNL     1      -1.252  11.233  19.086  0.00  0.00    +0.000 C 
ATOM     28  O   UNL     1       0.172  11.318  19.130  0.00  0.00    +0.000 OA
ENDBRANCH  21  28
BRANCH  26  29
ATOM     29  O   UNL     1       0.527   9.626  21.522  0.00  0.00    +0.000 OA
ATOM     30  C   UNL     1      -0.234   8.653  22.220  0.00  0.00    +0.000 C 
ENDBRANCH  26  29
ENDBRANCH  18  24
ENDBRANCH   1  18
TORSDOF 7
ENDMDL
MODEL 7
REMARK VINA RESULT:      -7.2      3.563      7.406
REMARK  Name = 
REMARK  9 active torsions:
REMARK  status: ('A' for Active; 'I' for Inactive)
REMARK    1  A    between atoms: C_1  and  O_2
REMARK    2  A    between atoms: O_2  and  C_3
REMARK    3  A    between atoms: C_6  and  S_7
REMARK    4  A    between atoms: S_7  and  N_10
REMARK    5  A    between atoms: C_13  and  C_14
REMARK    6  A    between atoms: N_16  and  C_17
REMARK    7  A    between atoms: C_17  and  C_18
REMARK    8  A    between atoms: C_27  and  O_28
REMARK    9  A    between atoms: O_28  and  C_29
REMARK                            x       y       z     vdW  Elec       q    Type
REMARK                         _______ _______ _______ _____ _____    ______ ____
ROOT
ATOM      1  N   UNL     1       2.855   2.713  19.603  0.00  0.00    +0.000 NA
ATOM      2  C   UNL     1       2.993   3.212  20.992  0.00  0.00    +0.000 C 
ATOM      3  C   UNL     1       1.659   3.637  21.595  0.00  0.00    +0.000 C 
ATOM      4  C   UNL     1       0.885   4.582  20.674  0.00  0.00    +0.000 C 
ATOM      5  C   UNL     1       0.653   3.855  19.349  0.00  0.00    +0.000 C 
ATOM      6  C   UNL     1       1.965   3.460  18.686  0.00  0.00    +0.000 C 
ENDROOT
BRANCH   4   7
ATOM      7  C   UNL     1       1.605   5.925  20.503  0.00  0.00    +0.000 C 
ATOM      8  O   UNL     1       2.670   6.041  19.901  0.00  0.00    +0.000 OA
ATOM      9  N   UNL     1       0.972   6.996  21.083  0.00  0.00    +0.000 N 
ATOM     10  H   UNL     1       0.218   6.845  21.739  0.00  0.00    +0.000 HD
BRANCH   9  11
ATOM     11  C   UNL     1       1.539   8.332  21.039  0.00  0.00    +0.000 C 
BRANCH  11  12
ATOM     12  C   UNL     1       0.598   9.398  21.558  0.00  0.00    +0.000 A 
ATOM     13  C   UNL     1       0.289  10.507  20.775  0.00  0.00    +0.000 A 
ATOM     14  C   UNL     1      -0.612  11.450  21.261  0.00  0.00    +0.000 A 
ATOM     15  C   UNL     1      -1.176  11.269  22.517  0.00  0.00    +0.000 A 
ATOM     16  C   UNL     1      -0.801  10.151  23.245  0.00  0.00    +0.000 A 
ATOM     17  N   UNL     1       0.076   9.220  22.802  0.00  0.00    +0.000 NA
ENDBRANCH  11  12
ENDBRANCH   9  11
ENDBRANCH   4   7
BRANCH   1  18
ATOM     18  S   UNL     1       4.294   2.124  18.877  0.00  0.00    +0.000 S 
ATOM     19  O   UNL     1       3.882   1.319  17.746  0.00  0.00    +0.000 OA
ATOM     20  O   UNL     1       5.153   1.585  19.910  0.00  0.00    +0.000 OA
BRANCH  18  24
ATOM     21  C   UNL     1       6.458   5.772  17.102  0.00  0.00    +0.000 A 
ATOM     22  C   UNL     1       6.434   5.565  18.492  0.00  0.00    +0.000 A 
ATOM     23  C   UNL     1       5.803   4.449  19.045  0.00  0.00    +0.000 A 
ATOM     24  C   UNL     1       5.113   3.570  18.218  0.00  0.00    +0.000 A 
ATOM     25  C   UNL     1       5.072   3.804  16.840  0.00  0.00    +0.000 A 
ATOM     26  C   UNL     1       5.741   4.898  16.269  0.00  0.00    +0.000 A 
BRANCH  21  28
ATOM     27  C   UNL     1       7.670   7.774  17.480  0.00  0.00    +0.000 C 
ATOM     28  O   UNL     1       7.155   6.816  16.555  0.00  0.00    +0.000 OA
ENDBRANCH  21  28
BRANCH  26  29
ATOM     29  O   UNL     1       5.594   4.927  14.909  0.00  0.00    +0.000 OA
ATOM     30  C   UNL     1       6.319   4.010  14.105  0.00  0.00    +0.000 C 
ENDBRANCH  26  29
ENDBRANCH  18  24
ENDBRANCH   1  18
TORSDOF 7
ENDMDL
MODEL 8
REMARK VINA RESULT:      -7.2      3.503      7.186
REMARK  Name = 
REMARK  9 active torsions:
REMARK  status: ('A' for Active; 'I' for Inactive)
REMARK    1  A    between atoms: C_1  and  O_2
REMARK    2  A    between atoms: O_2  and  C_3
REMARK    3  A    between atoms: C_6  and  S_7
REMARK    4  A    between atoms: S_7  and  N_10
REMARK    5  A    between atoms: C_13  and  C_14
REMARK    6  A    between atoms: N_16  and  C_17
REMARK    7  A    between atoms: C_17  and  C_18
REMARK    8  A    between atoms: C_27  and  O_28
REMARK    9  A    between atoms: O_28  and  C_29
REMARK                            x       y       z     vdW  Elec       q    Type
REMARK                         _______ _______ _______ _____ _____    ______ ____
ROOT
ATOM      1  N   UNL     1       2.868   2.650  19.655  0.00  0.00    +0.000 NA
ATOM      2  C   UNL     1       2.979   3.148  21.046  0.00  0.00    +0.000 C 
ATOM      3  C   UNL     1       1.629   3.553  21.630  0.00  0.00    +0.000 C 
ATOM      4  C   UNL     1       0.856   4.489  20.699  0.00  0.00    +0.000 C 
ATOM      5  C   UNL     1       0.654   3.761  19.369  0.00  0.00    +0.000 C 
ATOM      6  C   UNL     1       1.981   3.386  18.725  0.00  0.00    +0.000 C 
ENDROOT
BRANCH   4   7
ATOM      7  C   UNL     1       1.560   5.843  20.541  0.00  0.00    +0.000 C 
ATOM      8  O   UNL     1       2.564   5.998  19.849  0.00  0.00    +0.000 OA
ATOM      9  N   UNL     1       0.988   6.875  21.240  0.00  0.00    +0.000 N 
ATOM     10  H   UNL     1       0.298   6.683  21.954  0.00  0.00    +0.000 HD
BRANCH   9  11
ATOM     11  C   UNL     1       1.551   8.213  21.222  0.00  0.00    +0.000 C 
BRANCH  11  12
ATOM     12  C   UNL     1       0.862   9.139  20.243  0.00  0.00    +0.000 A 
ATOM     13  C   UNL     1       1.296   9.217  18.922  0.00  0.00    +0.000 A 
ATOM     14  C   UNL     1       0.617  10.045  18.034  0.00  0.00    +0.000 A 
ATOM     15  C   UNL     1      -0.472  10.780  18.484  0.00  0.00    +0.000 A 
ATOM     16  C   UNL     1      -0.829  10.665  19.818  0.00  0.00    +0.000 A 
ATOM     17  N   UNL     1      -0.185   9.872  20.707  0.00  0.00    +0.000 NA
ENDBRANCH  11  12
ENDBRANCH   9  11
ENDBRANCH   4   7
BRANCH   1  18
ATOM     18  S   UNL     1       4.326   2.082  18.948  0.00  0.00    +0.000 S 
ATOM     19  O   UNL     1       3.941   1.245  17.831  0.00  0.00    +0.000 OA
ATOM     20  O   UNL     1       5.190   1.584  19.998  0.00  0.00    +0.000 OA
BRANCH  18  24
ATOM     21  C   UNL     1       6.410   5.747  17.115  0.00  0.00    +0.000 A 
ATOM     22  C   UNL     1       6.425   5.541  18.505  0.00  0.00    +0.000 A 
ATOM     23  C   UNL     1       5.818   4.420  19.075  0.00  0.00    +0.000 A 
ATOM     24  C   UNL     1       5.114   3.534  18.267  0.00  0.00    +0.000 A 
ATOM     25  C   UNL     1       5.034   3.767  16.891  0.00  0.00    +0.000 A 
ATOM     26  C   UNL     1       5.677   4.867  16.302  0.00  0.00    +0.000 A 
BRANCH  21  28
ATOM     27  C   UNL     1       7.566   7.788  17.455  0.00  0.00    +0.000 C 
ATOM     28  O   UNL     1       7.082   6.797  16.549  0.00  0.00    +0.000 OA
ENDBRANCH  21  28
BRANCH  26  29
ATOM     29  O   UNL     1       5.494   4.894  14.946  0.00  0.00    +0.000 OA
ATOM     30  C   UNL     1       6.382   4.177  14.103  0.00  0.00    +0.000 C 
ENDBRANCH  26  29
ENDBRANCH  18  24
ENDBRANCH   1  18
TORSDOF 7
ENDMDL
MODEL 9
REMARK VINA RESULT:      -7.1      3.341      7.302
REMARK  Name = 
REMARK  9 active torsions:
REMARK  status: ('A' for Active; 'I' for Inactive)
REMARK    1  A    between atoms: C_1  and  O_2
REMARK    2  A    between atoms: O_2  and  C_3
REMARK    3  A    between atoms: C_6  and  S_7
REMARK    4  A    between atoms: S_7  and  N_10
REMARK    5  A    between atoms: C_13  and  C_14
REMARK    6  A    between atoms: N_16  and  C_17
REMARK    7  A    between atoms: C_17  and  C_18
REMARK    8  A    between atoms: C_27  and  O_28
REMARK    9  A    between atoms: O_28  and  C_29
REMARK                            x       y       z     vdW  Elec       q    Type
REMARK                         _______ _______ _______ _____ _____    ______ ____
ROOT
ATOM      1  N   UNL     1       3.000   3.147  19.344  0.00  0.00    +0.000 NA
ATOM      2  C   UNL     1       2.908   3.478  20.785  0.00  0.00    +0.000 C 
ATOM      3  C   UNL     1       1.506   3.917  21.194  0.00  0.00    +0.000 C 
ATOM      4  C   UNL     1       0.951   5.007  20.273  0.00  0.00    +0.000 C 
ATOM      5  C   UNL     1       0.931   4.448  18.850  0.00  0.00    +0.000 C 
ATOM      6  C   UNL     1       2.323   4.047  18.382  0.00  0.00    +0.000 C 
ENDROOT
BRANCH   4   7
ATOM      7  C   UNL     1       1.747   6.312  20.394  0.00  0.00    +0.000 C 
ATOM      8  O   UNL     1       2.809   6.504  19.807  0.00  0.00    +0.000 OA
ATOM      9  N   UNL     1       1.186   7.255  21.218  0.00  0.00    +0.000 N 
ATOM     10  H   UNL     1       0.431   7.000  21.841  0.00  0.00    +0.000 HD
BRANCH   9  11
ATOM     11  C   UNL     1       1.829   8.532  21.464  0.00  0.00    +0.000 C 
BRANCH  11  12
ATOM     12  C   UNL     1       0.857   9.629  21.844  0.00  0.00    +0.000 A 
ATOM     13  C   UNL     1      -0.117   9.403  22.813  0.00  0.00    +0.000 A 
ATOM     14  C   UNL     1      -0.969  10.443  23.172  0.00  0.00    +0.000 A 
ATOM     15  C   UNL     1      -0.837  11.678  22.551  0.00  0.00    +0.000 A 
ATOM     16  C   UNL     1       0.142  11.818  21.580  0.00  0.00    +0.000 A 
ATOM     17  N   UNL     1       0.983  10.824  21.206  0.00  0.00    +0.000 NA
ENDBRANCH  11  12
ENDBRANCH   9  11
ENDBRANCH   4   7
BRANCH   1  18
ATOM     18  S   UNL     1       4.521   2.553  18.813  0.00  0.00    +0.000 S 
ATOM     19  O   UNL     1       4.255   1.732  17.649  0.00  0.00    +0.000 OA
ATOM     20  O   UNL     1       5.242   2.029  19.953  0.00  0.00    +0.000 OA
BRANCH  18  24
ATOM     21  C   UNL     1       6.888   6.183  17.279  0.00  0.00    +0.000 A 
ATOM     22  C   UNL     1       6.693   5.992  18.657  0.00  0.00    +0.000 A 
ATOM     23  C   UNL     1       5.998   4.881  19.140  0.00  0.00    +0.000 A 
ATOM     24  C   UNL     1       5.415   3.992  18.244  0.00  0.00    +0.000 A 
ATOM     25  C   UNL     1       5.545   4.211  16.869  0.00  0.00    +0.000 A 
ATOM     26  C   UNL     1       6.278   5.300  16.373  0.00  0.00    +0.000 A 
BRANCH  21  28
ATOM     27  C   UNL     1       7.727   8.368  17.659  0.00  0.00    +0.000 C 
ATOM     28  O   UNL     1       7.647   7.222  16.810  0.00  0.00    +0.000 OA
ENDBRANCH  21  28
BRANCH  26  29
ATOM     29  O   UNL     1       6.301   5.314  15.005  0.00  0.00    +0.000 OA
ATOM     30  C   UNL     1       6.107   4.106  14.287  0.00  0.00    +0.000 C 
ENDBRANCH  26  29
ENDBRANCH  18  24
ENDBRANCH   1  18
TORSDOF 7
ENDMDL
