MODEL 1
REMARK VINA RESULT:      -6.6      0.000      0.000
REMARK  Name = 
REMARK  11 active torsions:
REMARK  status: ('A' for Active; 'I' for Inactive)
REMARK    1  A    between atoms: C_2  and  O_3
REMARK    2  A    between atoms: C_2  and  C_4
REMARK    3  A    between atoms: C_7  and  O_8
REMARK    4  A    between atoms: O_8  and  C_9
REMARK    5  A    between atoms: C_9  and  C_10
REMARK    6  A    between atoms: C_10  and  C_11
REMARK    7  A    between atoms: C_11  and  C_12
REMARK    8  A    between atoms: C_12  and  C_13
REMARK    9  A    between atoms: C_13  and  C_14
REMARK   10  A    between atoms: C_14  and  O_15
REMARK   11  A    between atoms: O_15  and  C_16
REMARK                            x       y       z     vdW  Elec       q    Type
REMARK                         _______ _______ _______ _____ _____    ______ ____
ROOT
ATOM      1  C   UNL     1       2.059   5.102  20.804  0.00  0.00    +0.000 C 
ENDROOT
BRANCH   1   2
ATOM      2  O   UNL     1       2.884   5.832  19.895  0.00  0.00    +0.000 OA
BRANCH   2   6
ATOM      3  C   UNL     1       1.152   9.515  18.976  0.00  0.00    +0.000 A 
ATOM      4  C   UNL     1       1.078   8.967  20.260  0.00  0.00    +0.000 A 
ATOM      5  C   UNL     1       1.682   7.738  20.536  0.00  0.00    +0.000 A 
ATOM      6  C   UNL     1       2.364   7.048  19.529  0.00  0.00    +0.000 A 
ATOM      7  C   UNL     1       2.483   7.627  18.259  0.00  0.00    +0.000 A 
ATOM      8  C   UNL     1       1.886   8.860  17.982  0.00  0.00    +0.000 A 
BRANCH   3  10
ATOM      9  O   UNL     1       1.083  11.864  18.625  0.00  0.00    +0.000 OA
ATOM     10  C   UNL     1       0.482  10.812  18.712  0.00  0.00    +0.000 C 
BRANCH  10  11
ATOM     11  O   UNL     1      -0.865  10.713  18.631  0.00  0.00    +0.000 OA
ATOM     12  H   UNL     1      -1.336  11.562  18.523  0.00  0.00    +0.000 HD
ENDBRANCH  10  11
ENDBRANCH   3  10
ENDBRANCH   2   6
ENDBRANCH   1   2
BRANCH   1  13
ATOM     13  C   UNL     1       1.278   4.010  20.079  0.00  0.00    +0.000 C 
BRANCH  13  14
ATOM     14  C   UNL     1       2.190   2.845  19.665  0.00  0.00    +0.000 C 
BRANCH  14  15
ATOM     15  C   UNL     1       2.047   2.497  18.178  0.00  0.00    +0.000 C 
BRANCH  15  16
ATOM     16  C   UNL     1       2.428   3.653  17.253  0.00  0.00    +0.000 C 
BRANCH  16  17
ATOM     17  C   UNL     1       3.946   3.736  17.059  0.00  0.00    +0.000 C 
BRANCH  17  18
ATOM     18  O   UNL     1       4.365   5.105  17.030  0.00  0.00    +0.000 OA
BRANCH  18  19
ATOM     19  C   UNL     1       5.445   5.287  16.104  0.00  0.00    +0.000 C 
ATOM     20  C   UNL     1       6.632   4.395  16.467  0.00  0.00    +0.000 C 
ATOM     21  C   UNL     1       7.385   4.879  17.702  0.00  0.00    +0.000 C 
ATOM     22  C   UNL     1       7.594   6.389  17.711  0.00  0.00    +0.000 C 
ATOM     23  C   UNL     1       6.363   7.151  17.244  0.00  0.00    +0.000 C 
ATOM     24  O   UNL     1       5.868   6.648  16.007  0.00  0.00    +0.000 OA
ENDBRANCH  18  19
ENDBRANCH  17  18
ENDBRANCH  16  17
ENDBRANCH  15  16
ENDBRANCH  14  15
ENDBRANCH  13  14
ENDBRANCH   1  13
TORSDOF 11
ENDMDL
MODEL 2
REMARK VINA RESULT:      -6.5      4.146      6.820
REMARK  Name = 
REMARK  11 active torsions:
REMARK  status: ('A' for Active; 'I' for Inactive)
REMARK    1  A    between atoms: C_2  and  O_3
REMARK    2  A    between atoms: C_2  and  C_4
REMARK    3  A    between atoms: C_7  and  O_8
REMARK    4  A    between atoms: O_8  and  C_9
REMARK    5  A    between atoms: C_9  and  C_10
REMARK    6  A    between atoms: C_10  and  C_11
REMARK    7  A    between atoms: C_11  and  C_12
REMARK    8  A    between atoms: C_12  and  C_13
REMARK    9  A    between atoms: C_13  and  C_14
REMARK   10  A    between atoms: C_14  and  O_15
REMARK   11  A    between atoms: O_15  and  C_16
REMARK                            x       y       z     vdW  Elec       q    Type
REMARK                         _______ _______ _______ _____ _____    ______ ____
ROOT
ATOM      1  C   UNL     1       4.946   6.154  16.491  0.00  0.00    +0.000 C 
ENDROOT
BRANCH   1   2
ATOM      2  O   UNL     1       4.028   6.883  17.306  0.00  0.00    +0.000 OA
BRANCH   2   6
ATOM      3  C   UNL     1       2.297   4.402  20.179  0.00  0.00    +0.000 A 
ATOM      4  C   UNL     1       3.107   3.893  19.159  0.00  0.00    +0.000 A 
ATOM      5  C   UNL     1       3.681   4.755  18.222  0.00  0.00    +0.000 A 
ATOM      6  C   UNL     1       3.451   6.132  18.299  0.00  0.00    +0.000 A 
ATOM      7  C   UNL     1       2.685   6.642  19.355  0.00  0.00    +0.000 A 
ATOM      8  C   UNL     1       2.114   5.783  20.298  0.00  0.00    +0.000 A 
BRANCH   3  10
ATOM      9  O   UNL     1       2.171   3.210  22.231  0.00  0.00    +0.000 OA
ATOM     10  C   UNL     1       1.686   3.455  21.145  0.00  0.00    +0.000 C 
BRANCH  10  11
ATOM     11  O   UNL     1       0.567   2.858  20.675  0.00  0.00    +0.000 OA
ATOM     12  H   UNL     1      -0.178   2.819  21.307  0.00  0.00    +0.000 HD
ENDBRANCH  10  11
ENDBRANCH   3  10
ENDBRANCH   2   6
ENDBRANCH   1   2
BRANCH   1  13
ATOM     13  C   UNL     1       6.339   6.775  16.543  0.00  0.00    +0.000 C 
BRANCH  13  14
ATOM     14  C   UNL     1       7.217   6.101  17.608  0.00  0.00    +0.000 C 
BRANCH  14  15
ATOM     15  C   UNL     1       8.027   7.118  18.422  0.00  0.00    +0.000 C 
BRANCH  15  16
ATOM     16  C   UNL     1       8.020   8.518  17.808  0.00  0.00    +0.000 C 
BRANCH  16  17
ATOM     17  C   UNL     1       8.735   9.528  18.711  0.00  0.00    +0.000 C 
BRANCH  17  18
ATOM     18  O   UNL     1       9.375  10.534  17.918  0.00  0.00    +0.000 OA
BRANCH  18  19
ATOM     19  C   UNL     1       9.501  11.759  18.654  0.00  0.00    +0.000 C 
ATOM     20  C   UNL     1       9.673  12.948  17.709  0.00  0.00    +0.000 C 
ATOM     21  C   UNL     1      11.052  12.998  17.059  0.00  0.00    +0.000 C 
ATOM     22  C   UNL     1      12.178  12.694  18.042  0.00  0.00    +0.000 C 
ATOM     23  C   UNL     1      11.838  11.546  18.980  0.00  0.00    +0.000 C 
ATOM     24  O   UNL     1      10.569  11.728  19.601  0.00  0.00    +0.000 OA
ENDBRANCH  18  19
ENDBRANCH  17  18
ENDBRANCH  16  17
ENDBRANCH  15  16
ENDBRANCH  14  15
ENDBRANCH  13  14
ENDBRANCH   1  13
TORSDOF 11
ENDMDL
MODEL 3
REMARK VINA RESULT:      -6.5      1.473      1.911
REMARK  Name = 
REMARK  11 active torsions:
REMARK  status: ('A' for Active; 'I' for Inactive)
REMARK    1  A    between atoms: C_2  and  O_3
REMARK    2  A    between atoms: C_2  and  C_4
REMARK    3  A    between atoms: C_7  and  O_8
REMARK    4  A    between atoms: O_8  and  C_9
REMARK    5  A    between atoms: C_9  and  C_10
REMARK    6  A    between atoms: C_10  and  C_11
REMARK    7  A    between atoms: C_11  and  C_12
REMARK    8  A    between atoms: C_12  and  C_13
REMARK    9  A    between atoms: C_13  and  C_14
REMARK   10  A    between atoms: C_14  and  O_15
REMARK   11  A    between atoms: O_15  and  C_16
REMARK                            x       y       z     vdW  Elec       q    Type
REMARK                         _______ _______ _______ _____ _____    ______ ____
ROOT
ATOM      1  C   UNL     1       1.233   4.242  20.628  0.00  0.00    +0.000 C 
ENDROOT
BRANCH   1   2
ATOM      2  O   UNL     1       2.427   4.979  20.367  0.00  0.00    +0.000 OA
BRANCH   2   6
ATOM      3  C   UNL     1       1.614   8.784  18.859  0.00  0.00    +0.000 A 
ATOM      4  C   UNL     1       1.475   8.485  20.218  0.00  0.00    +0.000 A 
ATOM      5  C   UNL     1       1.770   7.204  20.690  0.00  0.00    +0.000 A 
ATOM      6  C   UNL     1       2.206   6.212  19.807  0.00  0.00    +0.000 A 
ATOM      7  C   UNL     1       2.396   6.531  18.456  0.00  0.00    +0.000 A 
ATOM      8  C   UNL     1       2.108   7.814  17.982  0.00  0.00    +0.000 A 
BRANCH   3  10
ATOM      9  O   UNL     1       0.311  10.769  18.796  0.00  0.00    +0.000 OA
ATOM     10  C   UNL     1       1.272  10.149  18.388  0.00  0.00    +0.000 C 
BRANCH  10  11
ATOM     11  O   UNL     1       2.104  10.608  17.426  0.00  0.00    +0.000 OA
ATOM     12  H   UNL     1       2.983  10.897  17.742  0.00  0.00    +0.000 HD
ENDBRANCH  10  11
ENDBRANCH   3  10
ENDBRANCH   2   6
ENDBRANCH   1   2
BRANCH   1  13
ATOM     13  C   UNL     1       0.829   3.404  19.419  0.00  0.00    +0.000 C 
BRANCH  13  14
ATOM     14  C   UNL     1       1.993   2.532  18.924  0.00  0.00    +0.000 C 
BRANCH  14  15
ATOM     15  C   UNL     1       2.448   2.917  17.510  0.00  0.00    +0.000 C 
BRANCH  15  16
ATOM     16  C   UNL     1       3.969   2.947  17.357  0.00  0.00    +0.000 C 
BRANCH  16  17
ATOM     17  C   UNL     1       4.661   3.187  18.703  0.00  0.00    +0.000 C 
BRANCH  17  18
ATOM     18  O   UNL     1       5.855   3.954  18.515  0.00  0.00    +0.000 OA
BRANCH  18  19
ATOM     19  C   UNL     1       5.753   5.224  19.174  0.00  0.00    +0.000 C 
ATOM     20  C   UNL     1       5.494   6.343  18.166  0.00  0.00    +0.000 C 
ATOM     21  C   UNL     1       6.721   6.685  17.327  0.00  0.00    +0.000 C 
ATOM     22  C   UNL     1       8.001   6.746  18.153  0.00  0.00    +0.000 C 
ATOM     23  C   UNL     1       8.089   5.625  19.177  0.00  0.00    +0.000 C 
ATOM     24  O   UNL     1       6.904   5.532  19.962  0.00  0.00    +0.000 OA
ENDBRANCH  18  19
ENDBRANCH  17  18
ENDBRANCH  16  17
ENDBRANCH  15  16
ENDBRANCH  14  15
ENDBRANCH  13  14
ENDBRANCH   1  13
TORSDOF 11
ENDMDL
MODEL 4
REMARK VINA RESULT:      -6.4      0.913      1.141
REMARK  Name = 
REMARK  11 active torsions:
REMARK  status: ('A' for Active; 'I' for Inactive)
REMARK    1  A    between atoms: C_2  and  O_3
REMARK    2  A    between atoms: C_2  and  C_4
REMARK    3  A    between atoms: C_7  and  O_8
REMARK    4  A    between atoms: O_8  and  C_9
REMARK    5  A    between atoms: C_9  and  C_10
REMARK    6  A    between atoms: C_10  and  C_11
REMARK    7  A    between atoms: C_11  and  C_12
REMARK    8  A    between atoms: C_12  and  C_13
REMARK    9  A    between atoms: C_13  and  C_14
REMARK   10  A    between atoms: C_14  and  O_15
REMARK   11  A    between atoms: O_15  and  C_16
REMARK                            x       y       z     vdW  Elec       q    Type
REMARK                         _______ _______ _______ _____ _____    ______ ____
ROOT
ATOM      1  C   UNL     1       1.541   4.947  20.684  0.00  0.00    +0.000 C 
ENDROOT
BRANCH   1   2
ATOM      2  O   UNL     1       2.505   5.735  19.986  0.00  0.00    +0.000 OA
BRANCH   2   6
ATOM      3  C   UNL     1       1.100   9.622  19.417  0.00  0.00    +0.000 A 
ATOM      4  C   UNL     1       0.943   8.953  20.635  0.00  0.00    +0.000 A 
ATOM      5  C   UNL     1       1.438   7.657  20.794  0.00  0.00    +0.000 A 
ATOM      6  C   UNL     1       2.095   7.020  19.737  0.00  0.00    +0.000 A 
ATOM      7  C   UNL     1       2.298   7.715  18.537  0.00  0.00    +0.000 A 
ATOM      8  C   UNL     1       1.809   9.014  18.377  0.00  0.00    +0.000 A 
BRANCH   3  10
ATOM      9  O   UNL     1       0.139  11.642  20.218  0.00  0.00    +0.000 OA
ATOM     10  C   UNL     1       0.542  10.990  19.276  0.00  0.00    +0.000 C 
BRANCH  10  11
ATOM     11  O   UNL     1       0.482  11.414  17.993  0.00  0.00    +0.000 OA
ATOM     12  H   UNL     1       0.887  10.813  17.339  0.00  0.00    +0.000 HD
ENDBRANCH  10  11
ENDBRANCH   3  10
ENDBRANCH   2   6
ENDBRANCH   1   2
BRANCH   1  13
ATOM     13  C   UNL     1       1.516   3.515  20.157  0.00  0.00    +0.000 C 
BRANCH  13  14
ATOM     14  C   UNL     1       1.162   3.471  18.662  0.00  0.00    +0.000 C 
BRANCH  14  15
ATOM     15  C   UNL     1       2.184   2.668  17.847  0.00  0.00    +0.000 C 
BRANCH  15  16
ATOM     16  C   UNL     1       3.377   3.507  17.389  0.00  0.00    +0.000 C 
BRANCH  16  17
ATOM     17  C   UNL     1       4.553   3.385  18.362  0.00  0.00    +0.000 C 
BRANCH  17  18
ATOM     18  O   UNL     1       5.275   4.620  18.424  0.00  0.00    +0.000 OA
BRANCH  18  19
ATOM     19  C   UNL     1       6.335   4.639  17.458  0.00  0.00    +0.000 C 
ATOM     20  C   UNL     1       7.682   4.901  18.132  0.00  0.00    +0.000 C 
ATOM     21  C   UNL     1       7.847   6.346  18.593  0.00  0.00    +0.000 C 
ATOM     22  C   UNL     1       7.353   7.354  17.561  0.00  0.00    +0.000 C 
ATOM     23  C   UNL     1       6.049   6.926  16.906  0.00  0.00    +0.000 C 
ATOM     24  O   UNL     1       6.117   5.590  16.415  0.00  0.00    +0.000 OA
ENDBRANCH  18  19
ENDBRANCH  17  18
ENDBRANCH  16  17
ENDBRANCH  15  16
ENDBRANCH  14  15
ENDBRANCH  13  14
ENDBRANCH   1  13
TORSDOF 11
ENDMDL
MODEL 5
REMARK VINA RESULT:      -6.4      3.441      7.681
REMARK  Name = 
REMARK  11 active torsions:
REMARK  status: ('A' for Active; 'I' for Inactive)
REMARK    1  A    between atoms: C_2  and  O_3
REMARK    2  A    between atoms: C_2  and  C_4
REMARK    3  A    between atoms: C_7  and  O_8
REMARK    4  A    between atoms: O_8  and  C_9
REMARK    5  A    between atoms: C_9  and  C_10
REMARK    6  A    between atoms: C_10  and  C_11
REMARK    7  A    between atoms: C_11  and  C_12
REMARK    8  A    between atoms: C_12  and  C_13
REMARK    9  A    between atoms: C_13  and  C_14
REMARK   10  A    between atoms: C_14  and  O_15
REMARK   11  A    between atoms: O_15  and  C_16
REMARK                            x       y       z     vdW  Elec       q    Type
REMARK                         _______ _______ _______ _____ _____    ______ ____
ROOT
ATOM      1  C   UNL     1       6.801   6.632  16.544  0.00  0.00    +0.000 C 
ENDROOT
BRANCH   1   2
ATOM      2  O   UNL     1       7.674   5.987  15.616  0.00  0.00    +0.000 OA
BRANCH   2   6
ATOM      3  C   UNL     1       5.833   3.529  12.792  0.00  0.00    +0.000 A 
ATOM      4  C   UNL     1       7.009   4.229  12.504  0.00  0.00    +0.000 A 
ATOM      5  C   UNL     1       7.606   5.032  13.479  0.00  0.00    +0.000 A 
ATOM      6  C   UNL     1       7.031   5.141  14.748  0.00  0.00    +0.000 A 
ATOM      7  C   UNL     1       5.884   4.395  15.049  0.00  0.00    +0.000 A 
ATOM      8  C   UNL     1       5.288   3.586  14.078  0.00  0.00    +0.000 A 
BRANCH   3  10
ATOM      9  O   UNL     1       5.735   1.700  11.279  0.00  0.00    +0.000 OA
ATOM     10  C   UNL     1       5.215   2.702  11.726  0.00  0.00    +0.000 C 
BRANCH  10  11
ATOM     11  O   UNL     1       4.044   3.203  11.270  0.00  0.00    +0.000 OA
ATOM     12  H   UNL     1       3.720   3.994  11.744  0.00  0.00    +0.000 HD
ENDBRANCH  10  11
ENDBRANCH   3  10
ENDBRANCH   2   6
ENDBRANCH   1   2
BRANCH   1  13
ATOM     13  C   UNL     1       7.554   7.056  17.802  0.00  0.00    +0.000 C 
BRANCH  13  14
ATOM     14  C   UNL     1       7.758   5.873  18.762  0.00  0.00    +0.000 C 
BRANCH  14  15
ATOM     15  C   UNL     1       6.459   5.470  19.470  0.00  0.00    +0.000 C 
BRANCH  15  16
ATOM     16  C   UNL     1       5.851   4.180  18.918  0.00  0.00    +0.000 C 
BRANCH  16  17
ATOM     17  C   UNL     1       4.355   4.087  19.235  0.00  0.00    +0.000 C 
BRANCH  17  18
ATOM     18  O   UNL     1       3.634   3.627  18.087  0.00  0.00    +0.000 OA
BRANCH  18  19
ATOM     19  C   UNL     1       2.387   4.325  17.956  0.00  0.00    +0.000 C 
ATOM     20  C   UNL     1       2.068   5.116  19.224  0.00  0.00    +0.000 C 
ATOM     21  C   UNL     1       1.644   4.227  20.390  0.00  0.00    +0.000 C 
ATOM     22  C   UNL     1       0.677   3.126  19.969  0.00  0.00    +0.000 C 
ATOM     23  C   UNL     1       1.065   2.484  18.646  0.00  0.00    +0.000 C 
ATOM     24  O   UNL     1       1.299   3.458  17.633  0.00  0.00    +0.000 OA
ENDBRANCH  18  19
ENDBRANCH  17  18
ENDBRANCH  16  17
ENDBRANCH  15  16
ENDBRANCH  14  15
ENDBRANCH  13  14
ENDBRANCH   1  13
TORSDOF 11
ENDMDL
MODEL 6
REMARK VINA RESULT:      -6.4      2.884      7.524
REMARK  Name = 
REMARK  11 active torsions:
REMARK  status: ('A' for Active; 'I' for Inactive)
REMARK    1  A    between atoms: C_2  and  O_3
REMARK    2  A    between atoms: C_2  and  C_4
REMARK    3  A    between atoms: C_7  and  O_8
REMARK    4  A    between atoms: O_8  and  C_9
REMARK    5  A    between atoms: C_9  and  C_10
REMARK    6  A    between atoms: C_10  and  C_11
REMARK    7  A    between atoms: C_11  and  C_12
REMARK    8  A    between atoms: C_12  and  C_13
REMARK    9  A    between atoms: C_13  and  C_14
REMARK   10  A    between atoms: C_14  and  O_15
REMARK   11  A    between atoms: O_15  and  C_16
REMARK                            x       y       z     vdW  Elec       q    Type
REMARK                         _______ _______ _______ _____ _____    ______ ____
ROOT
ATOM      1  C   UNL     1       6.669   6.079  17.098  0.00  0.00    +0.000 C 
ENDROOT
BRANCH   1   2
ATOM      2  O   UNL     1       7.515   5.896  15.962  0.00  0.00    +0.000 OA
BRANCH   2   6
ATOM      3  C   UNL     1       6.022   3.477  12.907  0.00  0.00    +0.000 A 
ATOM      4  C   UNL     1       7.068   4.379  12.688  0.00  0.00    +0.000 A 
ATOM      5  C   UNL     1       7.553   5.163  13.738  0.00  0.00    +0.000 A 
ATOM      6  C   UNL     1       6.994   5.052  15.014  0.00  0.00    +0.000 A 
ATOM      7  C   UNL     1       5.983   4.109  15.242  0.00  0.00    +0.000 A 
ATOM      8  C   UNL     1       5.501   3.318  14.195  0.00  0.00    +0.000 A 
BRANCH   3  10
ATOM      9  O   UNL     1       6.158   1.782  11.249  0.00  0.00    +0.000 OA
ATOM     10  C   UNL     1       5.518   2.675  11.765  0.00  0.00    +0.000 C 
BRANCH  10  11
ATOM     11  O   UNL     1       4.302   3.072  11.326  0.00  0.00    +0.000 OA
ATOM     12  H   UNL     1       4.146   4.037  11.354  0.00  0.00    +0.000 HD
ENDBRANCH  10  11
ENDBRANCH   3  10
ENDBRANCH   2   6
ENDBRANCH   1   2
BRANCH   1  13
ATOM     13  C   UNL     1       5.582   7.111  16.813  0.00  0.00    +0.000 C 
BRANCH  13  14
ATOM     14  C   UNL     1       4.190   6.580  17.185  0.00  0.00    +0.000 C 
BRANCH  14  15
ATOM     15  C   UNL     1       3.280   7.679  17.749  0.00  0.00    +0.000 C 
BRANCH  15  16
ATOM     16  C   UNL     1       2.484   7.228  18.973  0.00  0.00    +0.000 C 
BRANCH  16  17
ATOM     17  C   UNL     1       3.098   5.977  19.609  0.00  0.00    +0.000 C 
BRANCH  17  18
ATOM     18  O   UNL     1       2.120   4.935  19.696  0.00  0.00    +0.000 OA
BRANCH  18  19
ATOM     19  C   UNL     1       2.726   3.699  20.096  0.00  0.00    +0.000 C 
ATOM     20  C   UNL     1       3.996   3.427  19.290  0.00  0.00    +0.000 C 
ATOM     21  C   UNL     1       3.711   3.017  17.848  0.00  0.00    +0.000 C 
ATOM     22  C   UNL     1       2.563   2.020  17.736  0.00  0.00    +0.000 C 
ATOM     23  C   UNL     1       1.402   2.361  18.657  0.00  0.00    +0.000 C 
ATOM     24  O   UNL     1       1.836   2.587  19.995  0.00  0.00    +0.000 OA
ENDBRANCH  18  19
ENDBRANCH  17  18
ENDBRANCH  16  17
ENDBRANCH  15  16
ENDBRANCH  14  15
ENDBRANCH  13  14
ENDBRANCH   1  13
TORSDOF 11
ENDMDL
MODEL 7
REMARK VINA RESULT:      -6.3      1.031      1.260
REMARK  Name = 
REMARK  11 active torsions:
REMARK  status: ('A' for Active; 'I' for Inactive)
REMARK    1  A    between atoms: C_2  and  O_3
REMARK    2  A    between atoms: C_2  and  C_4
REMARK    3  A    between atoms: C_7  and  O_8
REMARK    4  A    between atoms: O_8  and  C_9
REMARK    5  A    between atoms: C_9  and  C_10
REMARK    6  A    between atoms: C_10  and  C_11
REMARK    7  A    between atoms: C_11  and  C_12
REMARK    8  A    between atoms: C_12  and  C_13
REMARK    9  A    between atoms: C_13  and  C_14
REMARK   10  A    between atoms: C_14  and  O_15
REMARK   11  A    between atoms: O_15  and  C_16
REMARK                            x       y       z     vdW  Elec       q    Type
REMARK                         _______ _______ _______ _____ _____    ______ ____
ROOT
ATOM      1  C   UNL     1       2.100   5.294  20.707  0.00  0.00    +0.000 C 
ENDROOT
BRANCH   1   2
ATOM      2  O   UNL     1       2.510   5.872  19.468  0.00  0.00    +0.000 OA
BRANCH   2   6
ATOM      3  C   UNL     1       1.210   9.829  19.201  0.00  0.00    +0.000 A 
ATOM      4  C   UNL     1       1.139   9.109  20.398  0.00  0.00    +0.000 A 
ATOM      5  C   UNL     1       1.596   7.790  20.454  0.00  0.00    +0.000 A 
ATOM      6  C   UNL     1       2.129   7.182  19.314  0.00  0.00    +0.000 A 
ATOM      7  C   UNL     1       2.249   7.924  18.132  0.00  0.00    +0.000 A 
ATOM      8  C   UNL     1       1.798   9.246  18.075  0.00  0.00    +0.000 A 
BRANCH   3  10
ATOM      9  O   UNL     1       0.114  11.732  20.107  0.00  0.00    +0.000 OA
ATOM     10  C   UNL     1       0.696  11.220  19.172  0.00  0.00    +0.000 C 
BRANCH  10  11
ATOM     11  O   UNL     1       0.893  11.840  17.986  0.00  0.00    +0.000 OA
ATOM     12  H   UNL     1       1.768  11.684  17.579  0.00  0.00    +0.000 HD
ENDBRANCH  10  11
ENDBRANCH   3  10
ENDBRANCH   2   6
ENDBRANCH   1   2
BRANCH   1  13
ATOM     13  C   UNL     1       0.994   4.265  20.493  0.00  0.00    +0.000 C 
BRANCH  13  14
ATOM     14  C   UNL     1       1.569   2.892  20.110  0.00  0.00    +0.000 C 
BRANCH  14  15
ATOM     15  C   UNL     1       1.140   2.455  18.703  0.00  0.00    +0.000 C 
BRANCH  15  16
ATOM     16  C   UNL     1       2.323   2.157  17.782  0.00  0.00    +0.000 C 
BRANCH  16  17
ATOM     17  C   UNL     1       2.830   3.428  17.094  0.00  0.00    +0.000 C 
BRANCH  17  18
ATOM     18  O   UNL     1       4.186   3.687  17.471  0.00  0.00    +0.000 OA
BRANCH  18  19
ATOM     19  C   UNL     1       4.611   4.971  16.995  0.00  0.00    +0.000 C 
ATOM     20  C   UNL     1       5.552   4.826  15.799  0.00  0.00    +0.000 C 
ATOM     21  C   UNL     1       6.939   4.323  16.189  0.00  0.00    +0.000 C 
ATOM     22  C   UNL     1       7.476   4.995  17.448  0.00  0.00    +0.000 C 
ATOM     23  C   UNL     1       6.412   5.156  18.523  0.00  0.00    +0.000 C 
ATOM     24  O   UNL     1       5.229   5.762  18.011  0.00  0.00    +0.000 OA
ENDBRANCH  18  19
ENDBRANCH  17  18
ENDBRANCH  16  17
ENDBRANCH  15  16
ENDBRANCH  14  15
ENDBRANCH  13  14
ENDBRANCH   1  13
TORSDOF 11
ENDMDL
MODEL 8
REMARK VINA RESULT:      -6.2      1.016      1.591
REMARK  Name = 
REMARK  11 active torsions:
REMARK  status: ('A' for Active; 'I' for Inactive)
REMARK    1  A    between atoms: C_2  and  O_3
REMARK    2  A    between atoms: C_2  and  C_4
REMARK    3  A    between atoms: C_7  and  O_8
REMARK    4  A    between atoms: O_8  and  C_9
REMARK    5  A    between atoms: C_9  and  C_10
REMARK    6  A    between atoms: C_10  and  C_11
REMARK    7  A    between atoms: C_11  and  C_12
REMARK    8  A    between atoms: C_12  and  C_13
REMARK    9  A    between atoms: C_13  and  C_14
REMARK   10  A    between atoms: C_14  and  O_15
REMARK   11  A    between atoms: O_15  and  C_16
REMARK                            x       y       z     vdW  Elec       q    Type
REMARK                         _______ _______ _______ _____ _____    ______ ____
ROOT
ATOM      1  C   UNL     1       1.232   4.396  20.615  0.00  0.00    +0.000 C 
ENDROOT
BRANCH   1   2
ATOM      2  O   UNL     1       2.368   5.257  20.536  0.00  0.00    +0.000 OA
BRANCH   2   6
ATOM      3  C   UNL     1       1.648   9.107  19.096  0.00  0.00    +0.000 A 
ATOM      4  C   UNL     1       2.348   8.157  18.344  0.00  0.00    +0.000 A 
ATOM      5  C   UNL     1       2.558   6.874  18.852  0.00  0.00    +0.000 A 
ATOM      6  C   UNL     1       2.070   6.529  20.116  0.00  0.00    +0.000 A 
ATOM      7  C   UNL     1       1.323   7.465  20.842  0.00  0.00    +0.000 A 
ATOM      8  C   UNL     1       1.105   8.748  20.333  0.00  0.00    +0.000 A 
BRANCH   3  10
ATOM      9  O   UNL     1       2.307  11.033  17.872  0.00  0.00    +0.000 OA
ATOM     10  C   UNL     1       1.461  10.467  18.535  0.00  0.00    +0.000 C 
BRANCH  10  11
ATOM     11  O   UNL     1       0.280  11.031  18.877  0.00  0.00    +0.000 OA
ATOM     12  H   UNL     1      -0.506  10.469  18.724  0.00  0.00    +0.000 HD
ENDBRANCH  10  11
ENDBRANCH   3  10
ENDBRANCH   2   6
ENDBRANCH   1   2
BRANCH   1  13
ATOM     13  C   UNL     1       1.549   3.016  20.047  0.00  0.00    +0.000 C 
BRANCH  13  14
ATOM     14  C   UNL     1       1.204   2.929  18.552  0.00  0.00    +0.000 C 
BRANCH  14  15
ATOM     15  C   UNL     1       2.301   3.535  17.667  0.00  0.00    +0.000 C 
BRANCH  15  16
ATOM     16  C   UNL     1       3.609   2.744  17.709  0.00  0.00    +0.000 C 
BRANCH  16  17
ATOM     17  C   UNL     1       4.538   3.258  18.813  0.00  0.00    +0.000 C 
BRANCH  17  18
ATOM     18  O   UNL     1       5.005   4.573  18.494  0.00  0.00    +0.000 OA
BRANCH  18  19
ATOM     19  C   UNL     1       5.990   4.525  17.452  0.00  0.00    +0.000 C 
ATOM     20  C   UNL     1       7.392   4.758  18.015  0.00  0.00    +0.000 C 
ATOM     21  C   UNL     1       7.640   6.208  18.416  0.00  0.00    +0.000 C 
ATOM     22  C   UNL     1       7.105   7.202  17.392  0.00  0.00    +0.000 C 
ATOM     23  C   UNL     1       5.741   6.803  16.849  0.00  0.00    +0.000 C 
ATOM     24  O   UNL     1       5.727   5.452  16.398  0.00  0.00    +0.000 OA
ENDBRANCH  18  19
ENDBRANCH  17  18
ENDBRANCH  16  17
ENDBRANCH  15  16
ENDBRANCH  14  15
ENDBRANCH  13  14
ENDBRANCH   1  13
TORSDOF 11
ENDMDL
MODEL 9
REMARK VINA RESULT:      -6.2      0.863      1.503
REMARK  Name = 
REMARK  11 active torsions:
REMARK  status: ('A' for Active; 'I' for Inactive)
REMARK    1  A    between atoms: C_2  and  O_3
REMARK    2  A    between atoms: C_2  and  C_4
REMARK    3  A    between atoms: C_7  and  O_8
REMARK    4  A    between atoms: O_8  and  C_9
REMARK    5  A    between atoms: C_9  and  C_10
REMARK    6  A    between atoms: C_10  and  C_11
REMARK    7  A    between atoms: C_11  and  C_12
REMARK    8  A    between atoms: C_12  and  C_13
REMARK    9  A    between atoms: C_13  and  C_14
REMARK   10  A    between atoms: C_14  and  O_15
REMARK   11  A    between atoms: O_15  and  C_16
REMARK                            x       y       z     vdW  Elec       q    Type
REMARK                         _______ _______ _______ _____ _____    ______ ____
ROOT
ATOM      1  C   UNL     1       2.616   5.412  20.635  0.00  0.00    +0.000 C 
ENDROOT
BRANCH   1   2
ATOM      2  O   UNL     1       2.624   6.004  19.336  0.00  0.00    +0.000 OA
BRANCH   2   6
ATOM      3  C   UNL     1       1.267   9.939  19.053  0.00  0.00    +0.000 A 
ATOM      4  C   UNL     1       1.850   9.281  17.965  0.00  0.00    +0.000 A 
ATOM      5  C   UNL     1       2.280   7.958  18.092  0.00  0.00    +0.000 A 
ATOM      6  C   UNL     1       2.131   7.284  19.307  0.00  0.00    +0.000 A 
ATOM      7  C   UNL     1       1.497   7.929  20.377  0.00  0.00    +0.000 A 
ATOM      8  C   UNL     1       1.059   9.250  20.251  0.00  0.00    +0.000 A 
BRANCH   3  10
ATOM      9  O   UNL     1      -0.095  11.835  19.494  0.00  0.00    +0.000 OA
ATOM     10  C   UNL     1       0.840  11.351  18.889  0.00  0.00    +0.000 C 
BRANCH  10  11
ATOM     11  O   UNL     1       1.562  12.026  17.966  0.00  0.00    +0.000 OA
ATOM     12  H   UNL     1       1.122  12.815  17.593  0.00  0.00    +0.000 HD
ENDBRANCH  10  11
ENDBRANCH   3  10
ENDBRANCH   2   6
ENDBRANCH   1   2
BRANCH   1  13
ATOM     13  C   UNL     1       2.123   3.969  20.578  0.00  0.00    +0.000 C 
BRANCH  13  14
ATOM     14  C   UNL     1       1.126   3.759  19.429  0.00  0.00    +0.000 C 
BRANCH  14  15
ATOM     15  C   UNL     1       1.287   2.387  18.764  0.00  0.00    +0.000 C 
BRANCH  15  16
ATOM     16  C   UNL     1       2.650   2.200  18.098  0.00  0.00    +0.000 C 
BRANCH  16  17
ATOM     17  C   UNL     1       3.015   3.406  17.226  0.00  0.00    +0.000 C 
BRANCH  17  18
ATOM     18  O   UNL     1       4.409   3.707  17.358  0.00  0.00    +0.000 OA
BRANCH  18  19
ATOM     19  C   UNL     1       4.863   4.509  16.259  0.00  0.00    +0.000 C 
ATOM     20  C   UNL     1       6.274   4.103  15.833  0.00  0.00    +0.000 C 
ATOM     21  C   UNL     1       7.346   4.549  16.823  0.00  0.00    +0.000 C 
ATOM     22  C   UNL     1       7.130   5.972  17.324  0.00  0.00    +0.000 C 
ATOM     23  C   UNL     1       5.669   6.269  17.626  0.00  0.00    +0.000 C 
ATOM     24  O   UNL     1       4.820   5.908  16.539  0.00  0.00    +0.000 OA
ENDBRANCH  18  19
ENDBRANCH  17  18
ENDBRANCH  16  17
ENDBRANCH  15  16
ENDBRANCH  14  15
ENDBRANCH  13  14
ENDBRANCH   1  13
TORSDOF 11
ENDMDL
