MODEL 1
REMARK VINA RESULT:      -7.0      0.000      0.000
REMARK  Name = 
REMARK  11 active torsions:
REMARK  status: ('A' for Active; 'I' for Inactive)
REMARK    1  A    between atoms: C_1  and  O_2
REMARK    2  A    between atoms: O_2  and  C_3
REMARK    3  A    between atoms: C_3  and  C_5
REMARK    4  A    between atoms: C_5  and  C_6
REMARK    5  A    between atoms: C_5  and  C_7
REMARK    6  A    between atoms: C_5  and  N_8
REMARK    7  A    between atoms: C_9  and  C_11
REMARK    8  A    between atoms: N_15  and  C_16
REMARK    9  A    between atoms: C_16  and  C_17
REMARK   10  A    between atoms: C_17  and  C_18
REMARK   11  A    between atoms: C_17  and  C_19
REMARK                            x       y       z     vdW  Elec       q    Type
REMARK                         _______ _______ _______ _____ _____    ______ ____
ROOT
ATOM      1  N   UNL     1       3.982   5.603  17.339  0.00  0.00    +0.000 N 
ATOM      2  C   UNL     1       4.702   4.502  16.929  0.00  0.00    +0.000 C 
ATOM      3  O   UNL     1       4.676   3.413  17.475  0.00  0.00    +0.000 OA
ATOM      4  H   UNL     1       4.053   6.468  16.803  0.00  0.00    +0.000 HD
ENDROOT
BRANCH   2   5
ATOM      5  C   UNL     1       5.426   4.765  15.634  0.00  0.00    +0.000 C 
ATOM      6  C   UNL     1       6.907   5.119  15.723  0.00  0.00    +0.000 C 
ATOM      7  C   UNL     1       7.267   5.029  14.256  0.00  0.00    +0.000 C 
ATOM      8  O   UNL     1       8.105   5.698  13.684  0.00  0.00    +0.000 OA
ATOM      9  N   UNL     1       6.439   4.048  13.711  0.00  0.00    +0.000 N 
ATOM     10  C   UNL     1       5.455   3.594  14.676  0.00  0.00    +0.000 C 
BRANCH   9  11
ATOM     11  C   UNL     1       6.444   3.616  12.327  0.00  0.00    +0.000 C 
BRANCH  11  12
ATOM     12  C   UNL     1       5.338   2.594  11.996  0.00  0.00    +0.000 C 
ATOM     13  C   UNL     1       4.187   3.209  11.197  0.00  0.00    +0.000 C 
ATOM     14  C   UNL     1       5.930   1.424  11.206  0.00  0.00    +0.000 C 
ENDBRANCH  11  12
ENDBRANCH   9  11
ENDBRANCH   2   5
BRANCH   1  15
ATOM     15  C   UNL     1       2.988   5.640  18.431  0.00  0.00    +0.000 C 
ATOM     16  C   UNL     1       2.229   6.965  18.430  0.00  0.00    +0.000 C 
ATOM     17  C   UNL     1       3.652   5.354  19.784  0.00  0.00    +0.000 C 
BRANCH  15  18
ATOM     18  C   UNL     1       2.005   4.486  18.116  0.00  0.00    +0.000 C 
ATOM     19  O   UNL     1       1.330   4.435  17.090  0.00  0.00    +0.000 OA
BRANCH  18  21
ATOM     20  C   UNL     1       1.446   2.284  18.688  0.00  0.00    +0.000 C 
ATOM     21  O   UNL     1       2.010   3.534  19.089  0.00  0.00    +0.000 OA
ENDBRANCH  18  21
ENDBRANCH  15  18
ENDBRANCH   1  15
TORSDOF 6
ENDMDL
MODEL 2
REMARK VINA RESULT:      -7.0      1.256      1.500
REMARK  Name = 
REMARK  11 active torsions:
REMARK  status: ('A' for Active; 'I' for Inactive)
REMARK    1  A    between atoms: C_1  and  O_2
REMARK    2  A    between atoms: O_2  and  C_3
REMARK    3  A    between atoms: C_3  and  C_5
REMARK    4  A    between atoms: C_5  and  C_6
REMARK    5  A    between atoms: C_5  and  C_7
REMARK    6  A    between atoms: C_5  and  N_8
REMARK    7  A    between atoms: C_9  and  C_11
REMARK    8  A    between atoms: N_15  and  C_16
REMARK    9  A    between atoms: C_16  and  C_17
REMARK   10  A    between atoms: C_17  and  C_18
REMARK   11  A    between atoms: C_17  and  C_19
REMARK                            x       y       z     vdW  Elec       q    Type
REMARK                         _______ _______ _______ _____ _____    ______ ____
ROOT
ATOM      1  N   UNL     1       4.161   4.404  16.895  0.00  0.00    +0.000 N 
ATOM      2  C   UNL     1       4.733   5.620  16.588  0.00  0.00    +0.000 C 
ATOM      3  O   UNL     1       4.663   6.615  17.288  0.00  0.00    +0.000 OA
ATOM      4  H   UNL     1       4.293   3.620  16.255  0.00  0.00    +0.000 HD
ENDROOT
BRANCH   2   5
ATOM      5  C   UNL     1       5.579   5.535  15.344  0.00  0.00    +0.000 C 
ATOM      6  C   UNL     1       7.093   5.539  15.530  0.00  0.00    +0.000 C 
ATOM      7  C   UNL     1       7.511   5.177  14.121  0.00  0.00    +0.000 C 
ATOM      8  O   UNL     1       8.522   5.550  13.559  0.00  0.00    +0.000 OA
ATOM      9  N   UNL     1       6.504   4.356  13.615  0.00  0.00    +0.000 N 
ATOM     10  C   UNL     1       5.381   4.275  14.529  0.00  0.00    +0.000 C 
BRANCH   9  11
ATOM     11  C   UNL     1       6.491   3.759  12.294  0.00  0.00    +0.000 C 
BRANCH  11  12
ATOM     12  C   UNL     1       5.369   2.717  12.099  0.00  0.00    +0.000 C 
ATOM     13  C   UNL     1       4.182   3.271  11.308  0.00  0.00    +0.000 C 
ATOM     14  C   UNL     1       5.923   1.485  11.380  0.00  0.00    +0.000 C 
ENDBRANCH  11  12
ENDBRANCH   9  11
ENDBRANCH   2   5
BRANCH   1  15
ATOM     15  C   UNL     1       3.459   4.059  18.148  0.00  0.00    +0.000 C 
ATOM     16  C   UNL     1       2.341   5.059  18.437  0.00  0.00    +0.000 C 
ATOM     17  C   UNL     1       4.448   3.943  19.314  0.00  0.00    +0.000 C 
BRANCH  15  18
ATOM     18  C   UNL     1       2.842   2.662  17.890  0.00  0.00    +0.000 C 
ATOM     19  O   UNL     1       3.508   1.630  17.832  0.00  0.00    +0.000 OA
BRANCH  18  21
ATOM     20  C   UNL     1       0.780   2.125  18.861  0.00  0.00    +0.000 C 
ATOM     21  O   UNL     1       1.488   2.719  17.771  0.00  0.00    +0.000 OA
ENDBRANCH  18  21
ENDBRANCH  15  18
ENDBRANCH   1  15
TORSDOF 6
ENDMDL
MODEL 3
REMARK VINA RESULT:      -6.9      1.381      1.931
REMARK  Name = 
REMARK  11 active torsions:
REMARK  status: ('A' for Active; 'I' for Inactive)
REMARK    1  A    between atoms: C_1  and  O_2
REMARK    2  A    between atoms: O_2  and  C_3
REMARK    3  A    between atoms: C_3  and  C_5
REMARK    4  A    between atoms: C_5  and  C_6
REMARK    5  A    between atoms: C_5  and  C_7
REMARK    6  A    between atoms: C_5  and  N_8
REMARK    7  A    between atoms: C_9  and  C_11
REMARK    8  A    between atoms: N_15  and  C_16
REMARK    9  A    between atoms: C_16  and  C_17
REMARK   10  A    between atoms: C_17  and  C_18
REMARK   11  A    between atoms: C_17  and  C_19
REMARK                            x       y       z     vdW  Elec       q    Type
REMARK                         _______ _______ _______ _____ _____    ______ ____
ROOT
ATOM      1  N   UNL     1       3.690   4.136  17.243  0.00  0.00    +0.000 N 
ATOM      2  C   UNL     1       5.065   4.165  17.325  0.00  0.00    +0.000 C 
ATOM      3  O   UNL     1       5.711   3.797  18.291  0.00  0.00    +0.000 OA
ATOM      4  H   UNL     1       3.239   4.446  16.382  0.00  0.00    +0.000 HD
ENDROOT
BRANCH   2   5
ATOM      5  C   UNL     1       5.689   4.580  16.018  0.00  0.00    +0.000 C 
ATOM      6  C   UNL     1       7.185   4.877  16.023  0.00  0.00    +0.000 C 
ATOM      7  C   UNL     1       7.419   4.974  14.531  0.00  0.00    +0.000 C 
ATOM      8  O   UNL     1       8.232   5.691  13.981  0.00  0.00    +0.000 OA
ATOM      9  N   UNL     1       6.511   4.099  13.937  0.00  0.00    +0.000 N 
ATOM     10  C   UNL     1       5.593   3.546  14.916  0.00  0.00    +0.000 C 
BRANCH   9  11
ATOM     11  C   UNL     1       6.385   3.856  12.513  0.00  0.00    +0.000 C 
BRANCH  11  12
ATOM     12  C   UNL     1       5.350   2.767  12.162  0.00  0.00    +0.000 C 
ATOM     13  C   UNL     1       4.165   3.315  11.364  0.00  0.00    +0.000 C 
ATOM     14  C   UNL     1       6.023   1.649  11.362  0.00  0.00    +0.000 C 
ENDBRANCH  11  12
ENDBRANCH   9  11
ENDBRANCH   2   5
BRANCH   1  15
ATOM     15  C   UNL     1       2.766   3.571  18.248  0.00  0.00    +0.000 C 
ATOM     16  C   UNL     1       2.996   2.070  18.414  0.00  0.00    +0.000 C 
ATOM     17  C   UNL     1       1.309   3.897  17.895  0.00  0.00    +0.000 C 
BRANCH  15  18
ATOM     18  C   UNL     1       3.122   4.294  19.570  0.00  0.00    +0.000 C 
ATOM     19  O   UNL     1       3.237   5.514  19.663  0.00  0.00    +0.000 OA
BRANCH  18  21
ATOM     20  C   UNL     1       2.188   3.472  21.555  0.00  0.00    +0.000 C 
ATOM     21  O   UNL     1       3.256   3.421  20.606  0.00  0.00    +0.000 OA
ENDBRANCH  18  21
ENDBRANCH  15  18
ENDBRANCH   1  15
TORSDOF 6
ENDMDL
MODEL 4
REMARK VINA RESULT:      -6.9      2.053      3.084
REMARK  Name = 
REMARK  11 active torsions:
REMARK  status: ('A' for Active; 'I' for Inactive)
REMARK    1  A    between atoms: C_1  and  O_2
REMARK    2  A    between atoms: O_2  and  C_3
REMARK    3  A    between atoms: C_3  and  C_5
REMARK    4  A    between atoms: C_5  and  C_6
REMARK    5  A    between atoms: C_5  and  C_7
REMARK    6  A    between atoms: C_5  and  N_8
REMARK    7  A    between atoms: C_9  and  C_11
REMARK    8  A    between atoms: N_15  and  C_16
REMARK    9  A    between atoms: C_16  and  C_17
REMARK   10  A    between atoms: C_17  and  C_18
REMARK   11  A    between atoms: C_17  and  C_19
REMARK                            x       y       z     vdW  Elec       q    Type
REMARK                         _______ _______ _______ _____ _____    ______ ____
ROOT
ATOM      1  N   UNL     1       3.056   4.280  18.804  0.00  0.00    +0.000 N 
ATOM      2  C   UNL     1       3.055   5.441  18.060  0.00  0.00    +0.000 C 
ATOM      3  O   UNL     1       2.234   6.335  18.170  0.00  0.00    +0.000 OA
ATOM      4  H   UNL     1       3.800   3.598  18.655  0.00  0.00    +0.000 HD
ENDROOT
BRANCH   2   5
ATOM      5  C   UNL     1       4.278   5.537  17.185  0.00  0.00    +0.000 C 
ATOM      6  C   UNL     1       5.541   6.118  17.814  0.00  0.00    +0.000 C 
ATOM      7  C   UNL     1       6.533   5.782  16.722  0.00  0.00    +0.000 C 
ATOM      8  O   UNL     1       7.512   6.437  16.421  0.00  0.00    +0.000 OA
ATOM      9  N   UNL     1       6.084   4.599  16.138  0.00  0.00    +0.000 N 
ATOM     10  C   UNL     1       4.788   4.211  16.662  0.00  0.00    +0.000 C 
BRANCH   9  11
ATOM     11  C   UNL     1       6.736   3.897  15.050  0.00  0.00    +0.000 C 
BRANCH  11  12
ATOM     12  C   UNL     1       6.481   4.530  13.666  0.00  0.00    +0.000 C 
ATOM     13  C   UNL     1       7.744   5.144  13.058  0.00  0.00    +0.000 C 
ATOM     14  C   UNL     1       5.921   3.477  12.708  0.00  0.00    +0.000 C 
ENDBRANCH  11  12
ENDBRANCH   9  11
ENDBRANCH   2   5
BRANCH   1  15
ATOM     15  C   UNL     1       2.143   3.957  19.919  0.00  0.00    +0.000 C 
ATOM     16  C   UNL     1       0.822   3.398  19.395  0.00  0.00    +0.000 C 
ATOM     17  C   UNL     1       1.935   5.175  20.827  0.00  0.00    +0.000 C 
BRANCH  15  18
ATOM     18  C   UNL     1       2.876   2.861  20.732  0.00  0.00    +0.000 C 
ATOM     19  O   UNL     1       2.710   2.690  21.938  0.00  0.00    +0.000 OA
BRANCH  18  21
ATOM     20  C   UNL     1       4.910   1.710  20.574  0.00  0.00    +0.000 C 
ATOM     21  O   UNL     1       3.688   2.104  19.945  0.00  0.00    +0.000 OA
ENDBRANCH  18  21
ENDBRANCH  15  18
ENDBRANCH   1  15
TORSDOF 6
ENDMDL
MODEL 5
REMARK VINA RESULT:      -6.6      1.100      2.042
REMARK  Name = 
REMARK  11 active torsions:
REMARK  status: ('A' for Active; 'I' for Inactive)
REMARK    1  A    between atoms: C_1  and  O_2
REMARK    2  A    between atoms: O_2  and  C_3
REMARK    3  A    between atoms: C_3  and  C_5
REMARK    4  A    between atoms: C_5  and  C_6
REMARK    5  A    between atoms: C_5  and  C_7
REMARK    6  A    between atoms: C_5  and  N_8
REMARK    7  A    between atoms: C_9  and  C_11
REMARK    8  A    between atoms: N_15  and  C_16
REMARK    9  A    between atoms: C_16  and  C_17
REMARK   10  A    between atoms: C_17  and  C_18
REMARK   11  A    between atoms: C_17  and  C_19
REMARK                            x       y       z     vdW  Elec       q    Type
REMARK                         _______ _______ _______ _____ _____    ______ ____
ROOT
ATOM      1  N   UNL     1       4.041   3.939  16.918  0.00  0.00    +0.000 N 
ATOM      2  C   UNL     1       5.196   4.686  17.004  0.00  0.00    +0.000 C 
ATOM      3  O   UNL     1       5.733   5.015  18.048  0.00  0.00    +0.000 OA
ATOM      4  H   UNL     1       3.678   3.694  15.996  0.00  0.00    +0.000 HD
ENDROOT
BRANCH   2   5
ATOM      5  C   UNL     1       5.798   4.933  15.645  0.00  0.00    +0.000 C 
ATOM      6  C   UNL     1       7.308   5.139  15.579  0.00  0.00    +0.000 C 
ATOM      7  C   UNL     1       7.496   5.076  14.079  0.00  0.00    +0.000 C 
ATOM      8  O   UNL     1       8.331   5.685  13.438  0.00  0.00    +0.000 OA
ATOM      9  N   UNL     1       6.520   4.204  13.600  0.00  0.00    +0.000 N 
ATOM     10  C   UNL     1       5.606   3.806  14.654  0.00  0.00    +0.000 C 
BRANCH   9  11
ATOM     11  C   UNL     1       6.332   3.832  12.211  0.00  0.00    +0.000 C 
BRANCH  11  12
ATOM     12  C   UNL     1       5.302   2.701  12.009  0.00  0.00    +0.000 C 
ATOM     13  C   UNL     1       4.093   3.146  11.184  0.00  0.00    +0.000 C 
ATOM     14  C   UNL     1       5.970   1.507  11.322  0.00  0.00    +0.000 C 
ENDBRANCH  11  12
ENDBRANCH   9  11
ENDBRANCH   2   5
BRANCH   1  15
ATOM     15  C   UNL     1       3.311   3.324  18.045  0.00  0.00    +0.000 C 
ATOM     16  C   UNL     1       4.261   3.006  19.199  0.00  0.00    +0.000 C 
ATOM     17  C   UNL     1       2.530   2.088  17.582  0.00  0.00    +0.000 C 
BRANCH  15  18
ATOM     18  C   UNL     1       2.297   4.402  18.500  0.00  0.00    +0.000 C 
ATOM     19  O   UNL     1       1.469   4.218  19.391  0.00  0.00    +0.000 OA
BRANCH  18  21
ATOM     20  C   UNL     1       2.606   6.719  18.659  0.00  0.00    +0.000 C 
ATOM     21  O   UNL     1       2.458   5.570  17.821  0.00  0.00    +0.000 OA
ENDBRANCH  18  21
ENDBRANCH  15  18
ENDBRANCH   1  15
TORSDOF 6
ENDMDL
MODEL 6
REMARK VINA RESULT:      -6.6      1.262      1.440
REMARK  Name = 
REMARK  11 active torsions:
REMARK  status: ('A' for Active; 'I' for Inactive)
REMARK    1  A    between atoms: C_1  and  O_2
REMARK    2  A    between atoms: O_2  and  C_3
REMARK    3  A    between atoms: C_3  and  C_5
REMARK    4  A    between atoms: C_5  and  C_6
REMARK    5  A    between atoms: C_5  and  C_7
REMARK    6  A    between atoms: C_5  and  N_8
REMARK    7  A    between atoms: C_9  and  C_11
REMARK    8  A    between atoms: N_15  and  C_16
REMARK    9  A    between atoms: C_16  and  C_17
REMARK   10  A    between atoms: C_17  and  C_18
REMARK   11  A    between atoms: C_17  and  C_19
REMARK                            x       y       z     vdW  Elec       q    Type
REMARK                         _______ _______ _______ _____ _____    ______ ____
ROOT
ATOM      1  N   UNL     1       4.653   4.353  17.294  0.00  0.00    +0.000 N 
ATOM      2  C   UNL     1       4.643   5.545  16.604  0.00  0.00    +0.000 C 
ATOM      3  O   UNL     1       4.095   6.564  16.987  0.00  0.00    +0.000 OA
ATOM      4  H   UNL     1       5.159   3.558  16.902  0.00  0.00    +0.000 HD
ENDROOT
BRANCH   2   5
ATOM      5  C   UNL     1       5.515   5.481  15.377  0.00  0.00    +0.000 C 
ATOM      6  C   UNL     1       7.025   5.505  15.593  0.00  0.00    +0.000 C 
ATOM      7  C   UNL     1       7.477   5.158  14.191  0.00  0.00    +0.000 C 
ATOM      8  O   UNL     1       8.493   5.549  13.652  0.00  0.00    +0.000 OA
ATOM      9  N   UNL     1       6.492   4.326  13.659  0.00  0.00    +0.000 N 
ATOM     10  C   UNL     1       5.352   4.224  14.550  0.00  0.00    +0.000 C 
BRANCH   9  11
ATOM     11  C   UNL     1       6.514   3.738  12.335  0.00  0.00    +0.000 C 
BRANCH  11  12
ATOM     12  C   UNL     1       5.373   2.729  12.089  0.00  0.00    +0.000 C 
ATOM     13  C   UNL     1       4.214   3.331  11.293  0.00  0.00    +0.000 C 
ATOM     14  C   UNL     1       5.913   1.505  11.345  0.00  0.00    +0.000 C 
ENDBRANCH  11  12
ENDBRANCH   9  11
ENDBRANCH   2   5
BRANCH   1  15
ATOM     15  C   UNL     1       4.099   4.119  18.644  0.00  0.00    +0.000 C 
ATOM     16  C   UNL     1       4.459   5.267  19.584  0.00  0.00    +0.000 C 
ATOM     17  C   UNL     1       4.551   2.759  19.192  0.00  0.00    +0.000 C 
BRANCH  15  18
ATOM     18  C   UNL     1       2.564   4.080  18.445  0.00  0.00    +0.000 C 
ATOM     19  O   UNL     1       1.832   5.046  18.652  0.00  0.00    +0.000 OA
BRANCH  18  21
ATOM     20  C   UNL     1       1.054   2.312  18.727  0.00  0.00    +0.000 C 
ATOM     21  O   UNL     1       2.142   2.871  17.987  0.00  0.00    +0.000 OA
ENDBRANCH  18  21
ENDBRANCH  15  18
ENDBRANCH   1  15
TORSDOF 6
ENDMDL
MODEL 7
REMARK VINA RESULT:      -6.5      2.086      6.580
REMARK  Name = 
REMARK  11 active torsions:
REMARK  status: ('A' for Active; 'I' for Inactive)
REMARK    1  A    between atoms: C_1  and  O_2
REMARK    2  A    between atoms: O_2  and  C_3
REMARK    3  A    between atoms: C_3  and  C_5
REMARK    4  A    between atoms: C_5  and  C_6
REMARK    5  A    between atoms: C_5  and  C_7
REMARK    6  A    between atoms: C_5  and  N_8
REMARK    7  A    between atoms: C_9  and  C_11
REMARK    8  A    between atoms: N_15  and  C_16
REMARK    9  A    between atoms: C_16  and  C_17
REMARK   10  A    between atoms: C_17  and  C_18
REMARK   11  A    between atoms: C_17  and  C_19
REMARK                            x       y       z     vdW  Elec       q    Type
REMARK                         _______ _______ _______ _____ _____    ______ ____
ROOT
ATOM      1  N   UNL     1       6.197   3.388  13.521  0.00  0.00    +0.000 N 
ATOM      2  C   UNL     1       6.748   4.326  14.366  0.00  0.00    +0.000 C 
ATOM      3  O   UNL     1       7.336   5.329  14.000  0.00  0.00    +0.000 OA
ATOM      4  H   UNL     1       5.704   2.590  13.923  0.00  0.00    +0.000 HD
ENDROOT
BRANCH   2   5
ATOM      5  C   UNL     1       6.416   4.036  15.807  0.00  0.00    +0.000 C 
ATOM      6  C   UNL     1       6.900   5.040  16.849  0.00  0.00    +0.000 C 
ATOM      7  C   UNL     1       6.144   4.523  18.054  0.00  0.00    +0.000 C 
ATOM      8  O   UNL     1       6.526   4.564  19.207  0.00  0.00    +0.000 OA
ATOM      9  N   UNL     1       4.952   3.988  17.566  0.00  0.00    +0.000 N 
ATOM     10  C   UNL     1       4.935   3.976  16.115  0.00  0.00    +0.000 C 
BRANCH   9  11
ATOM     11  C   UNL     1       3.908   3.388  18.372  0.00  0.00    +0.000 C 
BRANCH  11  12
ATOM     12  C   UNL     1       2.491   3.593  17.797  0.00  0.00    +0.000 C 
ATOM     13  C   UNL     1       1.462   2.643  18.415  0.00  0.00    +0.000 C 
ATOM     14  C   UNL     1       2.042   5.038  18.024  0.00  0.00    +0.000 C 
ENDBRANCH  11  12
ENDBRANCH   9  11
ENDBRANCH   2   5
BRANCH   1  15
ATOM     15  C   UNL     1       6.127   3.471  12.048  0.00  0.00    +0.000 C 
ATOM     16  C   UNL     1       7.044   4.574  11.523  0.00  0.00    +0.000 C 
ATOM     17  C   UNL     1       4.678   3.651  11.579  0.00  0.00    +0.000 C 
BRANCH  15  18
ATOM     18  C   UNL     1       6.636   2.098  11.545  0.00  0.00    +0.000 C 
ATOM     19  O   UNL     1       7.802   1.890  11.214  0.00  0.00    +0.000 OA
BRANCH  18  21
ATOM     20  C   UNL     1       6.106  -0.166  11.260  0.00  0.00    +0.000 C 
ATOM     21  O   UNL     1       5.652   1.159  11.549  0.00  0.00    +0.000 OA
ENDBRANCH  18  21
ENDBRANCH  15  18
ENDBRANCH   1  15
TORSDOF 6
ENDMDL
MODEL 8
REMARK VINA RESULT:      -6.5      1.590      2.524
REMARK  Name = 
REMARK  11 active torsions:
REMARK  status: ('A' for Active; 'I' for Inactive)
REMARK    1  A    between atoms: C_1  and  O_2
REMARK    2  A    between atoms: O_2  and  C_3
REMARK    3  A    between atoms: C_3  and  C_5
REMARK    4  A    between atoms: C_5  and  C_6
REMARK    5  A    between atoms: C_5  and  C_7
REMARK    6  A    between atoms: C_5  and  N_8
REMARK    7  A    between atoms: C_9  and  C_11
REMARK    8  A    between atoms: N_15  and  C_16
REMARK    9  A    between atoms: C_16  and  C_17
REMARK   10  A    between atoms: C_17  and  C_18
REMARK   11  A    between atoms: C_17  and  C_19
REMARK                            x       y       z     vdW  Elec       q    Type
REMARK                         _______ _______ _______ _____ _____    ______ ____
ROOT
ATOM      1  N   UNL     1       3.617   3.736  18.413  0.00  0.00    +0.000 N 
ATOM      2  C   UNL     1       4.941   4.112  18.470  0.00  0.00    +0.000 C 
ATOM      3  O   UNL     1       5.661   3.969  19.443  0.00  0.00    +0.000 OA
ATOM      4  H   UNL     1       3.100   3.877  17.544  0.00  0.00    +0.000 HD
ENDROOT
BRANCH   2   5
ATOM      5  C   UNL     1       5.436   4.600  17.133  0.00  0.00    +0.000 C 
ATOM      6  C   UNL     1       6.944   4.574  16.898  0.00  0.00    +0.000 C 
ATOM      7  C   UNL     1       6.962   4.867  15.413  0.00  0.00    +0.000 C 
ATOM      8  O   UNL     1       7.827   5.479  14.817  0.00  0.00    +0.000 OA
ATOM      9  N   UNL     1       5.795   4.311  14.891  0.00  0.00    +0.000 N 
ATOM     10  C   UNL     1       4.934   3.807  15.945  0.00  0.00    +0.000 C 
BRANCH   9  11
ATOM     11  C   UNL     1       5.398   4.341  13.497  0.00  0.00    +0.000 C 
BRANCH  11  12
ATOM     12  C   UNL     1       6.159   3.327  12.618  0.00  0.00    +0.000 C 
ATOM     13  C   UNL     1       5.236   2.568  11.662  0.00  0.00    +0.000 C 
ATOM     14  C   UNL     1       7.239   4.048  11.809  0.00  0.00    +0.000 C 
ENDBRANCH  11  12
ENDBRANCH   9  11
ENDBRANCH   2   5
BRANCH   1  15
ATOM     15  C   UNL     1       2.867   3.011  19.459  0.00  0.00    +0.000 C 
ATOM     16  C   UNL     1       3.813   2.480  20.535  0.00  0.00    +0.000 C 
ATOM     17  C   UNL     1       2.007   1.900  18.845  0.00  0.00    +0.000 C 
BRANCH  15  18
ATOM     18  C   UNL     1       1.925   4.071  20.082  0.00  0.00    +0.000 C 
ATOM     19  O   UNL     1       0.702   3.948  20.119  0.00  0.00    +0.000 OA
BRANCH  18  21
ATOM     20  C   UNL     1       2.252   6.390  20.060  0.00  0.00    +0.000 C 
ATOM     21  O   UNL     1       2.616   5.120  20.605  0.00  0.00    +0.000 OA
ENDBRANCH  18  21
ENDBRANCH  15  18
ENDBRANCH   1  15
TORSDOF 6
ENDMDL
MODEL 9
REMARK VINA RESULT:      -6.5      1.258      1.602
REMARK  Name = 
REMARK  11 active torsions:
REMARK  status: ('A' for Active; 'I' for Inactive)
REMARK    1  A    between atoms: C_1  and  O_2
REMARK    2  A    between atoms: O_2  and  C_3
REMARK    3  A    between atoms: C_3  and  C_5
REMARK    4  A    between atoms: C_5  and  C_6
REMARK    5  A    between atoms: C_5  and  C_7
REMARK    6  A    between atoms: C_5  and  N_8
REMARK    7  A    between atoms: C_9  and  C_11
REMARK    8  A    between atoms: N_15  and  C_16
REMARK    9  A    between atoms: C_16  and  C_17
REMARK   10  A    between atoms: C_17  and  C_18
REMARK   11  A    between atoms: C_17  and  C_19
REMARK                            x       y       z     vdW  Elec       q    Type
REMARK                         _______ _______ _______ _____ _____    ______ ____
ROOT
ATOM      1  N   UNL     1       4.018   5.017  16.889  0.00  0.00    +0.000 N 
ATOM      2  C   UNL     1       5.396   5.041  16.910  0.00  0.00    +0.000 C 
ATOM      3  O   UNL     1       6.077   4.867  17.906  0.00  0.00    +0.000 OA
ATOM      4  H   UNL     1       3.535   5.152  16.000  0.00  0.00    +0.000 HD
ENDROOT
BRANCH   2   5
ATOM      5  C   UNL     1       5.968   5.171  15.522  0.00  0.00    +0.000 C 
ATOM      6  C   UNL     1       7.466   5.443  15.409  0.00  0.00    +0.000 C 
ATOM      7  C   UNL     1       7.639   5.229  13.921  0.00  0.00    +0.000 C 
ATOM      8  O   UNL     1       8.434   5.806  13.206  0.00  0.00    +0.000 OA
ATOM      9  N   UNL     1       6.704   4.263  13.554  0.00  0.00    +0.000 N 
ATOM     10  C   UNL     1       5.823   3.935  14.660  0.00  0.00    +0.000 C 
BRANCH   9  11
ATOM     11  C   UNL     1       6.519   3.736  12.217  0.00  0.00    +0.000 C 
BRANCH  11  12
ATOM     12  C   UNL     1       5.365   2.717  12.108  0.00  0.00    +0.000 C 
ATOM     13  C   UNL     1       4.127   3.299  11.424  0.00  0.00    +0.000 C 
ATOM     14  C   UNL     1       5.834   1.481  11.336  0.00  0.00    +0.000 C 
ENDBRANCH  11  12
ENDBRANCH   9  11
ENDBRANCH   2   5
BRANCH   1  15
ATOM     15  C   UNL     1       3.132   4.683  18.022  0.00  0.00    +0.000 C 
ATOM     16  C   UNL     1       1.716   4.382  17.535  0.00  0.00    +0.000 C 
ATOM     17  C   UNL     1       3.156   5.793  19.081  0.00  0.00    +0.000 C 
BRANCH  15  18
ATOM     18  C   UNL     1       3.743   3.403  18.643  0.00  0.00    +0.000 C 
ATOM     19  O   UNL     1       4.180   3.351  19.791  0.00  0.00    +0.000 OA
BRANCH  18  21
ATOM     20  C   UNL     1       3.730   1.071  18.417  0.00  0.00    +0.000 C 
ATOM     21  O   UNL     1       3.703   2.351  17.781  0.00  0.00    +0.000 OA
ENDBRANCH  18  21
ENDBRANCH  15  18
ENDBRANCH   1  15
TORSDOF 6
ENDMDL
