MODEL 1
REMARK VINA RESULT:      -7.2      0.000      0.000
REMARK  Name = 
REMARK  7 active torsions:
REMARK  status: ('A' for Active; 'I' for Inactive)
REMARK    1  A    between atoms: C_1  and  C_2
REMARK    2  A    between atoms: C_2  and  N_3
REMARK    3  A    between atoms: C_4  and  S_5
REMARK    4  A    between atoms: S_5  and  C_6
REMARK    5  A    between atoms: C_6  and  C_7
REMARK    6  A    between atoms: C_7  and  C_9
REMARK    7  A    between atoms: C_17  and  C_18
REMARK                            x       y       z     vdW  Elec       q    Type
REMARK                         _______ _______ _______ _____ _____    ______ ____
ROOT
ATOM      1  N   UNL     1       4.153   5.073  17.705  0.00  0.00    +0.000 N 
ATOM      2  C   UNL     1       4.853   4.772  16.562  0.00  0.00    +0.000 A 
ATOM      3  N   UNL     1       4.834   3.480  16.345  0.00  0.00    +0.000 NA
ATOM      4  N   UNL     1       4.133   2.898  17.363  0.00  0.00    +0.000 NA
ATOM      5  C   UNL     1       3.688   3.842  18.178  0.00  0.00    +0.000 A 
ENDROOT
BRANCH   5   6
ATOM      6  C   UNL     1       2.880   3.548  19.373  0.00  0.00    +0.000 A 
ATOM      7  C   UNL     1       1.502   3.756  19.474  0.00  0.00    +0.000 A 
ATOM      8  C   UNL     1       0.811   3.396  20.633  0.00  0.00    +0.000 A 
ATOM      9  C   UNL     1       1.517   2.813  21.671  0.00  0.00    +0.000 A 
ATOM     10  N   UNL     1       2.842   2.575  21.618  0.00  0.00    +0.000 NA
ATOM     11  C   UNL     1       3.484   2.938  20.475  0.00  0.00    +0.000 A 
ENDBRANCH   5   6
BRANCH   1  13
ATOM     12  C   UNL     1       2.992   7.392  17.776  0.00  0.00    +0.000 C 
ATOM     13  C   UNL     1       3.921   6.342  18.368  0.00  0.00    +0.000 C 
ENDBRANCH   1  13
BRANCH   2  14
ATOM     14  S   UNL     1       5.728   5.885  15.572  0.00  0.00    +0.000 S 
BRANCH  14  15
ATOM     15  C   UNL     1       7.066   4.839  14.947  0.00  0.00    +0.000 C 
BRANCH  15  16
ATOM     16  C   UNL     1       7.267   4.931  13.441  0.00  0.00    +0.000 C 
ATOM     17  O   UNL     1       7.983   5.766  12.888  0.00  0.00    +0.000 OA
BRANCH  16  18
ATOM     18  C   UNL     1       6.592   3.890  12.600  0.00  0.00    +0.000 A 
ATOM     19  C   UNL     1       5.198   3.843  12.459  0.00  0.00    +0.000 A 
ATOM     20  C   UNL     1       4.602   2.842  11.687  0.00  0.00    +0.000 A 
ATOM     21  C   UNL     1       5.388   1.882  11.053  0.00  0.00    +0.000 A 
ATOM     22  C   UNL     1       6.775   1.925  11.182  0.00  0.00    +0.000 A 
ATOM     23  C   UNL     1       7.377   2.927  11.949  0.00  0.00    +0.000 A 
ENDBRANCH  16  18
ENDBRANCH  15  16
ENDBRANCH  14  15
ENDBRANCH   2  14
TORSDOF 6
ENDMDL
MODEL 2
REMARK VINA RESULT:      -7.2      3.417      7.147
REMARK  Name = 
REMARK  7 active torsions:
REMARK  status: ('A' for Active; 'I' for Inactive)
REMARK    1  A    between atoms: C_1  and  C_2
REMARK    2  A    between atoms: C_2  and  N_3
REMARK    3  A    between atoms: C_4  and  S_5
REMARK    4  A    between atoms: S_5  and  C_6
REMARK    5  A    between atoms: C_6  and  C_7
REMARK    6  A    between atoms: C_7  and  C_9
REMARK    7  A    between atoms: C_17  and  C_18
REMARK                            x       y       z     vdW  Elec       q    Type
REMARK                         _______ _______ _______ _____ _____    ______ ____
ROOT
ATOM      1  N   UNL     1       5.063   3.989  17.712  0.00  0.00    +0.000 N 
ATOM      2  C   UNL     1       4.551   2.990  18.503  0.00  0.00    +0.000 A 
ATOM      3  N   UNL     1       4.921   3.162  19.749  0.00  0.00    +0.000 NA
ATOM      4  N   UNL     1       5.709   4.276  19.798  0.00  0.00    +0.000 NA
ATOM      5  C   UNL     1       5.784   4.808  18.588  0.00  0.00    +0.000 A 
ENDROOT
BRANCH   5   6
ATOM      6  C   UNL     1       6.549   6.032  18.300  0.00  0.00    +0.000 A 
ATOM      7  C   UNL     1       7.773   6.363  18.887  0.00  0.00    +0.000 A 
ATOM      8  C   UNL     1       8.453   7.524  18.511  0.00  0.00    +0.000 A 
ATOM      9  C   UNL     1       7.898   8.328  17.531  0.00  0.00    +0.000 A 
ATOM     10  N   UNL     1       6.730   8.046  16.921  0.00  0.00    +0.000 NA
ATOM     11  C   UNL     1       6.095   6.909  17.311  0.00  0.00    +0.000 A 
ENDBRANCH   5   6
BRANCH   1  13
ATOM     12  C   UNL     1       6.051   3.751  15.325  0.00  0.00    +0.000 C 
ATOM     13  C   UNL     1       4.963   4.213  16.283  0.00  0.00    +0.000 C 
ENDBRANCH   1  13
BRANCH   2  14
ATOM     14  S   UNL     1       3.629   1.630  17.969  0.00  0.00    +0.000 S 
BRANCH  14  15
ATOM     15  C   UNL     1       2.250   1.645  19.141  0.00  0.00    +0.000 C 
BRANCH  15  16
ATOM     16  C   UNL     1       1.186   2.688  18.826  0.00  0.00    +0.000 C 
ATOM     17  O   UNL     1       0.041   2.421  18.461  0.00  0.00    +0.000 OA
BRANCH  16  18
ATOM     18  C   UNL     1       1.557   4.124  19.042  0.00  0.00    +0.000 A 
ATOM     19  C   UNL     1       1.830   4.986  17.971  0.00  0.00    +0.000 A 
ATOM     20  C   UNL     1       2.198   6.313  18.211  0.00  0.00    +0.000 A 
ATOM     21  C   UNL     1       2.298   6.789  19.517  0.00  0.00    +0.000 A 
ATOM     22  C   UNL     1       2.023   5.940  20.588  0.00  0.00    +0.000 A 
ATOM     23  C   UNL     1       1.649   4.614  20.353  0.00  0.00    +0.000 A 
ENDBRANCH  16  18
ENDBRANCH  15  16
ENDBRANCH  14  15
ENDBRANCH   2  14
TORSDOF 6
ENDMDL
MODEL 3
REMARK VINA RESULT:      -7.2      3.510      7.083
REMARK  Name = 
REMARK  7 active torsions:
REMARK  status: ('A' for Active; 'I' for Inactive)
REMARK    1  A    between atoms: C_1  and  C_2
REMARK    2  A    between atoms: C_2  and  N_3
REMARK    3  A    between atoms: C_4  and  S_5
REMARK    4  A    between atoms: S_5  and  C_6
REMARK    5  A    between atoms: C_6  and  C_7
REMARK    6  A    between atoms: C_7  and  C_9
REMARK    7  A    between atoms: C_17  and  C_18
REMARK                            x       y       z     vdW  Elec       q    Type
REMARK                         _______ _______ _______ _____ _____    ______ ____
ROOT
ATOM      1  N   UNL     1       5.000   3.839  17.856  0.00  0.00    +0.000 N 
ATOM      2  C   UNL     1       4.491   2.870  18.686  0.00  0.00    +0.000 A 
ATOM      3  N   UNL     1       4.842   3.105  19.927  0.00  0.00    +0.000 NA
ATOM      4  N   UNL     1       5.615   4.230  19.934  0.00  0.00    +0.000 NA
ATOM      5  C   UNL     1       5.699   4.707  18.701  0.00  0.00    +0.000 A 
ENDROOT
BRANCH   5   6
ATOM      6  C   UNL     1       6.451   5.927  18.366  0.00  0.00    +0.000 A 
ATOM      7  C   UNL     1       7.719   6.242  18.861  0.00  0.00    +0.000 A 
ATOM      8  C   UNL     1       8.379   7.400  18.443  0.00  0.00    +0.000 A 
ATOM      9  C   UNL     1       7.758   8.219  17.516  0.00  0.00    +0.000 A 
ATOM     10  N   UNL     1       6.544   7.952  16.995  0.00  0.00    +0.000 NA
ATOM     11  C   UNL     1       5.930   6.817  17.423  0.00  0.00    +0.000 A 
ENDBRANCH   5   6
BRANCH   1  13
ATOM     12  C   UNL     1       6.115   3.746  15.515  0.00  0.00    +0.000 C 
ATOM     13  C   UNL     1       4.915   3.994  16.417  0.00  0.00    +0.000 C 
ENDBRANCH   1  13
BRANCH   2  14
ATOM     14  S   UNL     1       3.594   1.474  18.205  0.00  0.00    +0.000 S 
BRANCH  14  15
ATOM     15  C   UNL     1       2.107   2.225  17.500  0.00  0.00    +0.000 C 
BRANCH  15  16
ATOM     16  C   UNL     1       1.219   2.914  18.526  0.00  0.00    +0.000 C 
ATOM     17  O   UNL     1       0.243   2.389  19.062  0.00  0.00    +0.000 OA
BRANCH  16  18
ATOM     18  C   UNL     1       1.612   4.299  18.944  0.00  0.00    +0.000 A 
ATOM     19  C   UNL     1       1.628   4.688  20.291  0.00  0.00    +0.000 A 
ATOM     20  C   UNL     1       1.976   5.996  20.642  0.00  0.00    +0.000 A 
ATOM     21  C   UNL     1       2.308   6.922  19.655  0.00  0.00    +0.000 A 
ATOM     22  C   UNL     1       2.301   6.543  18.314  0.00  0.00    +0.000 A 
ATOM     23  C   UNL     1       1.960   5.235  17.959  0.00  0.00    +0.000 A 
ENDBRANCH  16  18
ENDBRANCH  15  16
ENDBRANCH  14  15
ENDBRANCH   2  14
TORSDOF 6
ENDMDL
MODEL 4
REMARK VINA RESULT:      -7.1      4.971      6.978
REMARK  Name = 
REMARK  7 active torsions:
REMARK  status: ('A' for Active; 'I' for Inactive)
REMARK    1  A    between atoms: C_1  and  C_2
REMARK    2  A    between atoms: C_2  and  N_3
REMARK    3  A    between atoms: C_4  and  S_5
REMARK    4  A    between atoms: S_5  and  C_6
REMARK    5  A    between atoms: C_6  and  C_7
REMARK    6  A    between atoms: C_7  and  C_9
REMARK    7  A    between atoms: C_17  and  C_18
REMARK                            x       y       z     vdW  Elec       q    Type
REMARK                         _______ _______ _______ _____ _____    ______ ____
ROOT
ATOM      1  N   UNL     1       5.294   5.891  18.118  0.00  0.00    +0.000 N 
ATOM      2  C   UNL     1       6.641   6.143  18.212  0.00  0.00    +0.000 A 
ATOM      3  N   UNL     1       7.161   5.469  19.208  0.00  0.00    +0.000 NA
ATOM      4  N   UNL     1       6.153   4.770  19.808  0.00  0.00    +0.000 NA
ATOM      5  C   UNL     1       5.024   4.985  19.150  0.00  0.00    +0.000 A 
ENDROOT
BRANCH   5   6
ATOM      6  C   UNL     1       3.746   4.365  19.534  0.00  0.00    +0.000 A 
ATOM      7  C   UNL     1       3.391   3.040  19.266  0.00  0.00    +0.000 A 
ATOM      8  C   UNL     1       2.175   2.523  19.717  0.00  0.00    +0.000 A 
ATOM      9  C   UNL     1       1.337   3.345  20.451  0.00  0.00    +0.000 A 
ATOM     10  N   UNL     1       1.639   4.623  20.752  0.00  0.00    +0.000 NA
ATOM     11  C   UNL     1       2.831   5.095  20.297  0.00  0.00    +0.000 A 
ENDBRANCH   5   6
BRANCH   1  13
ATOM     12  C   UNL     1       3.382   7.569  17.613  0.00  0.00    +0.000 C 
ATOM     13  C   UNL     1       4.291   6.417  17.213  0.00  0.00    +0.000 C 
ENDBRANCH   1  13
BRANCH   2  14
ATOM     14  S   UNL     1       7.547   7.251  17.245  0.00  0.00    +0.000 S 
BRANCH  14  15
ATOM     15  C   UNL     1       8.371   8.248  18.510  0.00  0.00    +0.000 C 
BRANCH  15  16
ATOM     16  C   UNL     1       8.411   9.736  18.192  0.00  0.00    +0.000 C 
ATOM     17  O   UNL     1       7.605  10.310  17.460  0.00  0.00    +0.000 OA
BRANCH  16  18
ATOM     18  C   UNL     1       9.470  10.548  18.875  0.00  0.00    +0.000 A 
ATOM     19  C   UNL     1       9.390  10.872  20.237  0.00  0.00    +0.000 A 
ATOM     20  C   UNL     1      10.383  11.653  20.834  0.00  0.00    +0.000 A 
ATOM     21  C   UNL     1      11.460  12.117  20.080  0.00  0.00    +0.000 A 
ATOM     22  C   UNL     1      11.550  11.796  18.727  0.00  0.00    +0.000 A 
ATOM     23  C   UNL     1      10.563  11.010  18.126  0.00  0.00    +0.000 A 
ENDBRANCH  16  18
ENDBRANCH  15  16
ENDBRANCH  14  15
ENDBRANCH   2  14
TORSDOF 6
ENDMDL
MODEL 5
REMARK VINA RESULT:      -7.1      1.683      2.638
REMARK  Name = 
REMARK  7 active torsions:
REMARK  status: ('A' for Active; 'I' for Inactive)
REMARK    1  A    between atoms: C_1  and  C_2
REMARK    2  A    between atoms: C_2  and  N_3
REMARK    3  A    between atoms: C_4  and  S_5
REMARK    4  A    between atoms: S_5  and  C_6
REMARK    5  A    between atoms: C_6  and  C_7
REMARK    6  A    between atoms: C_7  and  C_9
REMARK    7  A    between atoms: C_17  and  C_18
REMARK                            x       y       z     vdW  Elec       q    Type
REMARK                         _______ _______ _______ _____ _____    ______ ____
ROOT
ATOM      1  N   UNL     1       3.765   5.226  17.913  0.00  0.00    +0.000 N 
ATOM      2  C   UNL     1       4.058   6.465  17.400  0.00  0.00    +0.000 A 
ATOM      3  N   UNL     1       3.411   7.395  18.060  0.00  0.00    +0.000 NA
ATOM      4  N   UNL     1       2.657   6.777  19.016  0.00  0.00    +0.000 NA
ATOM      5  C   UNL     1       2.877   5.472  18.966  0.00  0.00    +0.000 A 
ENDROOT
BRANCH   5   6
ATOM      6  C   UNL     1       2.226   4.517  19.877  0.00  0.00    +0.000 A 
ATOM      7  C   UNL     1       1.118   3.731  19.549  0.00  0.00    +0.000 A 
ATOM      8  C   UNL     1       0.601   2.812  20.465  0.00  0.00    +0.000 A 
ATOM      9  C   UNL     1       1.220   2.682  21.695  0.00  0.00    +0.000 A 
ATOM     10  N   UNL     1       2.301   3.402  22.055  0.00  0.00    +0.000 NA
ATOM     11  C   UNL     1       2.779   4.288  21.140  0.00  0.00    +0.000 A 
ENDBRANCH   5   6
BRANCH   1  13
ATOM     12  C   UNL     1       3.277   2.954  16.759  0.00  0.00    +0.000 C 
ATOM     13  C   UNL     1       4.201   3.904  17.507  0.00  0.00    +0.000 C 
ENDBRANCH   1  13
BRANCH   2  14
ATOM     14  S   UNL     1       5.051   6.799  16.026  0.00  0.00    +0.000 S 
BRANCH  14  15
ATOM     15  C   UNL     1       6.701   6.446  16.677  0.00  0.00    +0.000 C 
BRANCH  15  16
ATOM     16  C   UNL     1       7.283   5.124  16.197  0.00  0.00    +0.000 C 
ATOM     17  O   UNL     1       7.861   4.316  16.925  0.00  0.00    +0.000 OA
BRANCH  16  18
ATOM     18  C   UNL     1       7.073   4.773  14.755  0.00  0.00    +0.000 A 
ATOM     19  C   UNL     1       6.143   3.802  14.358  0.00  0.00    +0.000 A 
ATOM     20  C   UNL     1       5.993   3.482  13.005  0.00  0.00    +0.000 A 
ATOM     21  C   UNL     1       6.767   4.127  12.041  0.00  0.00    +0.000 A 
ATOM     22  C   UNL     1       7.689   5.098  12.426  0.00  0.00    +0.000 A 
ATOM     23  C   UNL     1       7.840   5.425  13.777  0.00  0.00    +0.000 A 
ENDBRANCH  16  18
ENDBRANCH  15  16
ENDBRANCH  14  15
ENDBRANCH   2  14
TORSDOF 6
ENDMDL
MODEL 6
REMARK VINA RESULT:      -7.0      3.522      7.115
REMARK  Name = 
REMARK  7 active torsions:
REMARK  status: ('A' for Active; 'I' for Inactive)
REMARK    1  A    between atoms: C_1  and  C_2
REMARK    2  A    between atoms: C_2  and  N_3
REMARK    3  A    between atoms: C_4  and  S_5
REMARK    4  A    between atoms: S_5  and  C_6
REMARK    5  A    between atoms: C_6  and  C_7
REMARK    6  A    between atoms: C_7  and  C_9
REMARK    7  A    between atoms: C_17  and  C_18
REMARK                            x       y       z     vdW  Elec       q    Type
REMARK                         _______ _______ _______ _____ _____    ______ ____
ROOT
ATOM      1  N   UNL     1       4.997   3.936  17.793  0.00  0.00    +0.000 N 
ATOM      2  C   UNL     1       4.508   2.959  18.626  0.00  0.00    +0.000 A 
ATOM      3  N   UNL     1       4.955   3.136  19.845  0.00  0.00    +0.000 NA
ATOM      4  N   UNL     1       5.773   4.229  19.832  0.00  0.00    +0.000 NA
ATOM      5  C   UNL     1       5.789   4.746  18.613  0.00  0.00    +0.000 A 
ENDROOT
BRANCH   5   6
ATOM      6  C   UNL     1       6.566   5.946  18.265  0.00  0.00    +0.000 A 
ATOM      7  C   UNL     1       6.181   6.897  17.316  0.00  0.00    +0.000 A 
ATOM      8  C   UNL     1       6.960   8.034  17.091  0.00  0.00    +0.000 A 
ATOM      9  C   UNL     1       8.110   8.209  17.840  0.00  0.00    +0.000 A 
ATOM     10  N   UNL     1       8.517   7.332  18.780  0.00  0.00    +0.000 NA
ATOM     11  C   UNL     1       7.736   6.236  18.973  0.00  0.00    +0.000 A 
ENDBRANCH   5   6
BRANCH   1  13
ATOM     12  C   UNL     1       5.886   3.750  15.363  0.00  0.00    +0.000 C 
ATOM     13  C   UNL     1       4.816   4.146  16.369  0.00  0.00    +0.000 C 
ENDBRANCH   1  13
BRANCH   2  14
ATOM     14  S   UNL     1       3.521   1.618  18.166  0.00  0.00    +0.000 S 
BRANCH  14  15
ATOM     15  C   UNL     1       1.889   2.391  18.051  0.00  0.00    +0.000 C 
BRANCH  15  16
ATOM     16  C   UNL     1       1.473   3.141  19.308  0.00  0.00    +0.000 C 
ATOM     17  O   UNL     1       0.975   2.608  20.299  0.00  0.00    +0.000 OA
BRANCH  16  18
ATOM     18  C   UNL     1       1.754   4.613  19.345  0.00  0.00    +0.000 A 
ATOM     19  C   UNL     1       1.704   5.346  20.540  0.00  0.00    +0.000 A 
ATOM     20  C   UNL     1       1.947   6.722  20.533  0.00  0.00    +0.000 A 
ATOM     21  C   UNL     1       2.240   7.377  19.338  0.00  0.00    +0.000 A 
ATOM     22  C   UNL     1       2.298   6.656  18.146  0.00  0.00    +0.000 A 
ATOM     23  C   UNL     1       2.061   5.279  18.149  0.00  0.00    +0.000 A 
ENDBRANCH  16  18
ENDBRANCH  15  16
ENDBRANCH  14  15
ENDBRANCH   2  14
TORSDOF 6
ENDMDL
MODEL 7
REMARK VINA RESULT:      -7.0      5.213      7.246
REMARK  Name = 
REMARK  7 active torsions:
REMARK  status: ('A' for Active; 'I' for Inactive)
REMARK    1  A    between atoms: C_1  and  C_2
REMARK    2  A    between atoms: C_2  and  N_3
REMARK    3  A    between atoms: C_4  and  S_5
REMARK    4  A    between atoms: S_5  and  C_6
REMARK    5  A    between atoms: C_6  and  C_7
REMARK    6  A    between atoms: C_7  and  C_9
REMARK    7  A    between atoms: C_17  and  C_18
REMARK                            x       y       z     vdW  Elec       q    Type
REMARK                         _______ _______ _______ _____ _____    ______ ____
ROOT
ATOM      1  N   UNL     1       5.801   5.780  17.666  0.00  0.00    +0.000 N 
ATOM      2  C   UNL     1       6.971   6.386  18.055  0.00  0.00    +0.000 A 
ATOM      3  N   UNL     1       7.343   5.943  19.231  0.00  0.00    +0.000 NA
ATOM      4  N   UNL     1       6.404   5.045  19.653  0.00  0.00    +0.000 NA
ATOM      5  C   UNL     1       5.481   4.908  18.713  0.00  0.00    +0.000 A 
ENDROOT
BRANCH   5   6
ATOM      6  C   UNL     1       4.332   4.000  18.849  0.00  0.00    +0.000 A 
ATOM      7  C   UNL     1       4.131   2.849  18.082  0.00  0.00    +0.000 A 
ATOM      8  C   UNL     1       3.035   2.017  18.321  0.00  0.00    +0.000 A 
ATOM      9  C   UNL     1       2.163   2.347  19.344  0.00  0.00    +0.000 A 
ATOM     10  N   UNL     1       2.320   3.434  20.123  0.00  0.00    +0.000 NA
ATOM     11  C   UNL     1       3.398   4.223  19.864  0.00  0.00    +0.000 A 
ENDBRANCH   5   6
BRANCH   1  13
ATOM     12  C   UNL     1       5.347   5.287  15.161  0.00  0.00    +0.000 C 
ATOM     13  C   UNL     1       4.990   5.959  16.478  0.00  0.00    +0.000 C 
ENDBRANCH   1  13
BRANCH   2  14
ATOM     14  S   UNL     1       7.819   7.625  17.200  0.00  0.00    +0.000 S 
BRANCH  14  15
ATOM     15  C   UNL     1       8.442   8.643  18.560  0.00  0.00    +0.000 C 
BRANCH  15  16
ATOM     16  C   UNL     1       8.579  10.118  18.211  0.00  0.00    +0.000 C 
ATOM     17  O   UNL     1       7.778  10.743  17.516  0.00  0.00    +0.000 OA
BRANCH  16  18
ATOM     18  C   UNL     1       9.737  10.854  18.816  0.00  0.00    +0.000 A 
ATOM     19  C   UNL     1       9.781  11.169  20.182  0.00  0.00    +0.000 A 
ATOM     20  C   UNL     1      10.865  11.879  20.706  0.00  0.00    +0.000 A 
ATOM     21  C   UNL     1      11.909  12.280  19.875  0.00  0.00    +0.000 A 
ATOM     22  C   UNL     1      11.877  11.966  18.517  0.00  0.00    +0.000 A 
ATOM     23  C   UNL     1      10.798  11.252  17.989  0.00  0.00    +0.000 A 
ENDBRANCH  16  18
ENDBRANCH  15  16
ENDBRANCH  14  15
ENDBRANCH   2  14
TORSDOF 6
ENDMDL
MODEL 8
REMARK VINA RESULT:      -6.9      2.874      7.723
REMARK  Name = 
REMARK  7 active torsions:
REMARK  status: ('A' for Active; 'I' for Inactive)
REMARK    1  A    between atoms: C_1  and  C_2
REMARK    2  A    between atoms: C_2  and  N_3
REMARK    3  A    between atoms: C_4  and  S_5
REMARK    4  A    between atoms: S_5  and  C_6
REMARK    5  A    between atoms: C_6  and  C_7
REMARK    6  A    between atoms: C_7  and  C_9
REMARK    7  A    between atoms: C_17  and  C_18
REMARK                            x       y       z     vdW  Elec       q    Type
REMARK                         _______ _______ _______ _____ _____    ______ ____
ROOT
ATOM      1  N   UNL     1       5.487   4.971  16.647  0.00  0.00    +0.000 N 
ATOM      2  C   UNL     1       5.849   5.713  17.744  0.00  0.00    +0.000 A 
ATOM      3  N   UNL     1       6.961   6.364  17.506  0.00  0.00    +0.000 NA
ATOM      4  N   UNL     1       7.369   6.040  16.244  0.00  0.00    +0.000 NA
ATOM      5  C   UNL     1       6.480   5.226  15.695  0.00  0.00    +0.000 A 
ENDROOT
BRANCH   5   6
ATOM      6  C   UNL     1       6.616   4.701  14.328  0.00  0.00    +0.000 A 
ATOM      7  C   UNL     1       5.777   3.741  13.756  0.00  0.00    +0.000 A 
ATOM      8  C   UNL     1       5.952   3.342  12.429  0.00  0.00    +0.000 A 
ATOM      9  C   UNL     1       6.962   3.930  11.688  0.00  0.00    +0.000 A 
ATOM     10  N   UNL     1       7.788   4.871  12.185  0.00  0.00    +0.000 NA
ATOM     11  C   UNL     1       7.590   5.237  13.480  0.00  0.00    +0.000 A 
ENDBRANCH   5   6
BRANCH   1  13
ATOM     12  C   UNL     1       4.127   2.875  17.344  0.00  0.00    +0.000 C 
ATOM     13  C   UNL     1       4.369   4.072  16.437  0.00  0.00    +0.000 C 
ENDBRANCH   1  13
BRANCH   2  14
ATOM     14  S   UNL     1       5.041   5.747  19.271  0.00  0.00    +0.000 S 
BRANCH  14  15
ATOM     15  C   UNL     1       3.535   6.664  18.865  0.00  0.00    +0.000 C 
BRANCH  15  16
ATOM     16  C   UNL     1       2.387   6.420  19.833  0.00  0.00    +0.000 C 
ATOM     17  O   UNL     1       1.746   7.314  20.387  0.00  0.00    +0.000 OA
BRANCH  16  18
ATOM     18  C   UNL     1       1.984   4.995  20.066  0.00  0.00    +0.000 A 
ATOM     19  C   UNL     1       1.376   4.225  19.065  0.00  0.00    +0.000 A 
ATOM     20  C   UNL     1       0.991   2.908  19.326  0.00  0.00    +0.000 A 
ATOM     21  C   UNL     1       1.207   2.349  20.584  0.00  0.00    +0.000 A 
ATOM     22  C   UNL     1       1.816   3.105  21.584  0.00  0.00    +0.000 A 
ATOM     23  C   UNL     1       2.209   4.421  21.326  0.00  0.00    +0.000 A 
ENDBRANCH  16  18
ENDBRANCH  15  16
ENDBRANCH  14  15
ENDBRANCH   2  14
TORSDOF 6
ENDMDL
MODEL 9
REMARK VINA RESULT:      -6.9      5.381      7.298
REMARK  Name = 
REMARK  7 active torsions:
REMARK  status: ('A' for Active; 'I' for Inactive)
REMARK    1  A    between atoms: C_1  and  C_2
REMARK    2  A    between atoms: C_2  and  N_3
REMARK    3  A    between atoms: C_4  and  S_5
REMARK    4  A    between atoms: S_5  and  C_6
REMARK    5  A    between atoms: C_6  and  C_7
REMARK    6  A    between atoms: C_7  and  C_9
REMARK    7  A    between atoms: C_17  and  C_18
REMARK                            x       y       z     vdW  Elec       q    Type
REMARK                         _______ _______ _______ _____ _____    ______ ____
ROOT
ATOM      1  N   UNL     1       5.850   6.077  18.012  0.00  0.00    +0.000 N 
ATOM      2  C   UNL     1       7.111   6.574  18.236  0.00  0.00    +0.000 A 
ATOM      3  N   UNL     1       7.626   6.037  19.315  0.00  0.00    +0.000 NA
ATOM      4  N   UNL     1       6.697   5.186  19.840  0.00  0.00    +0.000 NA
ATOM      5  C   UNL     1       5.630   5.170  19.055  0.00  0.00    +0.000 A 
ENDROOT
BRANCH   5   6
ATOM      6  C   UNL     1       4.447   4.339  19.332  0.00  0.00    +0.000 A 
ATOM      7  C   UNL     1       3.297   4.785  19.988  0.00  0.00    +0.000 A 
ATOM      8  C   UNL     1       2.200   3.935  20.158  0.00  0.00    +0.000 A 
ATOM      9  C   UNL     1       2.271   2.651  19.647  0.00  0.00    +0.000 A 
ATOM     10  N   UNL     1       3.350   2.178  18.992  0.00  0.00    +0.000 NA
ATOM     11  C   UNL     1       4.399   3.031  18.844  0.00  0.00    +0.000 A 
ENDBRANCH   5   6
BRANCH   1  13
ATOM     12  C   UNL     1       5.098   5.966  15.532  0.00  0.00    +0.000 C 
ATOM     13  C   UNL     1       4.880   6.382  16.979  0.00  0.00    +0.000 C 
ENDBRANCH   1  13
BRANCH   2  14
ATOM     14  S   UNL     1       7.910   7.797  17.314  0.00  0.00    +0.000 S 
BRANCH  14  15
ATOM     15  C   UNL     1       8.517   8.895  18.618  0.00  0.00    +0.000 C 
BRANCH  15  16
ATOM     16  C   UNL     1       8.695  10.339  18.172  0.00  0.00    +0.000 C 
ATOM     17  O   UNL     1       7.894  10.951  17.466  0.00  0.00    +0.000 OA
BRANCH  16  18
ATOM     18  C   UNL     1       9.900  11.066  18.690  0.00  0.00    +0.000 A 
ATOM     19  C   UNL     1      10.134  11.226  20.063  0.00  0.00    +0.000 A 
ATOM     20  C   UNL     1      11.254  11.932  20.509  0.00  0.00    +0.000 A 
ATOM     21  C   UNL     1      12.147  12.484  19.592  0.00  0.00    +0.000 A 
ATOM     22  C   UNL     1      11.926  12.325  18.225  0.00  0.00    +0.000 A 
ATOM     23  C   UNL     1      10.810  11.615  17.774  0.00  0.00    +0.000 A 
ENDBRANCH  16  18
ENDBRANCH  15  16
ENDBRANCH  14  15
ENDBRANCH   2  14
TORSDOF 6
ENDMDL
