MODEL 1
REMARK VINA RESULT:      -7.0      0.000      0.000
REMARK  Name = 
REMARK  6 active torsions:
REMARK  status: ('A' for Active; 'I' for Inactive)
REMARK    1  A    between atoms: C_1  and  C_2
REMARK    2  A    between atoms: C_2  and  O_3
REMARK    3  A    between atoms: O_3  and  C_4
REMARK    4  A    between atoms: C_7  and  S_8
REMARK    5  A    between atoms: S_8  and  C_11
REMARK    6  A    between atoms: C_17  and  N_18
REMARK                            x       y       z     vdW  Elec       q    Type
REMARK                         _______ _______ _______ _____ _____    ______ ____
ROOT
ATOM      1  S   UNL     1       6.470   5.646  15.572  0.00  0.00    +0.000 S 
ATOM      2  O   UNL     1       7.807   6.188  15.499  0.00  0.00    +0.000 OA
ATOM      3  O   UNL     1       5.321   6.537  15.632  0.00  0.00    +0.000 OA
ENDROOT
BRANCH   1   4
ATOM      4  C   UNL     1       6.364   4.545  16.973  0.00  0.00    +0.000 C 
ATOM      5  C   UNL     1       7.609   4.520  17.834  0.00  0.00    +0.000 C 
ATOM      6  S   UNL     1       7.381   5.779  19.060  0.00  0.00    +0.000 S 
ATOM      7  O   UNL     1       8.120   6.956  18.649  0.00  0.00    +0.000 OA
ATOM      8  O   UNL     1       7.598   5.181  20.362  0.00  0.00    +0.000 OA
ATOM      9  C   UNL     1       5.636   6.039  18.804  0.00  0.00    +0.000 C 
ATOM     10  C   UNL     1       5.148   4.912  17.856  0.00  0.00    +0.000 C 
BRANCH  10  11
ATOM     11  N   UNL     1       4.577   3.805  18.674  0.00  0.00    +0.000 NA
ATOM     12  C   UNL     1       3.830   2.759  17.954  0.00  0.00    +0.000 C 
ATOM     13  C   UNL     1       2.427   3.298  17.792  0.00  0.00    +0.000 C 
ATOM     14  C   UNL     1       2.184   3.979  19.123  0.00  0.00    +0.000 C 
ATOM     15  C   UNL     1       3.577   4.336  19.645  0.00  0.00    +0.000 C 
ENDBRANCH  10  11
ENDBRANCH   1   4
BRANCH   1  19
ATOM     16  C   UNL     1       5.835   2.929  11.964  0.00  0.00    +0.000 A 
ATOM     17  C   UNL     1       7.064   3.558  12.165  0.00  0.00    +0.000 A 
ATOM     18  C   UNL     1       7.260   4.383  13.272  0.00  0.00    +0.000 A 
ATOM     19  C   UNL     1       6.202   4.603  14.160  0.00  0.00    +0.000 A 
ATOM     20  C   UNL     1       4.959   4.005  13.952  0.00  0.00    +0.000 A 
ATOM     21  C   UNL     1       4.777   3.165  12.846  0.00  0.00    +0.000 A 
BRANCH  16  22
ATOM     22  O   UNL     1       5.785   2.112  10.869  0.00  0.00    +0.000 OA
BRANCH  22  24
ATOM     23  C   UNL     1       6.093  -0.203  11.326  0.00  0.00    +0.000 C 
ATOM     24  C   UNL     1       6.755   1.066  10.819  0.00  0.00    +0.000 C 
ENDBRANCH  22  24
ENDBRANCH  16  22
ENDBRANCH   1  19
TORSDOF 5
ENDMDL
MODEL 2
REMARK VINA RESULT:      -6.9      0.275      1.022
REMARK  Name = 
REMARK  6 active torsions:
REMARK  status: ('A' for Active; 'I' for Inactive)
REMARK    1  A    between atoms: C_1  and  C_2
REMARK    2  A    between atoms: C_2  and  O_3
REMARK    3  A    between atoms: O_3  and  C_4
REMARK    4  A    between atoms: C_7  and  S_8
REMARK    5  A    between atoms: S_8  and  C_11
REMARK    6  A    between atoms: C_17  and  N_18
REMARK                            x       y       z     vdW  Elec       q    Type
REMARK                         _______ _______ _______ _____ _____    ______ ____
ROOT
ATOM      1  S   UNL     1       6.465   5.743  15.674  0.00  0.00    +0.000 S 
ATOM      2  O   UNL     1       7.791   6.315  15.681  0.00  0.00    +0.000 OA
ATOM      3  O   UNL     1       5.295   6.608  15.651  0.00  0.00    +0.000 OA
ENDROOT
BRANCH   1   4
ATOM      4  C   UNL     1       6.294   4.652  17.076  0.00  0.00    +0.000 C 
ATOM      5  C   UNL     1       7.544   4.533  17.921  0.00  0.00    +0.000 C 
ATOM      6  S   UNL     1       7.426   5.805  19.150  0.00  0.00    +0.000 S 
ATOM      7  O   UNL     1       8.246   6.922  18.730  0.00  0.00    +0.000 OA
ATOM      8  O   UNL     1       7.614   5.191  20.449  0.00  0.00    +0.000 OA
ATOM      9  C   UNL     1       5.703   6.195  18.916  0.00  0.00    +0.000 C 
ATOM     10  C   UNL     1       5.120   5.109  17.974  0.00  0.00    +0.000 C 
BRANCH  10  11
ATOM     11  N   UNL     1       4.477   4.048  18.800  0.00  0.00    +0.000 NA
ATOM     12  C   UNL     1       4.120   2.793  18.114  0.00  0.00    +0.000 C 
ATOM     13  C   UNL     1       2.773   3.045  17.477  0.00  0.00    +0.000 C 
ATOM     14  C   UNL     1       2.058   3.856  18.538  0.00  0.00    +0.000 C 
ATOM     15  C   UNL     1       3.174   4.526  19.343  0.00  0.00    +0.000 C 
ENDBRANCH  10  11
ENDBRANCH   1   4
BRANCH   1  19
ATOM     16  C   UNL     1       6.010   3.051  12.021  0.00  0.00    +0.000 A 
ATOM     17  C   UNL     1       5.007   3.102  12.988  0.00  0.00    +0.000 A 
ATOM     18  C   UNL     1       5.143   3.930  14.102  0.00  0.00    +0.000 A 
ATOM     19  C   UNL     1       6.311   4.683  14.258  0.00  0.00    +0.000 A 
ATOM     20  C   UNL     1       7.336   4.616  13.313  0.00  0.00    +0.000 A 
ATOM     21  C   UNL     1       7.181   3.794  12.190  0.00  0.00    +0.000 A 
BRANCH  16  22
ATOM     22  O   UNL     1       5.736   2.236  10.958  0.00  0.00    +0.000 OA
BRANCH  22  24
ATOM     23  C   UNL     1       6.090  -0.091  11.302  0.00  0.00    +0.000 C 
ATOM     24  C   UNL     1       6.669   1.184  10.714  0.00  0.00    +0.000 C 
ENDBRANCH  22  24
ENDBRANCH  16  22
ENDBRANCH   1  19
TORSDOF 5
ENDMDL
MODEL 3
REMARK VINA RESULT:      -6.7      0.996      1.670
REMARK  Name = 
REMARK  6 active torsions:
REMARK  status: ('A' for Active; 'I' for Inactive)
REMARK    1  A    between atoms: C_1  and  C_2
REMARK    2  A    between atoms: C_2  and  O_3
REMARK    3  A    between atoms: O_3  and  C_4
REMARK    4  A    between atoms: C_7  and  S_8
REMARK    5  A    between atoms: S_8  and  C_11
REMARK    6  A    between atoms: C_17  and  N_18
REMARK                            x       y       z     vdW  Elec       q    Type
REMARK                         _______ _______ _______ _____ _____    ______ ____
ROOT
ATOM      1  S   UNL     1       6.696   5.689  15.641  0.00  0.00    +0.000 S 
ATOM      2  O   UNL     1       8.087   6.044  15.490  0.00  0.00    +0.000 OA
ATOM      3  O   UNL     1       5.687   6.728  15.785  0.00  0.00    +0.000 OA
ENDROOT
BRANCH   1   4
ATOM      4  C   UNL     1       6.524   4.584  17.032  0.00  0.00    +0.000 C 
ATOM      5  C   UNL     1       7.739   4.534  17.934  0.00  0.00    +0.000 C 
ATOM      6  S   UNL     1       7.490   5.791  19.158  0.00  0.00    +0.000 S 
ATOM      7  O   UNL     1       8.262   6.957  18.778  0.00  0.00    +0.000 OA
ATOM      8  O   UNL     1       7.653   5.184  20.463  0.00  0.00    +0.000 OA
ATOM      9  C   UNL     1       5.760   6.082  18.845  0.00  0.00    +0.000 C 
ATOM     10  C   UNL     1       5.285   4.968  17.875  0.00  0.00    +0.000 C 
BRANCH  10  11
ATOM     11  N   UNL     1       4.668   3.867  18.668  0.00  0.00    +0.000 NA
ATOM     12  C   UNL     1       3.997   2.794  17.913  0.00  0.00    +0.000 C 
ATOM     13  C   UNL     1       2.603   3.305  17.629  0.00  0.00    +0.000 C 
ATOM     14  C   UNL     1       2.245   4.008  18.922  0.00  0.00    +0.000 C 
ATOM     15  C   UNL     1       3.586   4.399  19.545  0.00  0.00    +0.000 C 
ENDBRANCH  10  11
ENDBRANCH   1   4
BRANCH   1  19
ATOM     16  C   UNL     1       5.366   3.251  12.024  0.00  0.00    +0.000 A 
ATOM     17  C   UNL     1       4.506   3.430  13.107  0.00  0.00    +0.000 A 
ATOM     18  C   UNL     1       4.911   4.182  14.210  0.00  0.00    +0.000 A 
ATOM     19  C   UNL     1       6.199   4.724  14.235  0.00  0.00    +0.000 A 
ATOM     20  C   UNL     1       7.080   4.525  13.171  0.00  0.00    +0.000 A 
ATOM     21  C   UNL     1       6.658   3.783  12.061  0.00  0.00    +0.000 A 
BRANCH  16  22
ATOM     22  O   UNL     1       4.835   2.534  10.987  0.00  0.00    +0.000 OA
BRANCH  22  24
ATOM     23  C   UNL     1       3.284   3.954   9.875  0.00  0.00    +0.000 C 
ATOM     24  C   UNL     1       3.441   2.718  10.743  0.00  0.00    +0.000 C 
ENDBRANCH  22  24
ENDBRANCH  16  22
ENDBRANCH   1  19
TORSDOF 5
ENDMDL
MODEL 4
REMARK VINA RESULT:      -6.1      3.196      4.446
REMARK  Name = 
REMARK  6 active torsions:
REMARK  status: ('A' for Active; 'I' for Inactive)
REMARK    1  A    between atoms: C_1  and  C_2
REMARK    2  A    between atoms: C_2  and  O_3
REMARK    3  A    between atoms: O_3  and  C_4
REMARK    4  A    between atoms: C_7  and  S_8
REMARK    5  A    between atoms: S_8  and  C_11
REMARK    6  A    between atoms: C_17  and  N_18
REMARK                            x       y       z     vdW  Elec       q    Type
REMARK                         _______ _______ _______ _____ _____    ______ ____
ROOT
ATOM      1  S   UNL     1       5.140   4.379  18.857  0.00  0.00    +0.000 S 
ATOM      2  O   UNL     1       5.333   3.065  19.423  0.00  0.00    +0.000 OA
ATOM      3  O   UNL     1       5.736   5.545  19.492  0.00  0.00    +0.000 OA
ENDROOT
BRANCH   1   4
ATOM      4  C   UNL     1       3.391   4.694  18.700  0.00  0.00    +0.000 C 
ATOM      5  C   UNL     1       2.522   3.475  18.922  0.00  0.00    +0.000 C 
ATOM      6  S   UNL     1       2.157   3.442  20.656  0.00  0.00    +0.000 S 
ATOM      7  O   UNL     1       3.043   2.487  21.290  0.00  0.00    +0.000 OA
ATOM      8  O   UNL     1       0.720   3.341  20.810  0.00  0.00    +0.000 OA
ATOM      9  C   UNL     1       2.685   5.102  21.035  0.00  0.00    +0.000 C 
ATOM     10  C   UNL     1       2.954   5.809  19.681  0.00  0.00    +0.000 C 
BRANCH  10  11
ATOM     11  N   UNL     1       1.742   6.584  19.291  0.00  0.00    +0.000 NA
ATOM     12  C   UNL     1       1.645   7.008  17.883  0.00  0.00    +0.000 C 
ATOM     13  C   UNL     1       2.437   8.292  17.788  0.00  0.00    +0.000 C 
ATOM     14  C   UNL     1       2.078   8.993  19.082  0.00  0.00    +0.000 C 
ATOM     15  C   UNL     1       1.681   7.870  20.043  0.00  0.00    +0.000 C 
ENDBRANCH  10  11
ENDBRANCH   1   4
BRANCH   1  19
ATOM     16  C   UNL     1       6.644   4.405  14.551  0.00  0.00    +0.000 A 
ATOM     17  C   UNL     1       5.361   3.947  14.847  0.00  0.00    +0.000 A 
ATOM     18  C   UNL     1       4.899   3.945  16.163  0.00  0.00    +0.000 A 
ATOM     19  C   UNL     1       5.747   4.374  17.188  0.00  0.00    +0.000 A 
ATOM     20  C   UNL     1       7.044   4.806  16.909  0.00  0.00    +0.000 A 
ATOM     21  C   UNL     1       7.492   4.819  15.582  0.00  0.00    +0.000 A 
BRANCH  16  22
ATOM     22  O   UNL     1       6.960   4.398  13.221  0.00  0.00    +0.000 OA
BRANCH  22  24
ATOM     23  C   UNL     1       7.049   2.660  11.598  0.00  0.00    +0.000 C 
ATOM     24  C   UNL     1       6.137   3.588  12.383  0.00  0.00    +0.000 C 
ENDBRANCH  22  24
ENDBRANCH  16  22
ENDBRANCH   1  19
TORSDOF 5
ENDMDL
MODEL 5
REMARK VINA RESULT:      -6.1      3.920      6.455
REMARK  Name = 
REMARK  6 active torsions:
REMARK  status: ('A' for Active; 'I' for Inactive)
REMARK    1  A    between atoms: C_1  and  C_2
REMARK    2  A    between atoms: C_2  and  O_3
REMARK    3  A    between atoms: O_3  and  C_4
REMARK    4  A    between atoms: C_7  and  S_8
REMARK    5  A    between atoms: S_8  and  C_11
REMARK    6  A    between atoms: C_17  and  N_18
REMARK                            x       y       z     vdW  Elec       q    Type
REMARK                         _______ _______ _______ _____ _____    ______ ____
ROOT
ATOM      1  S   UNL     1       5.630   4.259  17.961  0.00  0.00    +0.000 S 
ATOM      2  O   UNL     1       6.119   3.468  16.857  0.00  0.00    +0.000 OA
ATOM      3  O   UNL     1       5.804   3.793  19.329  0.00  0.00    +0.000 OA
ENDROOT
BRANCH   1   4
ATOM      4  C   UNL     1       3.889   4.574  17.724  0.00  0.00    +0.000 C 
ATOM      5  C   UNL     1       3.143   3.442  17.053  0.00  0.00    +0.000 C 
ATOM      6  S   UNL     1       2.569   2.391  18.360  0.00  0.00    +0.000 S 
ATOM      7  O   UNL     1       3.471   1.261  18.465  0.00  0.00    +0.000 OA
ATOM      8  O   UNL     1       1.145   2.193  18.183  0.00  0.00    +0.000 OA
ATOM      9  C   UNL     1       2.855   3.521  19.708  0.00  0.00    +0.000 C 
ATOM     10  C   UNL     1       3.210   4.893  19.078  0.00  0.00    +0.000 C 
BRANCH  10  11
ATOM     11  N   UNL     1       1.977   5.728  19.009  0.00  0.00    +0.000 NA
ATOM     12  C   UNL     1       1.929   6.764  17.962  0.00  0.00    +0.000 C 
ATOM     13  C   UNL     1       2.649   7.961  18.540  0.00  0.00    +0.000 C 
ATOM     14  C   UNL     1       2.182   7.957  19.980  0.00  0.00    +0.000 C 
ATOM     15  C   UNL     1       1.802   6.504  20.270  0.00  0.00    +0.000 C 
ENDBRANCH  10  11
ENDBRANCH   1   4
BRANCH   1  19
ATOM     16  C   UNL     1       7.641   8.347  17.766  0.00  0.00    +0.000 A 
ATOM     17  C   UNL     1       8.207   7.319  18.519  0.00  0.00    +0.000 A 
ATOM     18  C   UNL     1       7.595   6.067  18.574  0.00  0.00    +0.000 A 
ATOM     19  C   UNL     1       6.390   5.862  17.894  0.00  0.00    +0.000 A 
ATOM     20  C   UNL     1       5.798   6.892  17.163  0.00  0.00    +0.000 A 
ATOM     21  C   UNL     1       6.429   8.141  17.102  0.00  0.00    +0.000 A 
BRANCH  16  22
ATOM     22  O   UNL     1       8.360   9.510  17.758  0.00  0.00    +0.000 OA
BRANCH  22  24
ATOM     23  C   UNL     1       9.873  11.076  18.718  0.00  0.00    +0.000 C 
ATOM     24  C   UNL     1       8.996   9.866  18.986  0.00  0.00    +0.000 C 
ENDBRANCH  22  24
ENDBRANCH  16  22
ENDBRANCH   1  19
TORSDOF 5
ENDMDL
MODEL 6
REMARK VINA RESULT:      -6.0     11.095     12.787
REMARK  Name = 
REMARK  6 active torsions:
REMARK  status: ('A' for Active; 'I' for Inactive)
REMARK    1  A    between atoms: C_1  and  C_2
REMARK    2  A    between atoms: C_2  and  O_3
REMARK    3  A    between atoms: O_3  and  C_4
REMARK    4  A    between atoms: C_7  and  S_8
REMARK    5  A    between atoms: S_8  and  C_11
REMARK    6  A    between atoms: C_17  and  N_18
REMARK                            x       y       z     vdW  Elec       q    Type
REMARK                         _______ _______ _______ _____ _____    ______ ____
ROOT
ATOM      1  S   UNL     1      -3.928  13.105  20.978  0.00  0.00    +0.000 S 
ATOM      2  O   UNL     1      -4.368  14.470  20.815  0.00  0.00    +0.000 OA
ATOM      3  O   UNL     1      -4.640  12.209  21.877  0.00  0.00    +0.000 OA
ENDROOT
BRANCH   1   4
ATOM      4  C   UNL     1      -2.213  13.101  21.473  0.00  0.00    +0.000 C 
ATOM      5  C   UNL     1      -1.716  14.436  21.987  0.00  0.00    +0.000 C 
ATOM      6  S   UNL     1      -2.013  14.427  23.735  0.00  0.00    +0.000 S 
ATOM      7  O   UNL     1      -3.223  15.180  23.995  0.00  0.00    +0.000 OA
ATOM      8  O   UNL     1      -0.771  14.762  24.401  0.00  0.00    +0.000 OA
ATOM      9  C   UNL     1      -2.334  12.683  23.908  0.00  0.00    +0.000 C 
ATOM     10  C   UNL     1      -1.966  12.021  22.554  0.00  0.00    +0.000 C 
BRANCH  10  11
ATOM     11  N   UNL     1      -0.577  11.487  22.638  0.00  0.00    +0.000 NA
ATOM     12  C   UNL     1       0.139  11.284  21.366  0.00  0.00    +0.000 C 
ATOM     13  C   UNL     1      -0.299   9.927  20.864  0.00  0.00    +0.000 C 
ATOM     14  C   UNL     1      -0.350   9.110  22.137  0.00  0.00    +0.000 C 
ATOM     15  C   UNL     1      -0.576  10.130  23.255  0.00  0.00    +0.000 C 
ENDBRANCH  10  11
ENDBRANCH   1   4
BRANCH   1  19
ATOM     16  C   UNL     1      -3.988  11.117  16.874  0.00  0.00    +0.000 A 
ATOM     17  C   UNL     1      -5.173  11.563  17.459  0.00  0.00    +0.000 A 
ATOM     18  C   UNL     1      -5.153  12.177  18.711  0.00  0.00    +0.000 A 
ATOM     19  C   UNL     1      -3.939  12.309  19.391  0.00  0.00    +0.000 A 
ATOM     20  C   UNL     1      -2.751  11.839  18.830  0.00  0.00    +0.000 A 
ATOM     21  C   UNL     1      -2.779  11.239  17.565  0.00  0.00    +0.000 A 
BRANCH  16  22
ATOM     22  O   UNL     1      -4.135  10.575  15.628  0.00  0.00    +0.000 OA
BRANCH  22  24
ATOM     23  C   UNL     1      -3.309   9.875  13.509  0.00  0.00    +0.000 C 
ATOM     24  C   UNL     1      -2.929  10.283  14.922  0.00  0.00    +0.000 C 
ENDBRANCH  22  24
ENDBRANCH  16  22
ENDBRANCH   1  19
TORSDOF 5
ENDMDL
MODEL 7
REMARK VINA RESULT:      -5.9      4.536      7.874
REMARK  Name = 
REMARK  6 active torsions:
REMARK  status: ('A' for Active; 'I' for Inactive)
REMARK    1  A    between atoms: C_1  and  C_2
REMARK    2  A    between atoms: C_2  and  O_3
REMARK    3  A    between atoms: O_3  and  C_4
REMARK    4  A    between atoms: C_7  and  S_8
REMARK    5  A    between atoms: S_8  and  C_11
REMARK    6  A    between atoms: C_17  and  N_18
REMARK                            x       y       z     vdW  Elec       q    Type
REMARK                         _______ _______ _______ _____ _____    ______ ____
ROOT
ATOM      1  S   UNL     1       1.924   5.385  19.064  0.00  0.00    +0.000 S 
ATOM      2  O   UNL     1       1.338   4.908  20.294  0.00  0.00    +0.000 OA
ATOM      3  O   UNL     1       1.389   4.949  17.782  0.00  0.00    +0.000 OA
ENDROOT
BRANCH   1   4
ATOM      4  C   UNL     1       3.669   5.011  19.067  0.00  0.00    +0.000 C 
ATOM      5  C   UNL     1       4.137   4.262  20.297  0.00  0.00    +0.000 C 
ATOM      6  S   UNL     1       3.974   2.540  19.912  0.00  0.00    +0.000 S 
ATOM      7  O   UNL     1       2.751   2.052  20.517  0.00  0.00    +0.000 OA
ATOM      8  O   UNL     1       5.245   1.899  20.180  0.00  0.00    +0.000 OA
ATOM      9  C   UNL     1       3.752   2.715  18.152  0.00  0.00    +0.000 C 
ATOM     10  C   UNL     1       4.049   4.198  17.806  0.00  0.00    +0.000 C 
BRANCH  10  11
ATOM     11  N   UNL     1       5.465   4.315  17.355  0.00  0.00    +0.000 NA
ATOM     12  C   UNL     1       6.067   5.660  17.387  0.00  0.00    +0.000 C 
ATOM     13  C   UNL     1       5.651   6.323  16.094  0.00  0.00    +0.000 C 
ATOM     14  C   UNL     1       5.762   5.189  15.096  0.00  0.00    +0.000 C 
ATOM     15  C   UNL     1       5.592   3.914  15.925  0.00  0.00    +0.000 C 
ENDBRANCH  10  11
ENDBRANCH   1   4
BRANCH   1  19
ATOM     16  C   UNL     1       1.674   9.937  18.960  0.00  0.00    +0.000 A 
ATOM     17  C   UNL     1       2.080   9.228  17.830  0.00  0.00    +0.000 A 
ATOM     18  C   UNL     1       2.150   7.835  17.860  0.00  0.00    +0.000 A 
ATOM     19  C   UNL     1       1.843   7.158  19.044  0.00  0.00    +0.000 A 
ATOM     20  C   UNL     1       1.466   7.859  20.191  0.00  0.00    +0.000 A 
ATOM     21  C   UNL     1       1.384   9.256  20.145  0.00  0.00    +0.000 A 
BRANCH  16  22
ATOM     22  O   UNL     1       1.604  11.292  18.789  0.00  0.00    +0.000 OA
BRANCH  22  24
ATOM     23  C   UNL     1      -0.337  12.643  18.529  0.00  0.00    +0.000 C 
ATOM     24  C   UNL     1       0.587  11.968  19.527  0.00  0.00    +0.000 C 
ENDBRANCH  22  24
ENDBRANCH  16  22
ENDBRANCH   1  19
TORSDOF 5
ENDMDL
MODEL 8
REMARK VINA RESULT:      -5.8      4.433      7.728
REMARK  Name = 
REMARK  6 active torsions:
REMARK  status: ('A' for Active; 'I' for Inactive)
REMARK    1  A    between atoms: C_1  and  C_2
REMARK    2  A    between atoms: C_2  and  O_3
REMARK    3  A    between atoms: O_3  and  C_4
REMARK    4  A    between atoms: C_7  and  S_8
REMARK    5  A    between atoms: S_8  and  C_11
REMARK    6  A    between atoms: C_17  and  N_18
REMARK                            x       y       z     vdW  Elec       q    Type
REMARK                         _______ _______ _______ _____ _____    ______ ____
ROOT
ATOM      1  S   UNL     1       2.106   4.790  20.162  0.00  0.00    +0.000 S 
ATOM      2  O   UNL     1       2.114   4.735  21.605  0.00  0.00    +0.000 OA
ATOM      3  O   UNL     1       1.071   4.098  19.409  0.00  0.00    +0.000 OA
ENDROOT
BRANCH   1   4
ATOM      4  C   UNL     1       3.682   4.221  19.550  0.00  0.00    +0.000 C 
ATOM      5  C   UNL     1       3.969   2.764  19.844  0.00  0.00    +0.000 C 
ATOM      6  S   UNL     1       3.330   1.852  18.465  0.00  0.00    +0.000 S 
ATOM      7  O   UNL     1       2.041   1.305  18.839  0.00  0.00    +0.000 OA
ATOM      8  O   UNL     1       4.386   0.994  17.967  0.00  0.00    +0.000 OA
ATOM      9  C   UNL     1       3.105   3.230  17.358  0.00  0.00    +0.000 C 
ATOM     10  C   UNL     1       3.784   4.457  18.023  0.00  0.00    +0.000 C 
BRANCH  10  11
ATOM     11  N   UNL     1       5.162   4.603  17.475  0.00  0.00    +0.000 NA
ATOM     12  C   UNL     1       5.714   5.968  17.410  0.00  0.00    +0.000 C 
ATOM     13  C   UNL     1       5.190   6.557  16.119  0.00  0.00    +0.000 C 
ATOM     14  C   UNL     1       5.279   5.384  15.166  0.00  0.00    +0.000 C 
ATOM     15  C   UNL     1       5.212   4.143  16.058  0.00  0.00    +0.000 C 
ENDBRANCH  10  11
ENDBRANCH   1   4
BRANCH   1  19
ATOM     16  C   UNL     1       1.828   9.140  18.820  0.00  0.00    +0.000 A 
ATOM     17  C   UNL     1       2.195   8.145  17.915  0.00  0.00    +0.000 A 
ATOM     18  C   UNL     1       2.274   6.814  18.324  0.00  0.00    +0.000 A 
ATOM     19  C   UNL     1       2.015   6.491  19.659  0.00  0.00    +0.000 A 
ATOM     20  C   UNL     1       1.678   7.481  20.582  0.00  0.00    +0.000 A 
ATOM     21  C   UNL     1       1.586   8.813  20.157  0.00  0.00    +0.000 A 
BRANCH  16  22
ATOM     22  O   UNL     1       1.745  10.396  18.285  0.00  0.00    +0.000 OA
BRANCH  22  24
ATOM     23  C   UNL     1      -0.555  10.987  18.433  0.00  0.00    +0.000 C 
ATOM     24  C   UNL     1       0.845  11.296  18.932  0.00  0.00    +0.000 C 
ENDBRANCH  22  24
ENDBRANCH  16  22
ENDBRANCH   1  19
TORSDOF 5
ENDMDL
MODEL 9
REMARK VINA RESULT:      -5.8      7.706      9.800
REMARK  Name = 
REMARK  6 active torsions:
REMARK  status: ('A' for Active; 'I' for Inactive)
REMARK    1  A    between atoms: C_1  and  C_2
REMARK    2  A    between atoms: C_2  and  O_3
REMARK    3  A    between atoms: O_3  and  C_4
REMARK    4  A    between atoms: C_7  and  S_8
REMARK    5  A    between atoms: S_8  and  C_11
REMARK    6  A    between atoms: C_17  and  N_18
REMARK                            x       y       z     vdW  Elec       q    Type
REMARK                         _______ _______ _______ _____ _____    ______ ____
ROOT
ATOM      1  S   UNL     1       0.907  10.871  19.805  0.00  0.00    +0.000 S 
ATOM      2  O   UNL     1       1.381  11.340  21.086  0.00  0.00    +0.000 OA
ATOM      3  O   UNL     1       1.228  11.608  18.592  0.00  0.00    +0.000 OA
ENDROOT
BRANCH   1   4
ATOM      4  C   UNL     1      -0.868  10.699  19.869  0.00  0.00    +0.000 C 
ATOM      5  C   UNL     1      -1.517  11.424  21.029  0.00  0.00    +0.000 C 
ATOM      6  S   UNL     1      -1.897  13.051  20.438  0.00  0.00    +0.000 S 
ATOM      7  O   UNL     1      -0.870  13.958  20.908  0.00  0.00    +0.000 OA
ATOM      8  O   UNL     1      -3.297  13.309  20.705  0.00  0.00    +0.000 OA
ATOM      9  C   UNL     1      -1.669  12.726  18.700  0.00  0.00    +0.000 C 
ATOM     10  C   UNL     1      -1.505  11.191  18.547  0.00  0.00    +0.000 C 
BRANCH  10  11
ATOM     11  N   UNL     1      -2.827  10.596  18.198  0.00  0.00    +0.000 NA
ATOM     12  C   UNL     1      -2.819   9.447  17.275  0.00  0.00    +0.000 C 
ATOM     13  C   UNL     1      -2.773  10.040  15.885  0.00  0.00    +0.000 C 
ATOM     14  C   UNL     1      -3.700  11.231  16.009  0.00  0.00    +0.000 C 
ATOM     15  C   UNL     1      -3.679  11.597  17.495  0.00  0.00    +0.000 C 
ENDBRANCH  10  11
ENDBRANCH   1   4
BRANCH   1  19
ATOM     16  C   UNL     1       2.393   6.609  19.156  0.00  0.00    +0.000 A 
ATOM     17  C   UNL     1       1.888   6.998  20.397  0.00  0.00    +0.000 A 
ATOM     18  C   UNL     1       1.428   8.300  20.593  0.00  0.00    +0.000 A 
ATOM     19  C   UNL     1       1.510   9.221  19.545  0.00  0.00    +0.000 A 
ATOM     20  C   UNL     1       2.041   8.853  18.308  0.00  0.00    +0.000 A 
ATOM     21  C   UNL     1       2.486   7.539  18.117  0.00  0.00    +0.000 A 
BRANCH  16  22
ATOM     22  O   UNL     1       2.769   5.297  19.080  0.00  0.00    +0.000 OA
BRANCH  22  24
ATOM     23  C   UNL     1       2.009   3.495  17.724  0.00  0.00    +0.000 C 
ATOM     24  C   UNL     1       1.713   4.345  18.947  0.00  0.00    +0.000 C 
ENDBRANCH  22  24
ENDBRANCH  16  22
ENDBRANCH   1  19
TORSDOF 5
ENDMDL
