MODEL 1
REMARK VINA RESULT:      -6.1      0.000      0.000
REMARK  Name = 
REMARK  5 active torsions:
REMARK  status: ('A' for Active; 'I' for Inactive)
REMARK    1  A    between atoms: N_1  and  CA_2
REMARK    2  A    between atoms: CA_2  and  C_3
REMARK    3  A    between atoms: CA_2  and  C_12
REMARK    4  A    between atoms: C_3  and  N_4
REMARK    5  A    between atoms: C_12  and  OXT_14
REMARK                            x       y       z     vdW  Elec       q    Type
REMARK                         _______ _______ _______ _____ _____    ______ ____
ROOT
ATOM      1  C   UNL     1       5.438   5.045  19.076  0.00  0.00    +0.000 C 
ENDROOT
BRANCH   1   2
ATOM      2  N   UNL     1       5.915   5.101  17.686  0.00  0.00    +0.000 N 
ATOM      3  C   UNL     1       5.058   5.479  16.672  0.00  0.00    +0.000 A 
ATOM      4  C   UNL     1       5.447   5.508  15.396  0.00  0.00    +0.000 A 
ATOM      5  C   UNL     1       6.835   5.145  15.064  0.00  0.00    +0.000 A 
ATOM      6  O   UNL     1       7.218   5.114  13.902  0.00  0.00    +0.000 OA
ATOM      7  N   UNL     1       7.636   4.840  16.125  0.00  0.00    +0.000 N 
ATOM      8  C   UNL     1       7.239   4.750  17.433  0.00  0.00    +0.000 A 
ATOM      9  O   UNL     1       8.021   4.364  18.298  0.00  0.00    +0.000 OA
ATOM     10  H   UNL     1       8.588   4.579  15.922  0.00  0.00    +0.000 HD
ENDBRANCH   1   2
BRANCH   1  11
ATOM     11  CA  UNL     1       3.984   4.549  19.185  0.00  0.00    +0.000 C 
BRANCH  11  12
ATOM     12  N   UNL     1       3.225   5.157  20.327  0.00  0.00    +0.000 NA
ATOM     13  H1  UNL     1       2.925   4.388  20.933  0.00  0.00    +0.000 HD
ATOM     14  H2  UNL     1       2.351   5.548  19.958  0.00  0.00    +0.000 HD
ENDBRANCH  11  12
BRANCH  11  15
ATOM     15  C   UNL     1       3.954   3.026  19.362  0.00  0.00    +0.000 C 
ATOM     16  O   UNL     1       2.989   2.303  19.180  0.00  0.00    +0.000 OA
BRANCH  15  17
ATOM     17  OXT UNL     1       5.170   2.558  19.761  0.00  0.00    +0.000 OA
ATOM     18  HXT UNL     1       5.056   2.233  20.687  0.00  0.00    +0.000 HD
ENDBRANCH  15  17
ENDBRANCH  11  15
ENDBRANCH   1  11
TORSDOF 5
ENDMDL
MODEL 2
REMARK VINA RESULT:      -6.1      2.092      4.832
REMARK  Name = 
REMARK  5 active torsions:
REMARK  status: ('A' for Active; 'I' for Inactive)
REMARK    1  A    between atoms: N_1  and  CA_2
REMARK    2  A    between atoms: CA_2  and  C_3
REMARK    3  A    between atoms: CA_2  and  C_12
REMARK    4  A    between atoms: C_3  and  N_4
REMARK    5  A    between atoms: C_12  and  OXT_14
REMARK                            x       y       z     vdW  Elec       q    Type
REMARK                         _______ _______ _______ _____ _____    ______ ____
ROOT
ATOM      1  C   UNL     1       5.884   5.196  19.145  0.00  0.00    +0.000 C 
ENDROOT
BRANCH   1   2
ATOM      2  N   UNL     1       4.571   4.617  18.825  0.00  0.00    +0.000 N 
ATOM      3  C   UNL     1       3.639   5.352  18.122  0.00  0.00    +0.000 A 
ATOM      4  C   UNL     1       2.425   4.871  17.845  0.00  0.00    +0.000 A 
ATOM      5  C   UNL     1       2.080   3.509  18.285  0.00  0.00    +0.000 A 
ATOM      6  O   UNL     1       0.963   3.048  18.091  0.00  0.00    +0.000 OA
ATOM      7  N   UNL     1       3.073   2.824  18.921  0.00  0.00    +0.000 N 
ATOM      8  C   UNL     1       4.302   3.322  19.264  0.00  0.00    +0.000 A 
ATOM      9  O   UNL     1       5.085   2.651  19.931  0.00  0.00    +0.000 OA
ATOM     10  H   UNL     1       2.857   1.892  19.240  0.00  0.00    +0.000 HD
ENDBRANCH   1   2
BRANCH   1  11
ATOM     11  CA  UNL     1       6.811   5.277  17.917  0.00  0.00    +0.000 C 
BRANCH  11  12
ATOM     12  N   UNL     1       7.833   4.179  17.861  0.00  0.00    +0.000 NA
ATOM     13  H1  UNL     1       8.281   4.232  16.942  0.00  0.00    +0.000 HD
ATOM     14  H2  UNL     1       7.338   3.281  17.854  0.00  0.00    +0.000 HD
ENDBRANCH  11  12
BRANCH  11  15
ATOM     15  C   UNL     1       7.561   6.614  17.906  0.00  0.00    +0.000 C 
ATOM     16  O   UNL     1       7.520   7.450  17.019  0.00  0.00    +0.000 OA
BRANCH  15  17
ATOM     17  OXT UNL     1       8.304   6.767  19.038  0.00  0.00    +0.000 OA
ATOM     18  HXT UNL     1       8.033   7.629  19.438  0.00  0.00    +0.000 HD
ENDBRANCH  15  17
ENDBRANCH  11  15
ENDBRANCH   1  11
TORSDOF 5
ENDMDL
MODEL 3
REMARK VINA RESULT:      -6.1      2.074      5.015
REMARK  Name = 
REMARK  5 active torsions:
REMARK  status: ('A' for Active; 'I' for Inactive)
REMARK    1  A    between atoms: N_1  and  CA_2
REMARK    2  A    between atoms: CA_2  and  C_3
REMARK    3  A    between atoms: CA_2  and  C_12
REMARK    4  A    between atoms: C_3  and  N_4
REMARK    5  A    between atoms: C_12  and  OXT_14
REMARK                            x       y       z     vdW  Elec       q    Type
REMARK                         _______ _______ _______ _____ _____    ______ ____
ROOT
ATOM      1  C   UNL     1       5.140   5.315  18.506  0.00  0.00    +0.000 C 
ENDROOT
BRANCH   1   2
ATOM      2  N   UNL     1       3.923   4.490  18.465  0.00  0.00    +0.000 N 
ATOM      3  C   UNL     1       2.795   4.946  17.813  0.00  0.00    +0.000 A 
ATOM      4  C   UNL     1       1.664   4.239  17.786  0.00  0.00    +0.000 A 
ATOM      5  C   UNL     1       1.625   2.928  18.455  0.00  0.00    +0.000 A 
ATOM      6  O   UNL     1       0.593   2.270  18.492  0.00  0.00    +0.000 OA
ATOM      7  N   UNL     1       2.794   2.521  19.026  0.00  0.00    +0.000 N 
ATOM      8  C   UNL     1       3.946   3.256  19.112  0.00  0.00    +0.000 A 
ATOM      9  O   UNL     1       4.913   2.834  19.742  0.00  0.00    +0.000 OA
ATOM     10  H   UNL     1       2.790   1.630  19.498  0.00  0.00    +0.000 HD
ENDBRANCH   1   2
BRANCH   1  11
ATOM     11  CA  UNL     1       6.177   4.894  17.448  0.00  0.00    +0.000 C 
BRANCH  11  12
ATOM     12  N   UNL     1       7.426   4.303  18.031  0.00  0.00    +0.000 NA
ATOM     13  H1  UNL     1       7.542   3.373  17.616  0.00  0.00    +0.000 HD
ATOM     14  H2  UNL     1       7.259   4.120  19.027  0.00  0.00    +0.000 HD
ENDBRANCH  11  12
BRANCH  11  15
ATOM     15  C   UNL     1       6.586   6.101  16.595  0.00  0.00    +0.000 C 
ATOM     16  O   UNL     1       7.647   6.699  16.663  0.00  0.00    +0.000 OA
BRANCH  15  17
ATOM     17  OXT UNL     1       5.594   6.441  15.724  0.00  0.00    +0.000 OA
ATOM     18  HXT UNL     1       5.751   5.917  14.901  0.00  0.00    +0.000 HD
ENDBRANCH  15  17
ENDBRANCH  11  15
ENDBRANCH   1  11
TORSDOF 5
ENDMDL
MODEL 4
REMARK VINA RESULT:      -6.0      1.589      5.063
REMARK  Name = 
REMARK  5 active torsions:
REMARK  status: ('A' for Active; 'I' for Inactive)
REMARK    1  A    between atoms: N_1  and  CA_2
REMARK    2  A    between atoms: CA_2  and  C_3
REMARK    3  A    between atoms: CA_2  and  C_12
REMARK    4  A    between atoms: C_3  and  N_4
REMARK    5  A    between atoms: C_12  and  OXT_14
REMARK                            x       y       z     vdW  Elec       q    Type
REMARK                         _______ _______ _______ _____ _____    ______ ____
ROOT
ATOM      1  C   UNL     1       5.371   4.938  16.757  0.00  0.00    +0.000 C 
ENDROOT
BRANCH   1   2
ATOM      2  N   UNL     1       4.448   4.120  17.557  0.00  0.00    +0.000 N 
ATOM      3  C   UNL     1       3.267   3.663  17.006  0.00  0.00    +0.000 A 
ATOM      4  C   UNL     1       2.390   2.948  17.714  0.00  0.00    +0.000 A 
ATOM      5  C   UNL     1       2.701   2.622  19.115  0.00  0.00    +0.000 A 
ATOM      6  O   UNL     1       1.902   2.008  19.812  0.00  0.00    +0.000 OA
ATOM      7  N   UNL     1       3.911   3.057  19.570  0.00  0.00    +0.000 N 
ATOM      8  C   UNL     1       4.796   3.839  18.876  0.00  0.00    +0.000 A 
ATOM      9  O   UNL     1       5.814   4.264  19.419  0.00  0.00    +0.000 OA
ATOM     10  H   UNL     1       4.142   2.853  20.530  0.00  0.00    +0.000 HD
ENDBRANCH   1   2
BRANCH   1  11
ATOM     11  CA  UNL     1       6.532   4.115  16.167  0.00  0.00    +0.000 C 
BRANCH  11  12
ATOM     12  N   UNL     1       7.828   4.287  16.905  0.00  0.00    +0.000 NA
ATOM     13  H1  UNL     1       8.229   5.180  16.603  0.00  0.00    +0.000 HD
ATOM     14  H2  UNL     1       8.488   3.581  16.562  0.00  0.00    +0.000 HD
ENDBRANCH  11  12
BRANCH  11  15
ATOM     15  C   UNL     1       6.772   4.507  14.704  0.00  0.00    +0.000 C 
ATOM     16  O   UNL     1       6.207   4.031  13.734  0.00  0.00    +0.000 OA
BRANCH  15  17
ATOM     17  OXT UNL     1       7.721   5.481  14.610  0.00  0.00    +0.000 OA
ATOM     18  HXT UNL     1       7.725   5.954  15.477  0.00  0.00    +0.000 HD
ENDBRANCH  15  17
ENDBRANCH  11  15
ENDBRANCH   1  11
TORSDOF 5
ENDMDL
MODEL 5
REMARK VINA RESULT:      -5.9      1.613      1.905
REMARK  Name = 
REMARK  5 active torsions:
REMARK  status: ('A' for Active; 'I' for Inactive)
REMARK    1  A    between atoms: N_1  and  CA_2
REMARK    2  A    between atoms: CA_2  and  C_3
REMARK    3  A    between atoms: CA_2  and  C_12
REMARK    4  A    between atoms: C_3  and  N_4
REMARK    5  A    between atoms: C_12  and  OXT_14
REMARK                            x       y       z     vdW  Elec       q    Type
REMARK                         _______ _______ _______ _____ _____    ______ ____
ROOT
ATOM      1  C   UNL     1       3.850   4.354  19.342  0.00  0.00    +0.000 C 
ENDROOT
BRANCH   1   2
ATOM      2  N   UNL     1       4.847   4.491  18.269  0.00  0.00    +0.000 N 
ATOM      3  C   UNL     1       4.503   4.213  16.962  0.00  0.00    +0.000 A 
ATOM      4  C   UNL     1       5.392   4.293  15.968  0.00  0.00    +0.000 A 
ATOM      5  C   UNL     1       6.771   4.707  16.276  0.00  0.00    +0.000 A 
ATOM      6  O   UNL     1       7.626   4.748  15.401  0.00  0.00    +0.000 OA
ATOM      7  N   UNL     1       7.017   5.021  17.579  0.00  0.00    +0.000 N 
ATOM      8  C   UNL     1       6.135   4.891  18.619  0.00  0.00    +0.000 A 
ATOM      9  O   UNL     1       6.494   5.102  19.775  0.00  0.00    +0.000 OA
ATOM     10  H   UNL     1       7.957   5.299  17.816  0.00  0.00    +0.000 HD
ENDBRANCH   1   2
BRANCH   1  11
ATOM     11  CA  UNL     1       3.752   2.915  19.881  0.00  0.00    +0.000 C 
BRANCH  11  12
ATOM     12  N   UNL     1       5.055   2.171  19.849  0.00  0.00    +0.000 NA
ATOM     13  H1  UNL     1       5.180   1.742  20.771  0.00  0.00    +0.000 HD
ATOM     14  H2  UNL     1       5.814   2.857  19.780  0.00  0.00    +0.000 HD
ENDBRANCH  11  12
BRANCH  11  15
ATOM     15  C   UNL     1       2.735   2.110  19.064  0.00  0.00    +0.000 C 
ATOM     16  O   UNL     1       1.528   2.289  19.046  0.00  0.00    +0.000 OA
BRANCH  15  17
ATOM     17  OXT UNL     1       3.354   1.138  18.335  0.00  0.00    +0.000 OA
ATOM     18  HXT UNL     1       3.950   1.602  17.698  0.00  0.00    +0.000 HD
ENDBRANCH  15  17
ENDBRANCH  11  15
ENDBRANCH   1  11
TORSDOF 5
ENDMDL
MODEL 6
REMARK VINA RESULT:      -5.9      1.647      1.812
REMARK  Name = 
REMARK  5 active torsions:
REMARK  status: ('A' for Active; 'I' for Inactive)
REMARK    1  A    between atoms: N_1  and  CA_2
REMARK    2  A    between atoms: CA_2  and  C_3
REMARK    3  A    between atoms: CA_2  and  C_12
REMARK    4  A    between atoms: C_3  and  N_4
REMARK    5  A    between atoms: C_12  and  OXT_14
REMARK                            x       y       z     vdW  Elec       q    Type
REMARK                         _______ _______ _______ _____ _____    ______ ____
ROOT
ATOM      1  C   UNL     1       3.801   3.937  18.609  0.00  0.00    +0.000 C 
ENDROOT
BRANCH   1   2
ATOM      2  N   UNL     1       4.846   4.309  17.643  0.00  0.00    +0.000 N 
ATOM      3  C   UNL     1       4.593   4.247  16.288  0.00  0.00    +0.000 A 
ATOM      4  C   UNL     1       5.529   4.544  15.383  0.00  0.00    +0.000 A 
ATOM      5  C   UNL     1       6.860   4.969  15.846  0.00  0.00    +0.000 A 
ATOM      6  O   UNL     1       7.759   5.205  15.049  0.00  0.00    +0.000 OA
ATOM      7  N   UNL     1       7.014   5.062  17.198  0.00  0.00    +0.000 N 
ATOM      8  C   UNL     1       6.085   4.707  18.140  0.00  0.00    +0.000 A 
ATOM      9  O   UNL     1       6.365   4.732  19.336  0.00  0.00    +0.000 OA
ATOM     10  H   UNL     1       7.921   5.342  17.540  0.00  0.00    +0.000 HD
ENDBRANCH   1   2
BRANCH   1  11
ATOM     11  CA  UNL     1       3.755   2.421  18.877  0.00  0.00    +0.000 C 
BRANCH  11  12
ATOM     12  N   UNL     1       2.405   1.809  18.644  0.00  0.00    +0.000 NA
ATOM     13  H1  UNL     1       1.744   2.580  18.511  0.00  0.00    +0.000 HD
ATOM     14  H2  UNL     1       2.103   1.360  19.516  0.00  0.00    +0.000 HD
ENDBRANCH  11  12
BRANCH  11  15
ATOM     15  C   UNL     1       4.158   2.125  20.327  0.00  0.00    +0.000 C 
ATOM     16  O   UNL     1       3.514   2.412  21.322  0.00  0.00    +0.000 OA
BRANCH  15  17
ATOM     17  OXT UNL     1       5.360   1.483  20.377  0.00  0.00    +0.000 OA
ATOM     18  HXT UNL     1       5.168   0.520  20.272  0.00  0.00    +0.000 HD
ENDBRANCH  15  17
ENDBRANCH  11  15
ENDBRANCH   1  11
TORSDOF 5
ENDMDL
MODEL 7
REMARK VINA RESULT:      -5.9      1.913      5.047
REMARK  Name = 
REMARK  5 active torsions:
REMARK  status: ('A' for Active; 'I' for Inactive)
REMARK    1  A    between atoms: N_1  and  CA_2
REMARK    2  A    between atoms: CA_2  and  C_3
REMARK    3  A    between atoms: CA_2  and  C_12
REMARK    4  A    between atoms: C_3  and  N_4
REMARK    5  A    between atoms: C_12  and  OXT_14
REMARK                            x       y       z     vdW  Elec       q    Type
REMARK                         _______ _______ _______ _____ _____    ______ ____
ROOT
ATOM      1  C   UNL     1       4.754   3.799  16.795  0.00  0.00    +0.000 C 
ENDROOT
BRANCH   1   2
ATOM      2  N   UNL     1       3.707   3.796  17.827  0.00  0.00    +0.000 N 
ATOM      3  C   UNL     1       2.402   4.096  17.495  0.00  0.00    +0.000 A 
ATOM      4  C   UNL     1       1.433   4.136  18.412  0.00  0.00    +0.000 A 
ATOM      5  C   UNL     1       1.765   3.832  19.814  0.00  0.00    +0.000 A 
ATOM      6  O   UNL     1       0.915   3.903  20.693  0.00  0.00    +0.000 OA
ATOM      7  N   UNL     1       3.062   3.488  20.054  0.00  0.00    +0.000 N 
ATOM      8  C   UNL     1       4.079   3.497  19.136  0.00  0.00    +0.000 A 
ATOM      9  O   UNL     1       5.236   3.270  19.482  0.00  0.00    +0.000 OA
ATOM     10  H   UNL     1       3.315   3.284  21.008  0.00  0.00    +0.000 HD
ENDBRANCH   1   2
BRANCH   1  11
ATOM     11  CA  UNL     1       5.660   5.043  16.873  0.00  0.00    +0.000 C 
BRANCH  11  12
ATOM     12  N   UNL     1       5.416   6.035  15.774  0.00  0.00    +0.000 NA
ATOM     13  H1  UNL     1       5.431   6.966  16.201  0.00  0.00    +0.000 HD
ATOM     14  H2  UNL     1       4.452   5.919  15.446  0.00  0.00    +0.000 HD
ENDBRANCH  11  12
BRANCH  11  15
ATOM     15  C   UNL     1       7.135   4.630  16.811  0.00  0.00    +0.000 C 
ATOM     16  O   UNL     1       7.831   4.608  15.810  0.00  0.00    +0.000 OA
BRANCH  15  17
ATOM     17  OXT UNL     1       7.596   4.279  18.045  0.00  0.00    +0.000 OA
ATOM     18  HXT UNL     1       7.501   5.078  18.618  0.00  0.00    +0.000 HD
ENDBRANCH  15  17
ENDBRANCH  11  15
ENDBRANCH   1  11
TORSDOF 5
ENDMDL
MODEL 8
REMARK VINA RESULT:      -5.8      1.981      5.132
REMARK  Name = 
REMARK  5 active torsions:
REMARK  status: ('A' for Active; 'I' for Inactive)
REMARK    1  A    between atoms: N_1  and  CA_2
REMARK    2  A    between atoms: CA_2  and  C_3
REMARK    3  A    between atoms: CA_2  and  C_12
REMARK    4  A    between atoms: C_3  and  N_4
REMARK    5  A    between atoms: C_12  and  OXT_14
REMARK                            x       y       z     vdW  Elec       q    Type
REMARK                         _______ _______ _______ _____ _____    ______ ____
ROOT
ATOM      1  C   UNL     1       5.411   4.371  18.574  0.00  0.00    +0.000 C 
ENDROOT
BRANCH   1   2
ATOM      2  N   UNL     1       4.063   3.784  18.588  0.00  0.00    +0.000 N 
ATOM      3  C   UNL     1       3.048   4.357  17.850  0.00  0.00    +0.000 A 
ATOM      4  C   UNL     1       1.804   3.871  17.866  0.00  0.00    +0.000 A 
ATOM      5  C   UNL     1       1.514   2.679  18.680  0.00  0.00    +0.000 A 
ATOM      6  O   UNL     1       0.378   2.231  18.759  0.00  0.00    +0.000 OA
ATOM      7  N   UNL     1       2.580   2.136  19.334  0.00  0.00    +0.000 N 
ATOM      8  C   UNL     1       3.848   2.653  19.374  0.00  0.00    +0.000 A 
ATOM      9  O   UNL     1       4.712   2.140  20.081  0.00  0.00    +0.000 OA
ATOM     10  H   UNL     1       2.405   1.324  19.905  0.00  0.00    +0.000 HD
ENDBRANCH   1   2
BRANCH   1  11
ATOM     11  CA  UNL     1       5.849   4.818  17.167  0.00  0.00    +0.000 C 
BRANCH  11  12
ATOM     12  N   UNL     1       6.170   3.677  16.246  0.00  0.00    +0.000 NA
ATOM     13  H1  UNL     1       5.318   3.466  15.719  0.00  0.00    +0.000 HD
ATOM     14  H2  UNL     1       6.332   2.841  16.817  0.00  0.00    +0.000 HD
ENDBRANCH  11  12
BRANCH  11  15
ATOM     15  C   UNL     1       7.092   5.711  17.256  0.00  0.00    +0.000 C 
ATOM     16  O   UNL     1       7.653   6.057  18.282  0.00  0.00    +0.000 OA
BRANCH  15  17
ATOM     17  OXT UNL     1       7.512   6.087  16.014  0.00  0.00    +0.000 OA
ATOM     18  HXT UNL     1       8.239   6.742  16.151  0.00  0.00    +0.000 HD
ENDBRANCH  15  17
ENDBRANCH  11  15
ENDBRANCH   1  11
TORSDOF 5
ENDMDL
MODEL 9
REMARK VINA RESULT:      -5.8      2.011      2.671
REMARK  Name = 
REMARK  5 active torsions:
REMARK  status: ('A' for Active; 'I' for Inactive)
REMARK    1  A    between atoms: N_1  and  CA_2
REMARK    2  A    between atoms: CA_2  and  C_3
REMARK    3  A    between atoms: CA_2  and  C_12
REMARK    4  A    between atoms: C_3  and  N_4
REMARK    5  A    between atoms: C_12  and  OXT_14
REMARK                            x       y       z     vdW  Elec       q    Type
REMARK                         _______ _______ _______ _____ _____    ______ ____
ROOT
ATOM      1  C   UNL     1       3.068   5.213  18.777  0.00  0.00    +0.000 C 
ENDROOT
BRANCH   1   2
ATOM      2  N   UNL     1       4.362   5.057  18.096  0.00  0.00    +0.000 N 
ATOM      3  C   UNL     1       4.605   5.714  16.907  0.00  0.00    +0.000 A 
ATOM      4  C   UNL     1       5.755   5.567  16.244  0.00  0.00    +0.000 A 
ATOM      5  C   UNL     1       6.798   4.696  16.809  0.00  0.00    +0.000 A 
ATOM      6  O   UNL     1       7.847   4.499  16.209  0.00  0.00    +0.000 OA
ATOM      7  N   UNL     1       6.506   4.128  18.014  0.00  0.00    +0.000 N 
ATOM      8  C   UNL     1       5.313   4.222  18.679  0.00  0.00    +0.000 A 
ATOM      9  O   UNL     1       5.120   3.584  19.711  0.00  0.00    +0.000 OA
ATOM     10  H   UNL     1       7.202   3.520  18.416  0.00  0.00    +0.000 HD
ENDBRANCH   1   2
BRANCH   1  11
ATOM     11  CA  UNL     1       2.151   3.988  18.596  0.00  0.00    +0.000 C 
BRANCH  11  12
ATOM     12  N   UNL     1       1.251   4.082  17.399  0.00  0.00    +0.000 NA
ATOM     13  H1  UNL     1       0.287   4.054  17.744  0.00  0.00    +0.000 HD
ATOM     14  H2  UNL     1       1.353   3.219  16.854  0.00  0.00    +0.000 HD
ENDBRANCH  11  12
BRANCH  11  15
ATOM     15  C   UNL     1       1.265   3.801  19.833  0.00  0.00    +0.000 C 
ATOM     16  O   UNL     1       1.351   4.426  20.877  0.00  0.00    +0.000 OA
BRANCH  15  17
ATOM     17  OXT UNL     1       0.339   2.822  19.626  0.00  0.00    +0.000 OA
ATOM     18  HXT UNL     1       0.674   2.017  20.090  0.00  0.00    +0.000 HD
ENDBRANCH  15  17
ENDBRANCH  11  15
ENDBRANCH   1  11
TORSDOF 5
ENDMDL
