MODEL 1
REMARK VINA RESULT:      -8.2      0.000      0.000
REMARK  Name = 
REMARK  11 active torsions:
REMARK  status: ('A' for Active; 'I' for Inactive)
REMARK    1  A    between atoms: C_1  and  O_2
REMARK    2  A    between atoms: O_2  and  C_3
REMARK    3  A    between atoms: C_5  and  C_6
REMARK    4  A    between atoms: C_10  and  C_11
REMARK    5  A    between atoms: C_25  and  C_26
REMARK    6  A    between atoms: C_26  and  N_27
REMARK    7  A    between atoms: N_27  and  C_28
REMARK    8  A    between atoms: C_28  and  C_29
REMARK    9  A    between atoms: C_29  and  N_30
REMARK   10  A    between atoms: C_31  and  C_33
REMARK   11  A    between atoms: C_33  and  N_34
REMARK                            x       y       z     vdW  Elec       q    Type
REMARK                         _______ _______ _______ _____ _____    ______ ____
ROOT
ATOM      1  C   UNL     1       1.379   4.148  19.908  0.00  0.00    +0.000 A 
ATOM      2  C   UNL     1       1.264   5.435  20.447  0.00  0.00    +0.000 A 
ATOM      3  C   UNL     1       1.638   6.589  19.743  0.00  0.00    +0.000 A 
ATOM      4  C   UNL     1       2.161   6.400  18.454  0.00  0.00    +0.000 A 
ATOM      5  C   UNL     1       2.243   5.131  17.882  0.00  0.00    +0.000 A 
ATOM      6  C   UNL     1       1.847   3.991  18.595  0.00  0.00    +0.000 A 
ENDROOT
BRANCH   3   7
ATOM      7  C   UNL     1       1.392   7.950  20.286  0.00  0.00    +0.000 A 
ATOM      8  C   UNL     1       1.060   8.040  21.660  0.00  0.00    +0.000 A 
ATOM      9  C   UNL     1       0.846   9.253  22.291  0.00  0.00    +0.000 A 
ATOM     10  C   UNL     1       0.958  10.423  21.561  0.00  0.00    +0.000 A 
ATOM     11  C   UNL     1       1.169  10.416  20.164  0.00  0.00    +0.000 A 
ATOM     12  C   UNL     1       1.437   9.165  19.539  0.00  0.00    +0.000 A 
ATOM     13 CL   UNL     1       1.678   9.108  17.808  0.00  0.00    +0.000 Cl
BRANCH  11  14
ATOM     14  C   UNL     1       0.735  11.620  19.416  0.00  0.00    +0.000 A 
ATOM     15  C   UNL     1      -0.542  11.922  18.921  0.00  0.00    +0.000 A 
ATOM     16  C   UNL     1      -0.883  13.239  18.565  0.00  0.00    +0.000 A 
ATOM     17  C   UNL     1       0.074  14.254  18.623  0.00  0.00    +0.000 A 
ATOM     18  C   UNL     1       1.379  13.923  18.925  0.00  0.00    +0.000 A 
ATOM     19  C   UNL     1       1.705  12.645  19.321  0.00  0.00    +0.000 A 
ATOM     20  O   UNL     1       2.404  14.824  18.961  0.00  0.00    +0.000 OA
ATOM     21  C   UNL     1       1.884  16.002  19.569  0.00  0.00    +0.000 C 
ATOM     22  C   UNL     1       0.696  16.523  18.759  0.00  0.00    +0.000 C 
ATOM     23  O   UNL     1      -0.333  15.549  18.482  0.00  0.00    +0.000 OA
ENDBRANCH  11  14
ENDBRANCH   3   7
BRANCH   1  25
ATOM     24  C   UNL     1       1.746   2.839  21.850  0.00  0.00    +0.000 C 
ATOM     25  O   UNL     1       1.056   3.016  20.615  0.00  0.00    +0.000 OA
ENDBRANCH   1  25
BRANCH   6  26
ATOM     26  C   UNL     1       1.847   2.659  17.881  0.00  0.00    +0.000 C 
BRANCH  26  27
ATOM     27  N   UNL     1       2.498   1.578  18.633  0.00  0.00    +0.000 NA
ATOM     28  H   UNL     1       2.197   1.634  19.605  0.00  0.00    +0.000 HD
BRANCH  27  29
ATOM     29  C   UNL     1       3.967   1.641  18.590  0.00  0.00    +0.000 C 
BRANCH  29  30
ATOM     30  C   UNL     1       4.598   2.708  19.500  0.00  0.00    +0.000 C 
BRANCH  30  31
ATOM     31  N   UNL     1       5.663   3.437  18.852  0.00  0.00    +0.000 N 
ATOM     32  C   UNL     1       5.890   4.774  19.047  0.00  0.00    +0.000 C 
ATOM     33  O   UNL     1       5.187   5.499  19.745  0.00  0.00    +0.000 OA
ATOM     34  H   UNL     1       6.374   2.937  18.317  0.00  0.00    +0.000 HD
BRANCH  32  35
ATOM     35  C   UNL     1       7.096   5.298  18.259  0.00  0.00    +0.000 C 
BRANCH  35  36
ATOM     36  N   UNL     1       7.893   4.175  17.720  0.00  0.00    +0.000 NA
ATOM     37  H   UNL     1       7.277   3.594  17.146  0.00  0.00    +0.000 HD
ATOM     38  H   UNL     1       8.170   3.580  18.502  0.00  0.00    +0.000 HD
ENDBRANCH  35  36
ENDBRANCH  32  35
ENDBRANCH  30  31
ENDBRANCH  29  30
ENDBRANCH  27  29
ENDBRANCH  26  27
ENDBRANCH   6  26
TORSDOF 10
ENDMDL
MODEL 2
REMARK VINA RESULT:      -8.1      3.336      4.302
REMARK  Name = 
REMARK  11 active torsions:
REMARK  status: ('A' for Active; 'I' for Inactive)
REMARK    1  A    between atoms: C_1  and  O_2
REMARK    2  A    between atoms: O_2  and  C_3
REMARK    3  A    between atoms: C_5  and  C_6
REMARK    4  A    between atoms: C_10  and  C_11
REMARK    5  A    between atoms: C_25  and  C_26
REMARK    6  A    between atoms: C_26  and  N_27
REMARK    7  A    between atoms: N_27  and  C_28
REMARK    8  A    between atoms: C_28  and  C_29
REMARK    9  A    between atoms: C_29  and  N_30
REMARK   10  A    between atoms: C_31  and  C_33
REMARK   11  A    between atoms: C_33  and  N_34
REMARK                            x       y       z     vdW  Elec       q    Type
REMARK                         _______ _______ _______ _____ _____    ______ ____
ROOT
ATOM      1  C   UNL     1       3.124   5.616  19.322  0.00  0.00    +0.000 A 
ATOM      2  C   UNL     1       2.204   6.651  19.534  0.00  0.00    +0.000 A 
ATOM      3  C   UNL     1       2.190   7.823  18.764  0.00  0.00    +0.000 A 
ATOM      4  C   UNL     1       3.168   7.932  17.763  0.00  0.00    +0.000 A 
ATOM      5  C   UNL     1       4.065   6.895  17.507  0.00  0.00    +0.000 A 
ATOM      6  C   UNL     1       4.051   5.723  18.275  0.00  0.00    +0.000 A 
ENDROOT
BRANCH   3   7
ATOM      7  C   UNL     1       1.130   8.851  18.925  0.00  0.00    +0.000 A 
ATOM      8  C   UNL     1       0.486   9.296  17.743  0.00  0.00    +0.000 A 
ATOM      9  C   UNL     1      -0.542  10.222  17.767  0.00  0.00    +0.000 A 
ATOM     10  C   UNL     1      -0.962  10.736  18.980  0.00  0.00    +0.000 A 
ATOM     11  C   UNL     1      -0.297  10.436  20.190  0.00  0.00    +0.000 A 
ATOM     12  C   UNL     1       0.725   9.444  20.158  0.00  0.00    +0.000 A 
ATOM     13 CL   UNL     1       1.591   9.061  21.628  0.00  0.00    +0.000 Cl
BRANCH  11  14
ATOM     14  C   UNL     1      -0.445  11.413  21.295  0.00  0.00    +0.000 A 
ATOM     15  C   UNL     1       0.237  12.624  21.480  0.00  0.00    +0.000 A 
ATOM     16  C   UNL     1      -0.262  13.603  22.358  0.00  0.00    +0.000 A 
ATOM     17  C   UNL     1      -1.404  13.350  23.120  0.00  0.00    +0.000 A 
ATOM     18  C   UNL     1      -1.965  12.089  23.082  0.00  0.00    +0.000 A 
ATOM     19  C   UNL     1      -1.508  11.146  22.188  0.00  0.00    +0.000 A 
ATOM     20  O   UNL     1      -3.050  11.715  23.821  0.00  0.00    +0.000 OA
ATOM     21  C   UNL     1      -3.950  12.819  23.801  0.00  0.00    +0.000 C 
ATOM     22  C   UNL     1      -3.266  14.057  24.380  0.00  0.00    +0.000 C 
ATOM     23  O   UNL     1      -1.987  14.384  23.795  0.00  0.00    +0.000 OA
ENDBRANCH  11  14
ENDBRANCH   3   7
BRANCH   1  25
ATOM     24  C   UNL     1       2.081   3.578  19.939  0.00  0.00    +0.000 C 
ATOM     25  O   UNL     1       3.166   4.489  20.105  0.00  0.00    +0.000 OA
ENDBRANCH   1  25
BRANCH   6  26
ATOM     26  C   UNL     1       4.966   4.589  17.874  0.00  0.00    +0.000 C 
BRANCH  26  27
ATOM     27  N   UNL     1       5.951   4.225  18.901  0.00  0.00    +0.000 NA
ATOM     28  H   UNL     1       5.458   3.796  19.684  0.00  0.00    +0.000 HD
BRANCH  27  29
ATOM     29  C   UNL     1       6.722   5.372  19.402  0.00  0.00    +0.000 C 
BRANCH  29  30
ATOM     30  C   UNL     1       7.769   5.928  18.423  0.00  0.00    +0.000 C 
BRANCH  30  31
ATOM     31  N   UNL     1       8.362   7.164  18.880  0.00  0.00    +0.000 N 
ATOM     32  C   UNL     1       8.209   8.359  18.231  0.00  0.00    +0.000 C 
ATOM     33  O   UNL     1       7.601   8.498  17.173  0.00  0.00    +0.000 OA
ATOM     34  H   UNL     1       8.818   7.205  19.792  0.00  0.00    +0.000 HD
BRANCH  32  35
ATOM     35  C   UNL     1       8.921   9.520  18.935  0.00  0.00    +0.000 C 
BRANCH  35  36
ATOM     36  N   UNL     1       9.204  10.613  17.980  0.00  0.00    +0.000 NA
ATOM     37  H   UNL     1       9.685  11.361  18.486  0.00  0.00    +0.000 HD
ATOM     38  H   UNL     1       8.312  11.018  17.690  0.00  0.00    +0.000 HD
ENDBRANCH  35  36
ENDBRANCH  32  35
ENDBRANCH  30  31
ENDBRANCH  29  30
ENDBRANCH  27  29
ENDBRANCH  26  27
ENDBRANCH   6  26
TORSDOF 10
ENDMDL
MODEL 3
REMARK VINA RESULT:      -7.9      4.045      4.770
REMARK  Name = 
REMARK  11 active torsions:
REMARK  status: ('A' for Active; 'I' for Inactive)
REMARK    1  A    between atoms: C_1  and  O_2
REMARK    2  A    between atoms: O_2  and  C_3
REMARK    3  A    between atoms: C_5  and  C_6
REMARK    4  A    between atoms: C_10  and  C_11
REMARK    5  A    between atoms: C_25  and  C_26
REMARK    6  A    between atoms: C_26  and  N_27
REMARK    7  A    between atoms: N_27  and  C_28
REMARK    8  A    between atoms: C_28  and  C_29
REMARK    9  A    between atoms: C_29  and  N_30
REMARK   10  A    between atoms: C_31  and  C_33
REMARK   11  A    between atoms: C_33  and  N_34
REMARK                            x       y       z     vdW  Elec       q    Type
REMARK                         _______ _______ _______ _____ _____    ______ ____
ROOT
ATOM      1  C   UNL     1       2.979   5.569  19.151  0.00  0.00    +0.000 A 
ATOM      2  C   UNL     1       2.057   6.596  19.387  0.00  0.00    +0.000 A 
ATOM      3  C   UNL     1       2.136   7.847  18.757  0.00  0.00    +0.000 A 
ATOM      4  C   UNL     1       3.211   8.043  17.876  0.00  0.00    +0.000 A 
ATOM      5  C   UNL     1       4.115   7.019  17.594  0.00  0.00    +0.000 A 
ATOM      6  C   UNL     1       4.008   5.769  18.219  0.00  0.00    +0.000 A 
ENDROOT
BRANCH   3   7
ATOM      7  C   UNL     1       1.079   8.876  18.927  0.00  0.00    +0.000 A 
ATOM      8  C   UNL     1       0.444   9.342  17.750  0.00  0.00    +0.000 A 
ATOM      9  C   UNL     1      -0.581  10.272  17.781  0.00  0.00    +0.000 A 
ATOM     10  C   UNL     1      -1.007  10.768  19.001  0.00  0.00    +0.000 A 
ATOM     11  C   UNL     1      -0.350  10.445  20.210  0.00  0.00    +0.000 A 
ATOM     12  C   UNL     1       0.668   9.450  20.168  0.00  0.00    +0.000 A 
ATOM     13 CL   UNL     1       1.523   9.040  21.637  0.00  0.00    +0.000 Cl
BRANCH  11  14
ATOM     14  C   UNL     1      -0.502  11.404  21.330  0.00  0.00    +0.000 A 
ATOM     15  C   UNL     1       0.209  12.590  21.559  0.00  0.00    +0.000 A 
ATOM     16  C   UNL     1      -0.286  13.567  22.442  0.00  0.00    +0.000 A 
ATOM     17  C   UNL     1      -1.457  13.334  23.166  0.00  0.00    +0.000 A 
ATOM     18  C   UNL     1      -2.054  12.091  23.085  0.00  0.00    +0.000 A 
ATOM     19  C   UNL     1      -1.599  11.152  22.186  0.00  0.00    +0.000 A 
ATOM     20  O   UNL     1      -3.170  11.736  23.785  0.00  0.00    +0.000 OA
ATOM     21  C   UNL     1      -4.037  12.867  23.762  0.00  0.00    +0.000 C 
ATOM     22  C   UNL     1      -3.333  14.072  24.385  0.00  0.00    +0.000 C 
ATOM     23  O   UNL     1      -2.029  14.371  23.844  0.00  0.00    +0.000 OA
ENDBRANCH  11  14
ENDBRANCH   3   7
BRANCH   1  25
ATOM     24  C   UNL     1       1.672   4.028  20.390  0.00  0.00    +0.000 C 
ATOM     25  O   UNL     1       2.928   4.361  19.801  0.00  0.00    +0.000 OA
ENDBRANCH   1  25
BRANCH   6  26
ATOM     26  C   UNL     1       4.944   4.665  17.784  0.00  0.00    +0.000 C 
BRANCH  26  27
ATOM     27  N   UNL     1       4.664   4.137  16.442  0.00  0.00    +0.000 NA
ATOM     28  H   UNL     1       4.094   3.297  16.539  0.00  0.00    +0.000 HD
BRANCH  27  29
ATOM     29  C   UNL     1       5.877   3.798  15.684  0.00  0.00    +0.000 C 
BRANCH  29  30
ATOM     30  C   UNL     1       5.925   4.354  14.251  0.00  0.00    +0.000 C 
BRANCH  30  31
ATOM     31  N   UNL     1       6.497   3.422  13.308  0.00  0.00    +0.000 N 
ATOM     32  C   UNL     1       5.859   3.020  12.164  0.00  0.00    +0.000 C 
ATOM     33  O   UNL     1       4.725   3.366  11.848  0.00  0.00    +0.000 OA
ATOM     34  H   UNL     1       7.469   3.127  13.405  0.00  0.00    +0.000 HD
BRANCH  32  35
ATOM     35  C   UNL     1       6.692   2.044  11.325  0.00  0.00    +0.000 C 
BRANCH  35  36
ATOM     36  N   UNL     1       6.096   0.691  11.357  0.00  0.00    +0.000 NA
ATOM     37  H   UNL     1       6.723   0.054  10.860  0.00  0.00    +0.000 HD
ATOM     38  H   UNL     1       5.239   0.710  10.802  0.00  0.00    +0.000 HD
ENDBRANCH  35  36
ENDBRANCH  32  35
ENDBRANCH  30  31
ENDBRANCH  29  30
ENDBRANCH  27  29
ENDBRANCH  26  27
ENDBRANCH   6  26
TORSDOF 10
ENDMDL
MODEL 4
REMARK VINA RESULT:      -7.9      1.645      2.096
REMARK  Name = 
REMARK  11 active torsions:
REMARK  status: ('A' for Active; 'I' for Inactive)
REMARK    1  A    between atoms: C_1  and  O_2
REMARK    2  A    between atoms: O_2  and  C_3
REMARK    3  A    between atoms: C_5  and  C_6
REMARK    4  A    between atoms: C_10  and  C_11
REMARK    5  A    between atoms: C_25  and  C_26
REMARK    6  A    between atoms: C_26  and  N_27
REMARK    7  A    between atoms: N_27  and  C_28
REMARK    8  A    between atoms: C_28  and  C_29
REMARK    9  A    between atoms: C_29  and  N_30
REMARK   10  A    between atoms: C_31  and  C_33
REMARK   11  A    between atoms: C_33  and  N_34
REMARK                            x       y       z     vdW  Elec       q    Type
REMARK                         _______ _______ _______ _____ _____    ______ ____
ROOT
ATOM      1  C   UNL     1       1.960   4.182  18.385  0.00  0.00    +0.000 A 
ATOM      2  C   UNL     1       1.475   5.337  19.010  0.00  0.00    +0.000 A 
ATOM      3  C   UNL     1       2.317   6.294  19.596  0.00  0.00    +0.000 A 
ATOM      4  C   UNL     1       3.695   6.035  19.548  0.00  0.00    +0.000 A 
ATOM      5  C   UNL     1       4.202   4.913  18.891  0.00  0.00    +0.000 A 
ATOM      6  C   UNL     1       3.345   3.978  18.295  0.00  0.00    +0.000 A 
ENDROOT
BRANCH   3   7
ATOM      7  C   UNL     1       1.788   7.569  20.143  0.00  0.00    +0.000 A 
ATOM      8  C   UNL     1       1.201   7.518  21.432  0.00  0.00    +0.000 A 
ATOM      9  C   UNL     1       0.708   8.645  22.065  0.00  0.00    +0.000 A 
ATOM     10  C   UNL     1       0.786   9.869  21.424  0.00  0.00    +0.000 A 
ATOM     11  C   UNL     1       1.247   9.988  20.093  0.00  0.00    +0.000 A 
ATOM     12  C   UNL     1       1.798   8.830  19.475  0.00  0.00    +0.000 A 
ATOM     13 CL   UNL     1       2.355   8.928  17.820  0.00  0.00    +0.000 Cl
BRANCH  11  14
ATOM     14  C   UNL     1       0.792  11.176  19.332  0.00  0.00    +0.000 A 
ATOM     15  C   UNL     1      -0.463  11.406  18.750  0.00  0.00    +0.000 A 
ATOM     16  C   UNL     1      -0.861  12.705  18.388  0.00  0.00    +0.000 A 
ATOM     17  C   UNL     1       0.022  13.778  18.528  0.00  0.00    +0.000 A 
ATOM     18  C   UNL     1       1.322  13.523  18.921  0.00  0.00    +0.000 A 
ATOM     19  C   UNL     1       1.698  12.261  19.322  0.00  0.00    +0.000 A 
ATOM     20  O   UNL     1       2.281  14.485  19.043  0.00  0.00    +0.000 OA
ATOM     21  C   UNL     1       1.645  15.618  19.627  0.00  0.00    +0.000 C 
ATOM     22  C   UNL     1       0.487  16.078  18.740  0.00  0.00    +0.000 C 
ATOM     23  O   UNL     1      -0.455  15.047  18.376  0.00  0.00    +0.000 OA
ENDBRANCH  11  14
ENDBRANCH   3   7
BRANCH   1  25
ATOM     24  C   UNL     1       0.527   2.337  18.791  0.00  0.00    +0.000 C 
ATOM     25  O   UNL     1       1.134   3.223  17.852  0.00  0.00    +0.000 OA
ENDBRANCH   1  25
BRANCH   6  26
ATOM     26  C   UNL     1       3.955   2.848  17.499  0.00  0.00    +0.000 C 
BRANCH  26  27
ATOM     27  N   UNL     1       5.172   3.223  16.765  0.00  0.00    +0.000 NA
ATOM     28  H   UNL     1       5.890   3.482  17.441  0.00  0.00    +0.000 HD
BRANCH  27  29
ATOM     29  C   UNL     1       4.970   4.348  15.839  0.00  0.00    +0.000 C 
BRANCH  29  30
ATOM     30  C   UNL     1       6.260   5.020  15.341  0.00  0.00    +0.000 C 
BRANCH  30  31
ATOM     31  N   UNL     1       6.763   6.015  16.260  0.00  0.00    +0.000 N 
ATOM     32  C   UNL     1       7.425   5.706  17.418  0.00  0.00    +0.000 C 
ATOM     33  O   UNL     1       7.615   4.563  17.822  0.00  0.00    +0.000 OA
ATOM     34  H   UNL     1       6.750   7.002  16.001  0.00  0.00    +0.000 HD
BRANCH  32  35
ATOM     35  C   UNL     1       7.873   6.946  18.201  0.00  0.00    +0.000 C 
BRANCH  35  36
ATOM     36  N   UNL     1       7.661   8.171  17.401  0.00  0.00    +0.000 NA
ATOM     37  H   UNL     1       8.567   8.632  17.278  0.00  0.00    +0.000 HD
ATOM     38  H   UNL     1       7.104   8.821  17.958  0.00  0.00    +0.000 HD
ENDBRANCH  35  36
ENDBRANCH  32  35
ENDBRANCH  30  31
ENDBRANCH  29  30
ENDBRANCH  27  29
ENDBRANCH  26  27
ENDBRANCH   6  26
TORSDOF 10
ENDMDL
MODEL 5
REMARK VINA RESULT:      -7.8      3.569      4.640
REMARK  Name = 
REMARK  11 active torsions:
REMARK  status: ('A' for Active; 'I' for Inactive)
REMARK    1  A    between atoms: C_1  and  O_2
REMARK    2  A    between atoms: O_2  and  C_3
REMARK    3  A    between atoms: C_5  and  C_6
REMARK    4  A    between atoms: C_10  and  C_11
REMARK    5  A    between atoms: C_25  and  C_26
REMARK    6  A    between atoms: C_26  and  N_27
REMARK    7  A    between atoms: N_27  and  C_28
REMARK    8  A    between atoms: C_28  and  C_29
REMARK    9  A    between atoms: C_29  and  N_30
REMARK   10  A    between atoms: C_31  and  C_33
REMARK   11  A    between atoms: C_33  and  N_34
REMARK                            x       y       z     vdW  Elec       q    Type
REMARK                         _______ _______ _______ _____ _____    ______ ____
ROOT
ATOM      1  C   UNL     1       2.379   6.974  19.552  0.00  0.00    +0.000 A 
ATOM      2  C   UNL     1       1.568   7.995  20.064  0.00  0.00    +0.000 A 
ATOM      3  C   UNL     1       1.355   9.206  19.389  0.00  0.00    +0.000 A 
ATOM      4  C   UNL     1       2.017   9.369  18.162  0.00  0.00    +0.000 A 
ATOM      5  C   UNL     1       2.793   8.348  17.614  0.00  0.00    +0.000 A 
ATOM      6  C   UNL     1       2.979   7.137  18.294  0.00  0.00    +0.000 A 
ENDROOT
BRANCH   3   7
ATOM      7  C   UNL     1       0.395  10.222  19.890  0.00  0.00    +0.000 A 
ATOM      8  C   UNL     1       0.597  10.696  21.210  0.00  0.00    +0.000 A 
ATOM      9  C   UNL     1      -0.208  11.670  21.776  0.00  0.00    +0.000 A 
ATOM     10  C   UNL     1      -1.247  12.203  21.035  0.00  0.00    +0.000 A 
ATOM     11  C   UNL     1      -1.589  11.703  19.759  0.00  0.00    +0.000 A 
ATOM     12  C   UNL     1      -0.724  10.739  19.169  0.00  0.00    +0.000 A 
ATOM     13 CL   UNL     1      -1.124  10.074  17.602  0.00  0.00    +0.000 Cl
BRANCH  11  14
ATOM     14  C   UNL     1      -2.982  11.930  19.302  0.00  0.00    +0.000 A 
ATOM     15  C   UNL     1      -3.618  11.411  18.165  0.00  0.00    +0.000 A 
ATOM     16  C   UNL     1      -5.020  11.413  18.061  0.00  0.00    +0.000 A 
ATOM     17  C   UNL     1      -5.799  12.006  19.057  0.00  0.00    +0.000 A 
ATOM     18  C   UNL     1      -5.169  12.685  20.081  0.00  0.00    +0.000 A 
ATOM     19  C   UNL     1      -3.798  12.642  20.210  0.00  0.00    +0.000 A 
ATOM     20  O   UNL     1      -5.829  13.342  21.078  0.00  0.00    +0.000 OA
ATOM     21  C   UNL     1      -6.935  12.521  21.439  0.00  0.00    +0.000 C 
ATOM     22  C   UNL     1      -7.829  12.290  20.219  0.00  0.00    +0.000 C 
ATOM     23  O   UNL     1      -7.149  11.807  19.041  0.00  0.00    +0.000 OA
ENDBRANCH  11  14
ENDBRANCH   3   7
BRANCH   1  25
ATOM     24  C   UNL     1       1.480   5.173  20.804  0.00  0.00    +0.000 C 
ATOM     25  O   UNL     1       2.623   5.808  20.233  0.00  0.00    +0.000 OA
ENDBRANCH   1  25
BRANCH   6  26
ATOM     26  C   UNL     1       3.731   6.028  17.597  0.00  0.00    +0.000 C 
BRANCH  26  27
ATOM     27  N   UNL     1       3.054   4.725  17.644  0.00  0.00    +0.000 NA
ATOM     28  H   UNL     1       2.805   4.525  18.612  0.00  0.00    +0.000 HD
BRANCH  27  29
ATOM     29  C   UNL     1       3.880   3.621  17.132  0.00  0.00    +0.000 C 
BRANCH  29  30
ATOM     30  C   UNL     1       5.397   3.867  17.181  0.00  0.00    +0.000 C 
BRANCH  30  31
ATOM     31  N   UNL     1       6.017   3.797  15.879  0.00  0.00    +0.000 N 
ATOM     32  C   UNL     1       6.365   4.902  15.149  0.00  0.00    +0.000 C 
ATOM     33  O   UNL     1       6.142   6.058  15.496  0.00  0.00    +0.000 OA
ATOM     34  H   UNL     1       6.338   2.900  15.513  0.00  0.00    +0.000 HD
BRANCH  32  35
ATOM     35  C   UNL     1       7.028   4.552  13.811  0.00  0.00    +0.000 C 
BRANCH  35  36
ATOM     36  N   UNL     1       8.087   5.531  13.484  0.00  0.00    +0.000 NA
ATOM     37  H   UNL     1       7.962   6.349  14.086  0.00  0.00    +0.000 HD
ATOM     38  H   UNL     1       7.922   5.871  12.535  0.00  0.00    +0.000 HD
ENDBRANCH  35  36
ENDBRANCH  32  35
ENDBRANCH  30  31
ENDBRANCH  29  30
ENDBRANCH  27  29
ENDBRANCH  26  27
ENDBRANCH   6  26
TORSDOF 10
ENDMDL
MODEL 6
REMARK VINA RESULT:      -7.7      1.630      1.968
REMARK  Name = 
REMARK  11 active torsions:
REMARK  status: ('A' for Active; 'I' for Inactive)
REMARK    1  A    between atoms: C_1  and  O_2
REMARK    2  A    between atoms: O_2  and  C_3
REMARK    3  A    between atoms: C_5  and  C_6
REMARK    4  A    between atoms: C_10  and  C_11
REMARK    5  A    between atoms: C_25  and  C_26
REMARK    6  A    between atoms: C_26  and  N_27
REMARK    7  A    between atoms: N_27  and  C_28
REMARK    8  A    between atoms: C_28  and  C_29
REMARK    9  A    between atoms: C_29  and  N_30
REMARK   10  A    between atoms: C_31  and  C_33
REMARK   11  A    between atoms: C_33  and  N_34
REMARK                            x       y       z     vdW  Elec       q    Type
REMARK                         _______ _______ _______ _____ _____    ______ ____
ROOT
ATOM      1  C   UNL     1       2.361   4.503  18.787  0.00  0.00    +0.000 A 
ATOM      2  C   UNL     1       1.847   5.598  19.495  0.00  0.00    +0.000 A 
ATOM      3  C   UNL     1       2.343   6.900  19.342  0.00  0.00    +0.000 A 
ATOM      4  C   UNL     1       3.411   7.068  18.447  0.00  0.00    +0.000 A 
ATOM      5  C   UNL     1       3.908   6.000  17.700  0.00  0.00    +0.000 A 
ATOM      6  C   UNL     1       3.386   4.708  17.853  0.00  0.00    +0.000 A 
ENDROOT
BRANCH   3   7
ATOM      7  C   UNL     1       1.703   8.063  20.008  0.00  0.00    +0.000 A 
ATOM      8  C   UNL     1       1.117   7.831  21.277  0.00  0.00    +0.000 A 
ATOM      9  C   UNL     1       0.524   8.842  22.014  0.00  0.00    +0.000 A 
ATOM     10  C   UNL     1       0.499  10.126  21.501  0.00  0.00    +0.000 A 
ATOM     11  C   UNL     1       0.954  10.420  20.195  0.00  0.00    +0.000 A 
ATOM     12  C   UNL     1       1.606   9.382  19.470  0.00  0.00    +0.000 A 
ATOM     13 CL   UNL     1       2.161   9.695  17.842  0.00  0.00    +0.000 Cl
BRANCH  11  14
ATOM     14  C   UNL     1       0.401  11.636  19.552  0.00  0.00    +0.000 A 
ATOM     15  C   UNL     1      -0.939  12.040  19.468  0.00  0.00    +0.000 A 
ATOM     16  C   UNL     1      -1.270  13.372  19.160  0.00  0.00    +0.000 A 
ATOM     17  C   UNL     1      -0.268  14.294  18.852  0.00  0.00    +0.000 A 
ATOM     18  C   UNL     1       1.036  13.851  18.747  0.00  0.00    +0.000 A 
ATOM     19  C   UNL     1       1.368  12.560  19.095  0.00  0.00    +0.000 A 
ATOM     20  O   UNL     1       2.087  14.651  18.404  0.00  0.00    +0.000 OA
ATOM     21  C   UNL     1       1.883  15.892  19.073  0.00  0.00    +0.000 C 
ATOM     22  C   UNL     1       0.544  16.497  18.650  0.00  0.00    +0.000 C 
ATOM     23  O   UNL     1      -0.594  15.617  18.770  0.00  0.00    +0.000 OA
ENDBRANCH  11  14
ENDBRANCH   3   7
BRANCH   1  25
ATOM     24  C   UNL     1       1.530   2.882  20.305  0.00  0.00    +0.000 C 
ATOM     25  O   UNL     1       1.906   3.221  18.971  0.00  0.00    +0.000 OA
ENDBRANCH   1  25
BRANCH   6  26
ATOM     26  C   UNL     1       3.884   3.618  16.933  0.00  0.00    +0.000 C 
BRANCH  26  27
ATOM     27  N   UNL     1       4.588   4.115  15.743  0.00  0.00    +0.000 NA
ATOM     28  H   UNL     1       4.066   3.829  14.916  0.00  0.00    +0.000 HD
BRANCH  27  29
ATOM     29  C   UNL     1       5.965   3.611  15.628  0.00  0.00    +0.000 C 
BRANCH  29  30
ATOM     30  C   UNL     1       7.055   4.695  15.623  0.00  0.00    +0.000 C 
BRANCH  30  31
ATOM     31  N   UNL     1       7.465   5.082  16.953  0.00  0.00    +0.000 N 
ATOM     32  C   UNL     1       7.468   6.379  17.394  0.00  0.00    +0.000 C 
ATOM     33  O   UNL     1       7.174   7.346  16.696  0.00  0.00    +0.000 OA
ATOM     34  H   UNL     1       7.648   4.369  17.660  0.00  0.00    +0.000 HD
BRANCH  32  35
ATOM     35  C   UNL     1       7.925   6.516  18.850  0.00  0.00    +0.000 C 
BRANCH  35  36
ATOM     36  N   UNL     1       7.650   5.272  19.601  0.00  0.00    +0.000 NA
ATOM     37  H   UNL     1       7.912   5.425  20.578  0.00  0.00    +0.000 HD
ATOM     38  H   UNL     1       8.290   4.551  19.263  0.00  0.00    +0.000 HD
ENDBRANCH  35  36
ENDBRANCH  32  35
ENDBRANCH  30  31
ENDBRANCH  29  30
ENDBRANCH  27  29
ENDBRANCH  26  27
ENDBRANCH   6  26
TORSDOF 10
ENDMDL
MODEL 7
REMARK VINA RESULT:      -7.7      3.408      5.092
REMARK  Name = 
REMARK  11 active torsions:
REMARK  status: ('A' for Active; 'I' for Inactive)
REMARK    1  A    between atoms: C_1  and  O_2
REMARK    2  A    between atoms: O_2  and  C_3
REMARK    3  A    between atoms: C_5  and  C_6
REMARK    4  A    between atoms: C_10  and  C_11
REMARK    5  A    between atoms: C_25  and  C_26
REMARK    6  A    between atoms: C_26  and  N_27
REMARK    7  A    between atoms: N_27  and  C_28
REMARK    8  A    between atoms: C_28  and  C_29
REMARK    9  A    between atoms: C_29  and  N_30
REMARK   10  A    between atoms: C_31  and  C_33
REMARK   11  A    between atoms: C_33  and  N_34
REMARK                            x       y       z     vdW  Elec       q    Type
REMARK                         _______ _______ _______ _____ _____    ______ ____
ROOT
ATOM      1  C   UNL     1       2.381   7.282  19.517  0.00  0.00    +0.000 A 
ATOM      2  C   UNL     1       1.573   8.345  19.941  0.00  0.00    +0.000 A 
ATOM      3  C   UNL     1       1.326   9.474  19.147  0.00  0.00    +0.000 A 
ATOM      4  C   UNL     1       1.950   9.511  17.890  0.00  0.00    +0.000 A 
ATOM      5  C   UNL     1       2.723   8.445  17.432  0.00  0.00    +0.000 A 
ATOM      6  C   UNL     1       2.943   7.315  18.232  0.00  0.00    +0.000 A 
ENDROOT
BRANCH   3   7
ATOM      7  C   UNL     1       0.368  10.529  19.566  0.00  0.00    +0.000 A 
ATOM      8  C   UNL     1       0.667  11.228  20.761  0.00  0.00    +0.000 A 
ATOM      9  C   UNL     1      -0.128  12.257  21.235  0.00  0.00    +0.000 A 
ATOM     10  C   UNL     1      -1.256  12.622  20.522  0.00  0.00    +0.000 A 
ATOM     11  C   UNL     1      -1.690  11.901  19.387  0.00  0.00    +0.000 A 
ATOM     12  C   UNL     1      -0.836  10.879  18.883  0.00  0.00    +0.000 A 
ATOM     13 CL   UNL     1      -1.347   9.945  17.496  0.00  0.00    +0.000 Cl
BRANCH  11  14
ATOM     14  C   UNL     1      -3.128  12.002  19.040  0.00  0.00    +0.000 A 
ATOM     15  C   UNL     1      -3.786  11.495  17.910  0.00  0.00    +0.000 A 
ATOM     16  C   UNL     1      -5.184  11.347  17.898  0.00  0.00    +0.000 A 
ATOM     17  C   UNL     1      -5.948  11.780  18.984  0.00  0.00    +0.000 A 
ATOM     18  C   UNL     1      -5.321  12.453  20.014  0.00  0.00    +0.000 A 
ATOM     19  C   UNL     1      -3.948  12.555  20.051  0.00  0.00    +0.000 A 
ATOM     20  O   UNL     1      -5.973  12.963  21.098  0.00  0.00    +0.000 OA
ATOM     21  C   UNL     1      -6.957  12.001  21.466  0.00  0.00    +0.000 C 
ATOM     22  C   UNL     1      -7.907  11.755  20.293  0.00  0.00    +0.000 C 
ATOM     23  O   UNL     1      -7.266  11.433  19.040  0.00  0.00    +0.000 OA
ENDBRANCH  11  14
ENDBRANCH   3   7
BRANCH   1  25
ATOM     24  C   UNL     1       1.529   5.454  20.763  0.00  0.00    +0.000 C 
ATOM     25  O   UNL     1       2.659   6.198  20.312  0.00  0.00    +0.000 OA
ENDBRANCH   1  25
BRANCH   6  26
ATOM     26  C   UNL     1       3.689   6.145  17.635  0.00  0.00    +0.000 C 
BRANCH  26  27
ATOM     27  N   UNL     1       4.808   5.667  18.459  0.00  0.00    +0.000 NA
ATOM     28  H   UNL     1       5.667   6.093  18.113  0.00  0.00    +0.000 HD
BRANCH  27  29
ATOM     29  C   UNL     1       4.964   4.205  18.436  0.00  0.00    +0.000 C 
BRANCH  29  30
ATOM     30  C   UNL     1       3.997   3.462  17.500  0.00  0.00    +0.000 C 
BRANCH  30  31
ATOM     31  N   UNL     1       2.949   2.770  18.214  0.00  0.00    +0.000 N 
ATOM     32  C   UNL     1       1.619   3.063  18.071  0.00  0.00    +0.000 C 
ATOM     33  O   UNL     1       1.183   3.970  17.368  0.00  0.00    +0.000 OA
ATOM     34  H   UNL     1       3.167   1.937  18.762  0.00  0.00    +0.000 HD
BRANCH  32  35
ATOM     35  C   UNL     1       0.712   2.167  18.924  0.00  0.00    +0.000 C 
BRANCH  35  36
ATOM     36  N   UNL     1       0.907   2.449  20.362  0.00  0.00    +0.000 NA
ATOM     37  H   UNL     1       0.177   1.959  20.884  0.00  0.00    +0.000 HD
ATOM     38  H   UNL     1       0.726   3.442  20.518  0.00  0.00    +0.000 HD
ENDBRANCH  35  36
ENDBRANCH  32  35
ENDBRANCH  30  31
ENDBRANCH  29  30
ENDBRANCH  27  29
ENDBRANCH  26  27
ENDBRANCH   6  26
TORSDOF 10
ENDMDL
MODEL 8
REMARK VINA RESULT:      -7.7      3.476      4.373
REMARK  Name = 
REMARK  11 active torsions:
REMARK  status: ('A' for Active; 'I' for Inactive)
REMARK    1  A    between atoms: C_1  and  O_2
REMARK    2  A    between atoms: O_2  and  C_3
REMARK    3  A    between atoms: C_5  and  C_6
REMARK    4  A    between atoms: C_10  and  C_11
REMARK    5  A    between atoms: C_25  and  C_26
REMARK    6  A    between atoms: C_26  and  N_27
REMARK    7  A    between atoms: N_27  and  C_28
REMARK    8  A    between atoms: C_28  and  C_29
REMARK    9  A    between atoms: C_29  and  N_30
REMARK   10  A    between atoms: C_31  and  C_33
REMARK   11  A    between atoms: C_33  and  N_34
REMARK                            x       y       z     vdW  Elec       q    Type
REMARK                         _______ _______ _______ _____ _____    ______ ____
ROOT
ATOM      1  C   UNL     1       2.411   6.456  19.835  0.00  0.00    +0.000 A 
ATOM      2  C   UNL     1       1.524   7.518  20.052  0.00  0.00    +0.000 A 
ATOM      3  C   UNL     1       1.446   8.628  19.200  0.00  0.00    +0.000 A 
ATOM      4  C   UNL     1       2.325   8.647  18.106  0.00  0.00    +0.000 A 
ATOM      5  C   UNL     1       3.185   7.581  17.846  0.00  0.00    +0.000 A 
ATOM      6  C   UNL     1       3.235   6.470  18.699  0.00  0.00    +0.000 A 
ENDROOT
BRANCH   3   7
ATOM      7  C   UNL     1       0.414   9.681  19.381  0.00  0.00    +0.000 A 
ATOM      8  C   UNL     1      -0.242  10.142  18.212  0.00  0.00    +0.000 A 
ATOM      9  C   UNL     1      -1.247  11.092  18.255  0.00  0.00    +0.000 A 
ATOM     10  C   UNL     1      -1.631  11.615  19.477  0.00  0.00    +0.000 A 
ATOM     11  C   UNL     1      -0.950  11.299  20.673  0.00  0.00    +0.000 A 
ATOM     12  C   UNL     1       0.047  10.283  20.622  0.00  0.00    +0.000 A 
ATOM     13 CL   UNL     1       0.932   9.879  22.075  0.00  0.00    +0.000 Cl
BRANCH  11  14
ATOM     14  C   UNL     1      -1.054  12.278  21.782  0.00  0.00    +0.000 A 
ATOM     15  C   UNL     1      -0.228  13.380  22.046  0.00  0.00    +0.000 A 
ATOM     16  C   UNL     1      -0.658  14.413  22.898  0.00  0.00    +0.000 A 
ATOM     17  C   UNL     1      -1.884  14.317  23.558  0.00  0.00    +0.000 A 
ATOM     18  C   UNL     1      -2.611  13.148  23.448  0.00  0.00    +0.000 A 
ATOM     19  C   UNL     1      -2.216  12.157  22.578  0.00  0.00    +0.000 A 
ATOM     20  O   UNL     1      -3.795  12.925  24.088  0.00  0.00    +0.000 OA
ATOM     21  C   UNL     1      -4.528  14.145  24.015  0.00  0.00    +0.000 C 
ATOM     22  C   UNL     1      -3.729  15.270  24.673  0.00  0.00    +0.000 C 
ATOM     23  O   UNL     1      -2.372  15.417  24.202  0.00  0.00    +0.000 OA
ENDBRANCH  11  14
ENDBRANCH   3   7
BRANCH   1  25
ATOM     24  C   UNL     1       1.414   4.489  20.705  0.00  0.00    +0.000 C 
ATOM     25  O   UNL     1       2.519   5.390  20.694  0.00  0.00    +0.000 OA
ENDBRANCH   1  25
BRANCH   6  26
ATOM     26  C   UNL     1       4.099   5.295  18.302  0.00  0.00    +0.000 C 
BRANCH  26  27
ATOM     27  N   UNL     1       5.195   5.016  19.238  0.00  0.00    +0.000 NA
ATOM     28  H   UNL     1       5.114   5.653  20.030  0.00  0.00    +0.000 HD
BRANCH  27  29
ATOM     29  C   UNL     1       6.529   5.176  18.639  0.00  0.00    +0.000 C 
BRANCH  29  30
ATOM     30  C   UNL     1       6.701   6.427  17.763  0.00  0.00    +0.000 C 
BRANCH  30  31
ATOM     31  N   UNL     1       6.608   6.139  16.351  0.00  0.00    +0.000 N 
ATOM     32  C   UNL     1       7.196   5.051  15.762  0.00  0.00    +0.000 C 
ATOM     33  O   UNL     1       7.902   4.242  16.357  0.00  0.00    +0.000 OA
ATOM     34  H   UNL     1       5.978   6.682  15.758  0.00  0.00    +0.000 HD
BRANCH  32  35
ATOM     35  C   UNL     1       6.925   4.964  14.256  0.00  0.00    +0.000 C 
BRANCH  35  36
ATOM     36  N   UNL     1       8.016   5.608  13.493  0.00  0.00    +0.000 NA
ATOM     37  H   UNL     1       8.065   6.590  13.775  0.00  0.00    +0.000 HD
ATOM     38  H   UNL     1       7.746   5.626  12.508  0.00  0.00    +0.000 HD
ENDBRANCH  35  36
ENDBRANCH  32  35
ENDBRANCH  30  31
ENDBRANCH  29  30
ENDBRANCH  27  29
ENDBRANCH  26  27
ENDBRANCH   6  26
TORSDOF 10
ENDMDL
MODEL 9
REMARK VINA RESULT:      -7.6      3.882      4.649
REMARK  Name = 
REMARK  11 active torsions:
REMARK  status: ('A' for Active; 'I' for Inactive)
REMARK    1  A    between atoms: C_1  and  O_2
REMARK    2  A    between atoms: O_2  and  C_3
REMARK    3  A    between atoms: C_5  and  C_6
REMARK    4  A    between atoms: C_10  and  C_11
REMARK    5  A    between atoms: C_25  and  C_26
REMARK    6  A    between atoms: C_26  and  N_27
REMARK    7  A    between atoms: N_27  and  C_28
REMARK    8  A    between atoms: C_28  and  C_29
REMARK    9  A    between atoms: C_29  and  N_30
REMARK   10  A    between atoms: C_31  and  C_33
REMARK   11  A    between atoms: C_33  and  N_34
REMARK                            x       y       z     vdW  Elec       q    Type
REMARK                         _______ _______ _______ _____ _____    ______ ____
ROOT
ATOM      1  C   UNL     1       2.606   6.242  19.634  0.00  0.00    +0.000 A 
ATOM      2  C   UNL     1       1.704   7.288  19.870  0.00  0.00    +0.000 A 
ATOM      3  C   UNL     1       1.655   8.442  19.074  0.00  0.00    +0.000 A 
ATOM      4  C   UNL     1       2.578   8.520  18.019  0.00  0.00    +0.000 A 
ATOM      5  C   UNL     1       3.453   7.471  17.740  0.00  0.00    +0.000 A 
ATOM      6  C   UNL     1       3.474   6.318  18.535  0.00  0.00    +0.000 A 
ENDROOT
BRANCH   3   7
ATOM      7  C   UNL     1       0.611   9.480  19.266  0.00  0.00    +0.000 A 
ATOM      8  C   UNL     1      -0.069   9.927  18.106  0.00  0.00    +0.000 A 
ATOM      9  C   UNL     1      -1.087  10.863  18.161  0.00  0.00    +0.000 A 
ATOM     10  C   UNL     1      -1.460  11.386  19.387  0.00  0.00    +0.000 A 
ATOM     11  C   UNL     1      -0.756  11.083  20.574  0.00  0.00    +0.000 A 
ATOM     12  C   UNL     1       0.254  10.082  20.511  0.00  0.00    +0.000 A 
ATOM     13 CL   UNL     1       1.167   9.696  21.951  0.00  0.00    +0.000 Cl
BRANCH  11  14
ATOM     14  C   UNL     1      -0.857  12.066  21.680  0.00  0.00    +0.000 A 
ATOM     15  C   UNL     1      -0.087  13.219  21.890  0.00  0.00    +0.000 A 
ATOM     16  C   UNL     1      -0.530  14.232  22.758  0.00  0.00    +0.000 A 
ATOM     17  C   UNL     1      -1.709  14.067  23.488  0.00  0.00    +0.000 A 
ATOM     18  C   UNL     1      -2.367  12.855  23.428  0.00  0.00    +0.000 A 
ATOM     19  C   UNL     1      -1.962  11.881  22.542  0.00  0.00    +0.000 A 
ATOM     20  O   UNL     1      -3.498  12.566  24.136  0.00  0.00    +0.000 OA
ATOM     21  C   UNL     1      -4.307  13.737  24.097  0.00  0.00    +0.000 C 
ATOM     22  C   UNL     1      -3.543  14.916  24.701  0.00  0.00    +0.000 C 
ATOM     23  O   UNL     1      -2.227  15.142  24.152  0.00  0.00    +0.000 OA
ENDBRANCH  11  14
ENDBRANCH   3   7
BRANCH   1  25
ATOM     24  C   UNL     1       1.444   4.499  20.744  0.00  0.00    +0.000 C 
ATOM     25  O   UNL     1       2.684   5.134  20.440  0.00  0.00    +0.000 OA
ENDBRANCH   1  25
BRANCH   6  26
ATOM     26  C   UNL     1       4.360   5.169  18.113  0.00  0.00    +0.000 C 
BRANCH  26  27
ATOM     27  N   UNL     1       4.477   5.007  16.657  0.00  0.00    +0.000 NA
ATOM     28  H   UNL     1       4.282   4.034  16.424  0.00  0.00    +0.000 HD
BRANCH  27  29
ATOM     29  C   UNL     1       5.806   5.359  16.137  0.00  0.00    +0.000 C 
BRANCH  29  30
ATOM     30  C   UNL     1       6.702   4.161  15.779  0.00  0.00    +0.000 C 
BRANCH  30  31
ATOM     31  N   UNL     1       6.432   3.635  14.461  0.00  0.00    +0.000 N 
ATOM     32  C   UNL     1       6.875   4.226  13.308  0.00  0.00    +0.000 C 
ATOM     33  O   UNL     1       7.498   5.284  13.269  0.00  0.00    +0.000 OA
ATOM     34  H   UNL     1       6.002   2.716  14.356  0.00  0.00    +0.000 HD
BRANCH  32  35
ATOM     35  C   UNL     1       6.473   3.455  12.046  0.00  0.00    +0.000 C 
BRANCH  35  36
ATOM     36  N   UNL     1       5.003   3.299  11.979  0.00  0.00    +0.000 NA
ATOM     37  H   UNL     1       4.762   2.957  11.045  0.00  0.00    +0.000 HD
ATOM     38  H   UNL     1       4.583   4.228  12.040  0.00  0.00    +0.000 HD
ENDBRANCH  35  36
ENDBRANCH  32  35
ENDBRANCH  30  31
ENDBRANCH  29  30
ENDBRANCH  27  29
ENDBRANCH  26  27
ENDBRANCH   6  26
TORSDOF 10
ENDMDL
