MODEL 1
REMARK VINA RESULT:      -8.0      0.000      0.000
REMARK  Name = 
REMARK  9 active torsions:
REMARK  status: ('A' for Active; 'I' for Inactive)
REMARK    1  A    between atoms: C_1  and  C_2
REMARK    2  A    between atoms: C_2  and  N_3
REMARK    3  A    between atoms: C_6  and  N_7
REMARK    4  A    between atoms: C_8  and  C_10
REMARK    5  A    between atoms: C_13  and  O_14
REMARK    6  A    between atoms: O_14  and  C_15
REMARK    7  A    between atoms: C_15  and  C_16
REMARK    8  A    between atoms: C_17  and  C_18
REMARK    9  A    between atoms: C_26  and  C_27
REMARK                            x       y       z     vdW  Elec       q    Type
REMARK                         _______ _______ _______ _____ _____    ______ ____
ROOT
ATOM      1  C   UNL     1       1.177   9.243  19.154  0.00  0.00    +0.000 A 
ATOM      2  C   UNL     1       0.806   9.056  20.488  0.00  0.00    +0.000 A 
ATOM      3  C   UNL     1      -0.047   9.981  21.096  0.00  0.00    +0.000 A 
ATOM      4  C   UNL     1      -0.506  11.044  20.333  0.00  0.00    +0.000 A 
ATOM      5  N   UNL     1      -0.164  11.250  19.047  0.00  0.00    +0.000 NA
ATOM      6  C   UNL     1       0.686  10.355  18.487  0.00  0.00    +0.000 A 
ENDROOT
BRANCH   1   8
ATOM      7  N   UNL     1       2.408   7.157  19.062  0.00  0.00    +0.000 N 
ATOM      8  C   UNL     1       2.093   8.333  18.425  0.00  0.00    +0.000 C 
ATOM      9  O   UNL     1       2.499   8.641  17.311  0.00  0.00    +0.000 OA
ATOM     10  H   UNL     1       1.847   6.874  19.853  0.00  0.00    +0.000 HD
BRANCH   7  14
ATOM     11  N   UNL     1       2.394   3.503  19.420  0.00  0.00    +0.000 NA
ATOM     12  C   UNL     1       1.621   4.232  18.399  0.00  0.00    +0.000 C 
ATOM     13  C   UNL     1       2.493   5.173  17.569  0.00  0.00    +0.000 C 
ATOM     14  C   UNL     1       3.272   6.147  18.452  0.00  0.00    +0.000 C 
ATOM     15  C   UNL     1       4.031   5.375  19.528  0.00  0.00    +0.000 C 
ATOM     16  C   UNL     1       3.121   4.422  20.306  0.00  0.00    +0.000 C 
BRANCH  11  18
ATOM     17  C   UNL     1       1.378   2.880  21.649  0.00  0.00    +0.000 C 
ATOM     18  C   UNL     1       1.493   2.596  20.155  0.00  0.00    +0.000 C 
ENDBRANCH  11  18
ENDBRANCH   7  14
ENDBRANCH   1   8
BRANCH   4  19
ATOM     19  O   UNL     1      -1.325  11.956  20.962  0.00  0.00    +0.000 OA
BRANCH  19  20
ATOM     20  C   UNL     1      -2.032  12.765  20.014  0.00  0.00    +0.000 C 
BRANCH  20  21
ATOM     21  C   UNL     1      -3.494  12.473  19.988  0.00  0.00    +0.000 A 
ATOM     22  C   UNL     1      -4.242  11.782  18.974  0.00  0.00    +0.000 A 
ATOM     23  N   UNL     1      -5.552  11.800  19.277  0.00  0.00    +0.000 NA
ATOM     24  O   UNL     1      -5.671  12.454  20.480  0.00  0.00    +0.000 OA
ATOM     25  C   UNL     1      -4.449  12.847  20.910  0.00  0.00    +0.000 A 
ATOM     26  C   UNL     1      -4.405  13.562  22.201  0.00  0.00    +0.000 C 
BRANCH  22  27
ATOM     27  C   UNL     1      -3.774  11.125  17.746  0.00  0.00    +0.000 A 
ATOM     28  C   UNL     1      -2.961   9.984  17.788  0.00  0.00    +0.000 A 
ATOM     29  C   UNL     1      -2.513   9.370  16.615  0.00  0.00    +0.000 A 
ATOM     30  C   UNL     1      -2.901   9.870  15.378  0.00  0.00    +0.000 A 
ATOM     31  C   UNL     1      -3.733  10.985  15.312  0.00  0.00    +0.000 A 
ATOM     32  C   UNL     1      -4.162  11.611  16.487  0.00  0.00    +0.000 A 
ENDBRANCH  22  27
ENDBRANCH  20  21
ENDBRANCH  19  20
ENDBRANCH   4  19
TORSDOF 7
ENDMDL
MODEL 2
REMARK VINA RESULT:      -8.0      2.576      9.588
REMARK  Name = 
REMARK  9 active torsions:
REMARK  status: ('A' for Active; 'I' for Inactive)
REMARK    1  A    between atoms: C_1  and  C_2
REMARK    2  A    between atoms: C_2  and  N_3
REMARK    3  A    between atoms: C_6  and  N_7
REMARK    4  A    between atoms: C_8  and  C_10
REMARK    5  A    between atoms: C_13  and  O_14
REMARK    6  A    between atoms: O_14  and  C_15
REMARK    7  A    between atoms: C_15  and  C_16
REMARK    8  A    between atoms: C_17  and  C_18
REMARK    9  A    between atoms: C_26  and  C_27
REMARK                            x       y       z     vdW  Elec       q    Type
REMARK                         _______ _______ _______ _____ _____    ______ ____
ROOT
ATOM      1  C   UNL     1       0.090  10.037  19.699  0.00  0.00    +0.000 A 
ATOM      2  C   UNL     1       0.010   9.326  20.900  0.00  0.00    +0.000 A 
ATOM      3  C   UNL     1       0.868   8.243  21.111  0.00  0.00    +0.000 A 
ATOM      4  C   UNL     1       1.783   7.933  20.115  0.00  0.00    +0.000 A 
ATOM      5  N   UNL     1       1.881   8.598  18.949  0.00  0.00    +0.000 NA
ATOM      6  C   UNL     1       1.020   9.627  18.755  0.00  0.00    +0.000 A 
ENDROOT
BRANCH   1   8
ATOM      7  N   UNL     1      -1.144  11.995  20.421  0.00  0.00    +0.000 N 
ATOM      8  C   UNL     1      -0.788  11.184  19.369  0.00  0.00    +0.000 C 
ATOM      9  O   UNL     1      -1.132  11.376  18.209  0.00  0.00    +0.000 OA
ATOM     10  H   UNL     1      -0.628  11.912  21.286  0.00  0.00    +0.000 HD
BRANCH   7  14
ATOM     11  N   UNL     1      -3.238  13.797  22.838  0.00  0.00    +0.000 NA
ATOM     12  C   UNL     1      -1.816  14.102  22.594  0.00  0.00    +0.000 C 
ATOM     13  C   UNL     1      -1.519  14.350  21.116  0.00  0.00    +0.000 C 
ATOM     14  C   UNL     1      -1.978  13.182  20.243  0.00  0.00    +0.000 C 
ATOM     15  C   UNL     1      -3.438  12.857  20.542  0.00  0.00    +0.000 C 
ATOM     16  C   UNL     1      -3.691  12.652  22.038  0.00  0.00    +0.000 C 
BRANCH  11  18
ATOM     17  C   UNL     1      -4.328  12.409  24.646  0.00  0.00    +0.000 C 
ATOM     18  C   UNL     1      -3.451  13.602  24.284  0.00  0.00    +0.000 C 
ENDBRANCH  11  18
ENDBRANCH   7  14
ENDBRANCH   1   8
BRANCH   4  19
ATOM     19  O   UNL     1       2.600   6.845  20.337  0.00  0.00    +0.000 OA
BRANCH  19  20
ATOM     20  C   UNL     1       2.318   5.785  19.415  0.00  0.00    +0.000 C 
BRANCH  20  21
ATOM     21  C   UNL     1       3.100   4.549  19.705  0.00  0.00    +0.000 A 
ATOM     22  C   UNL     1       4.461   4.257  19.346  0.00  0.00    +0.000 A 
ATOM     23  N   UNL     1       4.773   3.001  19.712  0.00  0.00    +0.000 NA
ATOM     24  O   UNL     1       3.662   2.482  20.333  0.00  0.00    +0.000 OA
ATOM     25  C   UNL     1       2.669   3.402  20.338  0.00  0.00    +0.000 A 
ATOM     26  C   UNL     1       1.402   2.999  20.979  0.00  0.00    +0.000 C 
BRANCH  22  27
ATOM     27  C   UNL     1       5.457   5.102  18.673  0.00  0.00    +0.000 A 
ATOM     28  C   UNL     1       5.209   5.666  17.414  0.00  0.00    +0.000 A 
ATOM     29  C   UNL     1       6.165   6.462  16.776  0.00  0.00    +0.000 A 
ATOM     30  C   UNL     1       7.374   6.734  17.406  0.00  0.00    +0.000 A 
ATOM     31  C   UNL     1       7.629   6.209  18.670  0.00  0.00    +0.000 A 
ATOM     32  C   UNL     1       6.680   5.395  19.297  0.00  0.00    +0.000 A 
ENDBRANCH  22  27
ENDBRANCH  20  21
ENDBRANCH  19  20
ENDBRANCH   4  19
TORSDOF 7
ENDMDL
MODEL 3
REMARK VINA RESULT:      -7.9      3.274      9.749
REMARK  Name = 
REMARK  9 active torsions:
REMARK  status: ('A' for Active; 'I' for Inactive)
REMARK    1  A    between atoms: C_1  and  C_2
REMARK    2  A    between atoms: C_2  and  N_3
REMARK    3  A    between atoms: C_6  and  N_7
REMARK    4  A    between atoms: C_8  and  C_10
REMARK    5  A    between atoms: C_13  and  O_14
REMARK    6  A    between atoms: O_14  and  C_15
REMARK    7  A    between atoms: C_15  and  C_16
REMARK    8  A    between atoms: C_17  and  C_18
REMARK    9  A    between atoms: C_26  and  C_27
REMARK                            x       y       z     vdW  Elec       q    Type
REMARK                         _______ _______ _______ _____ _____    ______ ____
ROOT
ATOM      1  C   UNL     1       0.996   9.759  19.730  0.00  0.00    +0.000 A 
ATOM      2  C   UNL     1       1.344   9.734  18.377  0.00  0.00    +0.000 A 
ATOM      3  C   UNL     1       2.028   8.627  17.868  0.00  0.00    +0.000 A 
ATOM      4  C   UNL     1       2.315   7.583  18.735  0.00  0.00    +0.000 A 
ATOM      5  N   UNL     1       1.994   7.581  20.043  0.00  0.00    +0.000 NA
ATOM      6  C   UNL     1       1.356   8.677  20.520  0.00  0.00    +0.000 A 
ENDROOT
BRANCH   1   8
ATOM      7  N   UNL     1       0.940  12.105  20.339  0.00  0.00    +0.000 N 
ATOM      8  C   UNL     1       0.290  10.894  20.371  0.00  0.00    +0.000 C 
ATOM      9  O   UNL     1      -0.817  10.723  20.866  0.00  0.00    +0.000 OA
ATOM     10  H   UNL     1       1.722  12.213  19.708  0.00  0.00    +0.000 HD
BRANCH   7  14
ATOM     11  N   UNL     1       1.412  15.618  19.386  0.00  0.00    +0.000 NA
ATOM     12  C   UNL     1       0.376  14.743  18.810  0.00  0.00    +0.000 C 
ATOM     13  C   UNL     1      -0.491  14.083  19.881  0.00  0.00    +0.000 C 
ATOM     14  C   UNL     1       0.354  13.320  20.902  0.00  0.00    +0.000 C 
ATOM     15  C   UNL     1       1.445  14.233  21.454  0.00  0.00    +0.000 C 
ATOM     16  C   UNL     1       2.262  14.896  20.342  0.00  0.00    +0.000 C 
BRANCH  11  18
ATOM     17  C   UNL     1       3.687  16.322  18.539  0.00  0.00    +0.000 C 
ATOM     18  C   UNL     1       2.184  16.240  18.294  0.00  0.00    +0.000 C 
ENDBRANCH  11  18
ENDBRANCH   7  14
ENDBRANCH   1   8
BRANCH   4  19
ATOM     19  O   UNL     1       3.013   6.514  18.215  0.00  0.00    +0.000 OA
BRANCH  19  20
ATOM     20  C   UNL     1       2.282   5.291  18.366  0.00  0.00    +0.000 C 
BRANCH  20  21
ATOM     21  C   UNL     1       3.049   4.252  19.110  0.00  0.00    +0.000 A 
ATOM     22  C   UNL     1       4.345   3.713  18.797  0.00  0.00    +0.000 A 
ATOM     23  N   UNL     1       4.655   2.731  19.661  0.00  0.00    +0.000 NA
ATOM     24  O   UNL     1       3.610   2.641  20.550  0.00  0.00    +0.000 OA
ATOM     25  C   UNL     1       2.659   3.550  20.230  0.00  0.00    +0.000 A 
ATOM     26  C   UNL     1       1.466   3.586  21.100  0.00  0.00    +0.000 C 
BRANCH  22  27
ATOM     27  C   UNL     1       5.280   4.079  17.723  0.00  0.00    +0.000 A 
ATOM     28  C   UNL     1       6.518   4.674  18.000  0.00  0.00    +0.000 A 
ATOM     29  C   UNL     1       7.398   5.027  16.974  0.00  0.00    +0.000 A 
ATOM     30  C   UNL     1       7.065   4.758  15.651  0.00  0.00    +0.000 A 
ATOM     31  C   UNL     1       5.853   4.140  15.355  0.00  0.00    +0.000 A 
ATOM     32  C   UNL     1       4.964   3.807  16.383  0.00  0.00    +0.000 A 
ENDBRANCH  22  27
ENDBRANCH  20  21
ENDBRANCH  19  20
ENDBRANCH   4  19
TORSDOF 7
ENDMDL
MODEL 4
REMARK VINA RESULT:      -7.9      3.329      9.681
REMARK  Name = 
REMARK  9 active torsions:
REMARK  status: ('A' for Active; 'I' for Inactive)
REMARK    1  A    between atoms: C_1  and  C_2
REMARK    2  A    between atoms: C_2  and  N_3
REMARK    3  A    between atoms: C_6  and  N_7
REMARK    4  A    between atoms: C_8  and  C_10
REMARK    5  A    between atoms: C_13  and  O_14
REMARK    6  A    between atoms: O_14  and  C_15
REMARK    7  A    between atoms: C_15  and  C_16
REMARK    8  A    between atoms: C_17  and  C_18
REMARK    9  A    between atoms: C_26  and  C_27
REMARK                            x       y       z     vdW  Elec       q    Type
REMARK                         _______ _______ _______ _____ _____    ______ ____
ROOT
ATOM      1  C   UNL     1       0.955   9.719  19.554  0.00  0.00    +0.000 A 
ATOM      2  C   UNL     1       1.227   8.719  20.492  0.00  0.00    +0.000 A 
ATOM      3  C   UNL     1       1.943   7.587  20.095  0.00  0.00    +0.000 A 
ATOM      4  C   UNL     1       2.374   7.515  18.778  0.00  0.00    +0.000 A 
ATOM      5  N   UNL     1       2.125   8.462  17.853  0.00  0.00    +0.000 NA
ATOM      6  C   UNL     1       1.405   9.538  18.254  0.00  0.00    +0.000 A 
ENDROOT
BRANCH   1   8
ATOM      7  N   UNL     1       0.927  12.063  20.169  0.00  0.00    +0.000 N 
ATOM      8  C   UNL     1       0.186  10.946  19.868  0.00  0.00    +0.000 C 
ATOM      9  O   UNL     1      -1.039  10.926  19.823  0.00  0.00    +0.000 OA
ATOM     10  H   UNL     1       1.912  12.059  19.947  0.00  0.00    +0.000 HD
BRANCH   7  14
ATOM     11  N   UNL     1       2.213  15.469  19.699  0.00  0.00    +0.000 NA
ATOM     12  C   UNL     1       1.448  14.731  18.678  0.00  0.00    +0.000 C 
ATOM     13  C   UNL     1       0.116  14.208  19.214  0.00  0.00    +0.000 C 
ATOM     14  C   UNL     1       0.307  13.353  20.467  0.00  0.00    +0.000 C 
ATOM     15  C   UNL     1       1.138  14.120  21.493  0.00  0.00    +0.000 C 
ATOM     16  C   UNL     1       2.444  14.653  20.898  0.00  0.00    +0.000 C 
BRANCH  11  18
ATOM     17  C   UNL     1       3.597  15.726  17.600  0.00  0.00    +0.000 C 
ATOM     18  C   UNL     1       3.465  15.967  19.100  0.00  0.00    +0.000 C 
ENDBRANCH  11  18
ENDBRANCH   7  14
ENDBRANCH   1   8
BRANCH   4  19
ATOM     19  O   UNL     1       3.055   6.377  18.406  0.00  0.00    +0.000 OA
BRANCH  19  20
ATOM     20  C   UNL     1       2.291   5.197  18.682  0.00  0.00    +0.000 C 
BRANCH  20  21
ATOM     21  C   UNL     1       3.097   4.133  19.344  0.00  0.00    +0.000 A 
ATOM     22  C   UNL     1       4.382   3.622  18.952  0.00  0.00    +0.000 A 
ATOM     23  N   UNL     1       4.737   2.603  19.756  0.00  0.00    +0.000 NA
ATOM     24  O   UNL     1       3.732   2.463  20.684  0.00  0.00    +0.000 OA
ATOM     25  C   UNL     1       2.760   3.376  20.447  0.00  0.00    +0.000 A 
ATOM     26  C   UNL     1       1.606   3.361  21.367  0.00  0.00    +0.000 C 
BRANCH  22  27
ATOM     27  C   UNL     1       5.267   4.046  17.858  0.00  0.00    +0.000 A 
ATOM     28  C   UNL     1       6.491   4.682  18.109  0.00  0.00    +0.000 A 
ATOM     29  C   UNL     1       7.323   5.089  17.063  0.00  0.00    +0.000 A 
ATOM     30  C   UNL     1       6.958   4.835  15.747  0.00  0.00    +0.000 A 
ATOM     31  C   UNL     1       5.762   4.177  15.475  0.00  0.00    +0.000 A 
ATOM     32  C   UNL     1       4.920   3.789  16.522  0.00  0.00    +0.000 A 
ENDBRANCH  22  27
ENDBRANCH  20  21
ENDBRANCH  19  20
ENDBRANCH   4  19
TORSDOF 7
ENDMDL
MODEL 5
REMARK VINA RESULT:      -7.9      3.280      9.731
REMARK  Name = 
REMARK  9 active torsions:
REMARK  status: ('A' for Active; 'I' for Inactive)
REMARK    1  A    between atoms: C_1  and  C_2
REMARK    2  A    between atoms: C_2  and  N_3
REMARK    3  A    between atoms: C_6  and  N_7
REMARK    4  A    between atoms: C_8  and  C_10
REMARK    5  A    between atoms: C_13  and  O_14
REMARK    6  A    between atoms: O_14  and  C_15
REMARK    7  A    between atoms: C_15  and  C_16
REMARK    8  A    between atoms: C_17  and  C_18
REMARK    9  A    between atoms: C_26  and  C_27
REMARK                            x       y       z     vdW  Elec       q    Type
REMARK                         _______ _______ _______ _____ _____    ______ ____
ROOT
ATOM      1  C   UNL     1       0.909  10.012  19.481  0.00  0.00    +0.000 A 
ATOM      2  C   UNL     1       1.379   9.895  18.170  0.00  0.00    +0.000 A 
ATOM      3  C   UNL     1       2.113   8.763  17.806  0.00  0.00    +0.000 A 
ATOM      4  C   UNL     1       2.328   7.787  18.769  0.00  0.00    +0.000 A 
ATOM      5  N   UNL     1       1.890   7.874  20.039  0.00  0.00    +0.000 NA
ATOM      6  C   UNL     1       1.204   8.994  20.376  0.00  0.00    +0.000 A 
ENDROOT
BRANCH   1   8
ATOM      7  N   UNL     1       0.857  12.339  20.158  0.00  0.00    +0.000 N 
ATOM      8  C   UNL     1       0.141  11.180  19.973  0.00  0.00    +0.000 C 
ATOM      9  O   UNL     1      -1.065  11.080  20.165  0.00  0.00    +0.000 OA
ATOM     10  H   UNL     1       1.778  12.404  19.749  0.00  0.00    +0.000 HD
BRANCH   7  14
ATOM     11  N   UNL     1       1.932  15.822  19.729  0.00  0.00    +0.000 NA
ATOM     12  C   UNL     1       1.072  15.104  18.772  0.00  0.00    +0.000 C 
ATOM     13  C   UNL     1      -0.157  14.490  19.441  0.00  0.00    +0.000 C 
ATOM     14  C   UNL     1       0.229  13.580  20.607  0.00  0.00    +0.000 C 
ATOM     15  C   UNL     1       1.153  14.330  21.562  0.00  0.00    +0.000 C 
ATOM     16  C   UNL     1       2.348  14.956  20.840  0.00  0.00    +0.000 C 
BRANCH  11  18
ATOM     17  C   UNL     1       3.330  15.822  17.624  0.00  0.00    +0.000 C 
ATOM     18  C   UNL     1       3.075  16.411  19.007  0.00  0.00    +0.000 C 
ENDBRANCH  11  18
ENDBRANCH   7  14
ENDBRANCH   1   8
BRANCH   4  19
ATOM     19  O   UNL     1       3.077   6.694  18.392  0.00  0.00    +0.000 OA
BRANCH  19  20
ATOM     20  C   UNL     1       2.248   5.548  18.163  0.00  0.00    +0.000 C 
BRANCH  20  21
ATOM     21  C   UNL     1       2.803   4.307  18.774  0.00  0.00    +0.000 A 
ATOM     22  C   UNL     1       4.033   3.634  18.453  0.00  0.00    +0.000 A 
ATOM     23  N   UNL     1       4.134   2.498  19.165  0.00  0.00    +0.000 NA
ATOM     24  O   UNL     1       3.020   2.433  19.968  0.00  0.00    +0.000 OA
ATOM     25  C   UNL     1       2.232   3.510  19.744  0.00  0.00    +0.000 A 
ATOM     26  C   UNL     1       0.990   3.593  20.539  0.00  0.00    +0.000 C 
BRANCH  22  27
ATOM     27  C   UNL     1       5.091   4.014  17.507  0.00  0.00    +0.000 A 
ATOM     28  C   UNL     1       4.912   3.901  16.121  0.00  0.00    +0.000 A 
ATOM     29  C   UNL     1       5.927   4.256  15.229  0.00  0.00    +0.000 A 
ATOM     30  C   UNL     1       7.128   4.764  15.710  0.00  0.00    +0.000 A 
ATOM     31  C   UNL     1       7.317   4.913  17.081  0.00  0.00    +0.000 A 
ATOM     32  C   UNL     1       6.308   4.536  17.974  0.00  0.00    +0.000 A 
ENDBRANCH  22  27
ENDBRANCH  20  21
ENDBRANCH  19  20
ENDBRANCH   4  19
TORSDOF 7
ENDMDL
MODEL 6
REMARK VINA RESULT:      -7.9      3.406      9.625
REMARK  Name = 
REMARK  9 active torsions:
REMARK  status: ('A' for Active; 'I' for Inactive)
REMARK    1  A    between atoms: C_1  and  C_2
REMARK    2  A    between atoms: C_2  and  N_3
REMARK    3  A    between atoms: C_6  and  N_7
REMARK    4  A    between atoms: C_8  and  C_10
REMARK    5  A    between atoms: C_13  and  O_14
REMARK    6  A    between atoms: O_14  and  C_15
REMARK    7  A    between atoms: C_15  and  C_16
REMARK    8  A    between atoms: C_17  and  C_18
REMARK    9  A    between atoms: C_26  and  C_27
REMARK                            x       y       z     vdW  Elec       q    Type
REMARK                         _______ _______ _______ _____ _____    ______ ____
ROOT
ATOM      1  C   UNL     1       1.063   9.936  19.799  0.00  0.00    +0.000 A 
ATOM      2  C   UNL     1       1.319   9.968  18.426  0.00  0.00    +0.000 A 
ATOM      3  C   UNL     1       1.870   8.842  17.807  0.00  0.00    +0.000 A 
ATOM      4  C   UNL     1       2.121   7.725  18.591  0.00  0.00    +0.000 A 
ATOM      5  N   UNL     1       1.886   7.667  19.916  0.00  0.00    +0.000 NA
ATOM      6  C   UNL     1       1.377   8.781  20.498  0.00  0.00    +0.000 A 
ENDROOT
BRANCH   1   8
ATOM      7  N   UNL     1       0.595  12.311  19.941  0.00  0.00    +0.000 N 
ATOM      8  C   UNL     1       0.502  11.083  20.552  0.00  0.00    +0.000 C 
ATOM      9  O   UNL     1      -0.028  10.897  21.641  0.00  0.00    +0.000 OA
ATOM     10  H   UNL     1       0.819  12.340  18.956  0.00  0.00    +0.000 HD
BRANCH   7  14
ATOM     11  N   UNL     1       1.864  15.754  19.861  0.00  0.00    +0.000 NA
ATOM     12  C   UNL     1       0.933  15.198  18.863  0.00  0.00    +0.000 C 
ATOM     13  C   UNL     1      -0.310  14.582  19.505  0.00  0.00    +0.000 C 
ATOM     14  C   UNL     1       0.057  13.527  20.548  0.00  0.00    +0.000 C 
ATOM     15  C   UNL     1       1.054  14.111  21.545  0.00  0.00    +0.000 C 
ATOM     16  C   UNL     1       2.261  14.746  20.852  0.00  0.00    +0.000 C 
BRANCH  11  18
ATOM     17  C   UNL     1       3.188  15.919  17.714  0.00  0.00    +0.000 C 
ATOM     18  C   UNL     1       3.017  16.356  19.165  0.00  0.00    +0.000 C 
ENDBRANCH  11  18
ENDBRANCH   7  14
ENDBRANCH   1   8
BRANCH   4  19
ATOM     19  O   UNL     1       2.688   6.638  17.963  0.00  0.00    +0.000 OA
BRANCH  19  20
ATOM     20  C   UNL     1       4.064   6.878  17.645  0.00  0.00    +0.000 C 
BRANCH  20  21
ATOM     21  C   UNL     1       4.971   5.828  18.191  0.00  0.00    +0.000 A 
ATOM     22  C   UNL     1       4.613   4.618  18.879  0.00  0.00    +0.000 A 
ATOM     23  N   UNL     1       5.721   3.979  19.292  0.00  0.00    +0.000 NA
ATOM     24  O   UNL     1       6.793   4.724  18.859  0.00  0.00    +0.000 OA
ATOM     25  C   UNL     1       6.350   5.819  18.197  0.00  0.00    +0.000 A 
ATOM     26  C   UNL     1       7.385   6.724  17.658  0.00  0.00    +0.000 C 
BRANCH  22  27
ATOM     27  C   UNL     1       3.284   4.058  19.165  0.00  0.00    +0.000 A 
ATOM     28  C   UNL     1       2.604   3.268  18.228  0.00  0.00    +0.000 A 
ATOM     29  C   UNL     1       1.338   2.746  18.504  0.00  0.00    +0.000 A 
ATOM     30  C   UNL     1       0.745   2.980  19.739  0.00  0.00    +0.000 A 
ATOM     31  C   UNL     1       1.415   3.737  20.696  0.00  0.00    +0.000 A 
ATOM     32  C   UNL     1       2.674   4.276  20.410  0.00  0.00    +0.000 A 
ENDBRANCH  22  27
ENDBRANCH  20  21
ENDBRANCH  19  20
ENDBRANCH   4  19
TORSDOF 7
ENDMDL
MODEL 7
REMARK VINA RESULT:      -7.9      3.023      9.321
REMARK  Name = 
REMARK  9 active torsions:
REMARK  status: ('A' for Active; 'I' for Inactive)
REMARK    1  A    between atoms: C_1  and  C_2
REMARK    2  A    between atoms: C_2  and  N_3
REMARK    3  A    between atoms: C_6  and  N_7
REMARK    4  A    between atoms: C_8  and  C_10
REMARK    5  A    between atoms: C_13  and  O_14
REMARK    6  A    between atoms: O_14  and  C_15
REMARK    7  A    between atoms: C_15  and  C_16
REMARK    8  A    between atoms: C_17  and  C_18
REMARK    9  A    between atoms: C_26  and  C_27
REMARK                            x       y       z     vdW  Elec       q    Type
REMARK                         _______ _______ _______ _____ _____    ______ ____
ROOT
ATOM      1  C   UNL     1       1.249  10.543  19.083  0.00  0.00    +0.000 A 
ATOM      2  C   UNL     1       1.176   9.546  20.060  0.00  0.00    +0.000 A 
ATOM      3  C   UNL     1       1.649   8.265  19.765  0.00  0.00    +0.000 A 
ATOM      4  C   UNL     1       2.192   8.044  18.507  0.00  0.00    +0.000 A 
ATOM      5  N   UNL     1       2.273   8.984  17.547  0.00  0.00    +0.000 NA
ATOM      6  C   UNL     1       1.783  10.212  17.847  0.00  0.00    +0.000 A 
ENDROOT
BRANCH   1   8
ATOM      7  N   UNL     1       0.161  12.181  20.501  0.00  0.00    +0.000 N 
ATOM      8  C   UNL     1       0.756  11.926  19.289  0.00  0.00    +0.000 C 
ATOM      9  O   UNL     1       0.915  12.766  18.412  0.00  0.00    +0.000 OA
ATOM     10  H   UNL     1       0.290  11.514  21.249  0.00  0.00    +0.000 HD
BRANCH   7  14
ATOM     11  N   UNL     1      -2.769  13.138  22.495  0.00  0.00    +0.000 NA
ATOM     12  C   UNL     1      -1.429  12.905  23.063  0.00  0.00    +0.000 C 
ATOM     13  C   UNL     1      -0.350  13.735  22.370  0.00  0.00    +0.000 C 
ATOM     14  C   UNL     1      -0.343  13.506  20.859  0.00  0.00    +0.000 C 
ATOM     15  C   UNL     1      -1.747  13.711  20.299  0.00  0.00    +0.000 C 
ATOM     16  C   UNL     1      -2.796  12.885  21.048  0.00  0.00    +0.000 C 
BRANCH  11  18
ATOM     17  C   UNL     1      -4.028  12.795  24.659  0.00  0.00    +0.000 C 
ATOM     18  C   UNL     1      -3.756  12.328  23.233  0.00  0.00    +0.000 C 
ENDBRANCH  11  18
ENDBRANCH   7  14
ENDBRANCH   1   8
BRANCH   4  19
ATOM     19  O   UNL     1       2.626   6.766  18.232  0.00  0.00    +0.000 OA
BRANCH  19  20
ATOM     20  C   UNL     1       3.918   6.776  17.611  0.00  0.00    +0.000 C 
BRANCH  20  21
ATOM     21  C   UNL     1       4.846   5.770  18.201  0.00  0.00    +0.000 A 
ATOM     22  C   UNL     1       4.513   4.578  18.932  0.00  0.00    +0.000 A 
ATOM     23  N   UNL     1       5.634   3.981  19.373  0.00  0.00    +0.000 NA
ATOM     24  O   UNL     1       6.690   4.734  18.917  0.00  0.00    +0.000 OA
ATOM     25  C   UNL     1       6.225   5.793  18.213  0.00  0.00    +0.000 A 
ATOM     26  C   UNL     1       7.241   6.701  17.645  0.00  0.00    +0.000 C 
BRANCH  22  27
ATOM     27  C   UNL     1       3.196   3.998  19.232  0.00  0.00    +0.000 A 
ATOM     28  C   UNL     1       2.566   4.209  20.466  0.00  0.00    +0.000 A 
ATOM     29  C   UNL     1       1.318   3.647  20.747  0.00  0.00    +0.000 A 
ATOM     30  C   UNL     1       0.664   2.891  19.782  0.00  0.00    +0.000 A 
ATOM     31  C   UNL     1       1.257   2.694  18.537  0.00  0.00    +0.000 A 
ATOM     32  C   UNL     1       2.517   3.239  18.266  0.00  0.00    +0.000 A 
ENDBRANCH  22  27
ENDBRANCH  20  21
ENDBRANCH  19  20
ENDBRANCH   4  19
TORSDOF 7
ENDMDL
MODEL 8
REMARK VINA RESULT:      -7.9      3.530      9.602
REMARK  Name = 
REMARK  9 active torsions:
REMARK  status: ('A' for Active; 'I' for Inactive)
REMARK    1  A    between atoms: C_1  and  C_2
REMARK    2  A    between atoms: C_2  and  N_3
REMARK    3  A    between atoms: C_6  and  N_7
REMARK    4  A    between atoms: C_8  and  C_10
REMARK    5  A    between atoms: C_13  and  O_14
REMARK    6  A    between atoms: O_14  and  C_15
REMARK    7  A    between atoms: C_15  and  C_16
REMARK    8  A    between atoms: C_17  and  C_18
REMARK    9  A    between atoms: C_26  and  C_27
REMARK                            x       y       z     vdW  Elec       q    Type
REMARK                         _______ _______ _______ _____ _____    ______ ____
ROOT
ATOM      1  C   UNL     1       1.115  10.110  19.368  0.00  0.00    +0.000 A 
ATOM      2  C   UNL     1       1.255   9.000  20.206  0.00  0.00    +0.000 A 
ATOM      3  C   UNL     1       1.818   7.827  19.697  0.00  0.00    +0.000 A 
ATOM      4  C   UNL     1       2.235   7.824  18.374  0.00  0.00    +0.000 A 
ATOM      5  N   UNL     1       2.110   8.877  17.544  0.00  0.00    +0.000 NA
ATOM      6  C   UNL     1       1.536   9.995  18.052  0.00  0.00    +0.000 A 
ENDROOT
BRANCH   1   8
ATOM      7  N   UNL     1       1.373  12.456  19.920  0.00  0.00    +0.000 N 
ATOM      8  C   UNL     1       0.511  11.392  19.804  0.00  0.00    +0.000 C 
ATOM      9  O   UNL     1      -0.694  11.458  20.012  0.00  0.00    +0.000 OA
ATOM     10  H   UNL     1       2.288  12.380  19.500  0.00  0.00    +0.000 HD
BRANCH   7  14
ATOM     11  N   UNL     1       3.042  15.710  19.609  0.00  0.00    +0.000 NA
ATOM     12  C   UNL     1       2.174  15.130  18.569  0.00  0.00    +0.000 C 
ATOM     13  C   UNL     1       0.801  14.734  19.112  0.00  0.00    +0.000 C 
ATOM     14  C   UNL     1       0.916  13.790  20.308  0.00  0.00    +0.000 C 
ATOM     15  C   UNL     1       1.853  14.391  21.352  0.00  0.00    +0.000 C 
ATOM     16  C   UNL     1       3.200  14.803  20.753  0.00  0.00    +0.000 C 
BRANCH  11  18
ATOM     17  C   UNL     1       5.430  16.438  20.005  0.00  0.00    +0.000 C 
ATOM     18  C   UNL     1       4.332  16.094  19.004  0.00  0.00    +0.000 C 
ENDBRANCH  11  18
ENDBRANCH   7  14
ENDBRANCH   1   8
BRANCH   4  19
ATOM     19  O   UNL     1       2.762   6.647  17.889  0.00  0.00    +0.000 OA
BRANCH  19  20
ATOM     20  C   UNL     1       4.136   6.807  17.514  0.00  0.00    +0.000 C 
BRANCH  20  21
ATOM     21  C   UNL     1       5.025   5.789  18.143  0.00  0.00    +0.000 A 
ATOM     22  C   UNL     1       4.645   4.619  18.886  0.00  0.00    +0.000 A 
ATOM     23  N   UNL     1       5.741   4.004  19.366  0.00  0.00    +0.000 NA
ATOM     24  O   UNL     1       6.825   4.723  18.923  0.00  0.00    +0.000 OA
ATOM     25  C   UNL     1       6.403   5.780  18.189  0.00  0.00    +0.000 A 
ATOM     26  C   UNL     1       7.455   6.653  17.631  0.00  0.00    +0.000 C 
BRANCH  22  27
ATOM     27  C   UNL     1       3.308   4.076  19.164  0.00  0.00    +0.000 A 
ATOM     28  C   UNL     1       2.635   3.272  18.234  0.00  0.00    +0.000 A 
ATOM     29  C   UNL     1       1.360   2.767  18.503  0.00  0.00    +0.000 A 
ATOM     30  C   UNL     1       0.752   3.031  19.724  0.00  0.00    +0.000 A 
ATOM     31  C   UNL     1       1.415   3.802  20.676  0.00  0.00    +0.000 A 
ATOM     32  C   UNL     1       2.682   4.325  20.396  0.00  0.00    +0.000 A 
ENDBRANCH  22  27
ENDBRANCH  20  21
ENDBRANCH  19  20
ENDBRANCH   4  19
TORSDOF 7
ENDMDL
MODEL 9
REMARK VINA RESULT:      -7.8      2.996      9.582
REMARK  Name = 
REMARK  9 active torsions:
REMARK  status: ('A' for Active; 'I' for Inactive)
REMARK    1  A    between atoms: C_1  and  C_2
REMARK    2  A    between atoms: C_2  and  N_3
REMARK    3  A    between atoms: C_6  and  N_7
REMARK    4  A    between atoms: C_8  and  C_10
REMARK    5  A    between atoms: C_13  and  O_14
REMARK    6  A    between atoms: O_14  and  C_15
REMARK    7  A    between atoms: C_15  and  C_16
REMARK    8  A    between atoms: C_17  and  C_18
REMARK    9  A    between atoms: C_26  and  C_27
REMARK                            x       y       z     vdW  Elec       q    Type
REMARK                         _______ _______ _______ _____ _____    ______ ____
ROOT
ATOM      1  C   UNL     1       0.780   9.560  20.535  0.00  0.00    +0.000 A 
ATOM      2  C   UNL     1       0.851  10.041  19.225  0.00  0.00    +0.000 A 
ATOM      3  C   UNL     1       1.529   9.294  18.258  0.00  0.00    +0.000 A 
ATOM      4  C   UNL     1       2.090   8.085  18.644  0.00  0.00    +0.000 A 
ATOM      5  N   UNL     1       2.038   7.597  19.898  0.00  0.00    +0.000 NA
ATOM      6  C   UNL     1       1.399   8.353  20.824  0.00  0.00    +0.000 A 
ENDROOT
BRANCH   1   8
ATOM      7  N   UNL     1      -0.829  11.222  21.261  0.00  0.00    +0.000 N 
ATOM      8  C   UNL     1       0.104  10.286  21.637  0.00  0.00    +0.000 C 
ATOM      9  O   UNL     1       0.375  10.015  22.801  0.00  0.00    +0.000 OA
ATOM     10  H   UNL     1      -1.164  11.209  20.308  0.00  0.00    +0.000 HD
BRANCH   7  14
ATOM     11  N   UNL     1      -1.793  14.764  21.248  0.00  0.00    +0.000 NA
ATOM     12  C   UNL     1      -2.607  13.689  20.655  0.00  0.00    +0.000 C 
ATOM     13  C   UNL     1      -2.888  12.557  21.643  0.00  0.00    +0.000 C 
ATOM     14  C   UNL     1      -1.598  11.992  22.237  0.00  0.00    +0.000 C 
ATOM     15  C   UNL     1      -0.752  13.126  22.807  0.00  0.00    +0.000 C 
ATOM     16  C   UNL     1      -0.529  14.249  21.791  0.00  0.00    +0.000 C 
BRANCH  11  18
ATOM     17  C   UNL     1      -0.392  15.624  19.328  0.00  0.00    +0.000 C 
ATOM     18  C   UNL     1      -1.592  15.829  20.248  0.00  0.00    +0.000 C 
ENDBRANCH  11  18
ENDBRANCH   7  14
ENDBRANCH   1   8
BRANCH   4  19
ATOM     19  O   UNL     1       2.775   7.380  17.678  0.00  0.00    +0.000 OA
BRANCH  19  20
ATOM     20  C   UNL     1       3.891   6.678  18.239  0.00  0.00    +0.000 C 
BRANCH  20  21
ATOM     21  C   UNL     1       4.133   5.364  17.578  0.00  0.00    +0.000 A 
ATOM     22  C   UNL     1       3.721   4.060  18.022  0.00  0.00    +0.000 A 
ATOM     23  N   UNL     1       4.209   3.118  17.196  0.00  0.00    +0.000 NA
ATOM     24  O   UNL     1       4.898   3.778  16.205  0.00  0.00    +0.000 OA
ATOM     25  C   UNL     1       4.847   5.113  16.425  0.00  0.00    +0.000 A 
ATOM     26  C   UNL     1       5.536   5.968  15.439  0.00  0.00    +0.000 C 
BRANCH  22  27
ATOM     27  C   UNL     1       2.907   3.678  19.184  0.00  0.00    +0.000 A 
ATOM     28  C   UNL     1       3.456   2.979  20.268  0.00  0.00    +0.000 A 
ATOM     29  C   UNL     1       2.673   2.612  21.365  0.00  0.00    +0.000 A 
ATOM     30  C   UNL     1       1.330   2.969  21.410  0.00  0.00    +0.000 A 
ATOM     31  C   UNL     1       0.770   3.689  20.358  0.00  0.00    +0.000 A 
ATOM     32  C   UNL     1       1.551   4.037  19.251  0.00  0.00    +0.000 A 
ENDBRANCH  22  27
ENDBRANCH  20  21
ENDBRANCH  19  20
ENDBRANCH   4  19
TORSDOF 7
ENDMDL
