MODEL 1
REMARK VINA RESULT:      -6.7      0.000      0.000
REMARK  Name = 
REMARK  4 active torsions:
REMARK  status: ('A' for Active; 'I' for Inactive)
REMARK    1  A    between atoms: C_2  and  C_3
REMARK    2  A    between atoms: N_6  and  C_7
REMARK    3  A    between atoms: C_10  and  N_11
REMARK    4  A    between atoms: C_16  and  N_17
REMARK                            x       y       z     vdW  Elec       q    Type
REMARK                         _______ _______ _______ _____ _____    ______ ____
ROOT
ATOM      1  C   UNL     1       3.083   3.793  20.242  0.00  0.00    +0.000 A 
ATOM      2  C   UNL     1       3.048   5.185  20.092  0.00  0.00    +0.000 A 
ATOM      3  N   UNL     1       3.853   5.614  19.120  0.00  0.00    +0.000 NA
ATOM      4  N   UNL     1       4.326   4.475  18.542  0.00  0.00    +0.000 N 
ATOM      5  C   UNL     1       3.951   3.336  19.272  0.00  0.00    +0.000 A 
ENDROOT
BRANCH   4   6
ATOM      6  C   UNL     1       5.110   4.554  17.357  0.00  0.00    +0.000 A 
ATOM      7  C   UNL     1       4.528   4.223  16.123  0.00  0.00    +0.000 A 
ATOM      8  C   UNL     1       5.268   4.347  14.942  0.00  0.00    +0.000 A 
ATOM      9  C   UNL     1       6.605   4.764  15.005  0.00  0.00    +0.000 A 
ATOM     10  C   UNL     1       7.206   5.048  16.238  0.00  0.00    +0.000 A 
ATOM     11  C   UNL     1       6.456   4.945  17.412  0.00  0.00    +0.000 A 
BRANCH   9  12
ATOM     12  N   UNL     1       7.385   4.904  13.770  0.00  0.00    +0.000 N 
ATOM     13  O   UNL     1       7.073   4.188  12.808  0.00  0.00    +0.000 OA
ATOM     14  O   UNL     1       8.304   5.736  13.760  0.00  0.00    +0.000 OA
ENDBRANCH   9  12
ENDBRANCH   4   6
BRANCH   5  15
ATOM     15  N   UNL     1       4.438   2.081  19.050  0.00  0.00    +0.000 N 
ATOM     16  H   UNL     1       5.329   1.799  19.460  0.00  0.00    +0.000 HD
ATOM     17  H   UNL     1       3.795   1.290  18.997  0.00  0.00    +0.000 HD
ENDBRANCH   5  15
BRANCH   1  19
ATOM     18  N   UNL     1       1.898   2.397  22.063  0.00  0.00    +0.000 NA
ATOM     19  C   UNL     1       2.422   3.019  21.238  0.00  0.00    +0.000 C 
ENDBRANCH   1  19
TORSDOF 4
ENDMDL
MODEL 2
REMARK VINA RESULT:      -6.6      0.453      1.448
REMARK  Name = 
REMARK  4 active torsions:
REMARK  status: ('A' for Active; 'I' for Inactive)
REMARK    1  A    between atoms: C_2  and  C_3
REMARK    2  A    between atoms: N_6  and  C_7
REMARK    3  A    between atoms: C_10  and  N_11
REMARK    4  A    between atoms: C_16  and  N_17
REMARK                            x       y       z     vdW  Elec       q    Type
REMARK                         _______ _______ _______ _____ _____    ______ ____
ROOT
ATOM      1  C   UNL     1       2.766   3.890  20.453  0.00  0.00    +0.000 A 
ATOM      2  C   UNL     1       2.591   5.263  20.240  0.00  0.00    +0.000 A 
ATOM      3  N   UNL     1       3.361   5.731  19.257  0.00  0.00    +0.000 NA
ATOM      4  N   UNL     1       3.955   4.622  18.735  0.00  0.00    +0.000 N 
ATOM      5  C   UNL     1       3.689   3.483  19.511  0.00  0.00    +0.000 A 
ENDROOT
BRANCH   4   6
ATOM      6  C   UNL     1       4.744   4.729  17.554  0.00  0.00    +0.000 A 
ATOM      7  C   UNL     1       5.931   5.478  17.585  0.00  0.00    +0.000 A 
ATOM      8  C   UNL     1       6.745   5.548  16.451  0.00  0.00    +0.000 A 
ATOM      9  C   UNL     1       6.347   4.901  15.272  0.00  0.00    +0.000 A 
ATOM     10  C   UNL     1       5.140   4.194  15.221  0.00  0.00    +0.000 A 
ATOM     11  C   UNL     1       4.340   4.107  16.364  0.00  0.00    +0.000 A 
BRANCH   9  12
ATOM     12  N   UNL     1       7.200   4.964  14.080  0.00  0.00    +0.000 N 
ATOM     13  O   UNL     1       8.206   5.686  14.130  0.00  0.00    +0.000 OA
ATOM     14  O   UNL     1       6.869   4.285  13.097  0.00  0.00    +0.000 OA
ENDBRANCH   9  12
ENDBRANCH   4   6
BRANCH   5  15
ATOM     15  N   UNL     1       4.304   2.276  19.350  0.00  0.00    +0.000 N 
ATOM     16  H   UNL     1       4.413   1.647  20.146  0.00  0.00    +0.000 HD
ATOM     17  H   UNL     1       4.169   1.749  18.485  0.00  0.00    +0.000 HD
ENDBRANCH   5  15
BRANCH   1  19
ATOM     18  N   UNL     1       1.672   2.454  22.300  0.00  0.00    +0.000 NA
ATOM     19  C   UNL     1       2.174   3.096  21.475  0.00  0.00    +0.000 C 
ENDBRANCH   1  19
TORSDOF 4
ENDMDL
MODEL 3
REMARK VINA RESULT:      -6.5      0.881      1.165
REMARK  Name = 
REMARK  4 active torsions:
REMARK  status: ('A' for Active; 'I' for Inactive)
REMARK    1  A    between atoms: C_2  and  C_3
REMARK    2  A    between atoms: N_6  and  C_7
REMARK    3  A    between atoms: C_10  and  N_11
REMARK    4  A    between atoms: C_16  and  N_17
REMARK                            x       y       z     vdW  Elec       q    Type
REMARK                         _______ _______ _______ _____ _____    ______ ____
ROOT
ATOM      1  C   UNL     1       2.563   3.727  19.955  0.00  0.00    +0.000 A 
ATOM      2  C   UNL     1       1.867   4.711  19.241  0.00  0.00    +0.000 A 
ATOM      3  N   UNL     1       2.571   5.194  18.217  0.00  0.00    +0.000 NA
ATOM      4  N   UNL     1       3.695   4.425  18.185  0.00  0.00    +0.000 N 
ATOM      5  C   UNL     1       3.770   3.578  19.303  0.00  0.00    +0.000 A 
ENDROOT
BRANCH   4   6
ATOM      6  C   UNL     1       4.619   4.565  17.112  0.00  0.00    +0.000 A 
ATOM      7  C   UNL     1       4.872   3.467  16.274  0.00  0.00    +0.000 A 
ATOM      8  C   UNL     1       5.735   3.603  15.181  0.00  0.00    +0.000 A 
ATOM      9  C   UNL     1       6.377   4.829  14.955  0.00  0.00    +0.000 A 
ATOM     10  C   UNL     1       6.167   5.912  15.817  0.00  0.00    +0.000 A 
ATOM     11  C   UNL     1       5.286   5.779  16.893  0.00  0.00    +0.000 A 
BRANCH   9  12
ATOM     12  N   UNL     1       7.278   4.980  13.808  0.00  0.00    +0.000 N 
ATOM     13  O   UNL     1       8.265   5.717  13.944  0.00  0.00    +0.000 OA
ATOM     14  O   UNL     1       7.005   4.354  12.773  0.00  0.00    +0.000 OA
ENDBRANCH   9  12
ENDBRANCH   4   6
BRANCH   5  15
ATOM     15  N   UNL     1       4.867   2.842  19.643  0.00  0.00    +0.000 N 
ATOM     16  H   UNL     1       5.744   2.969  19.138  0.00  0.00    +0.000 HD
ATOM     17  H   UNL     1       5.040   2.614  20.623  0.00  0.00    +0.000 HD
ENDBRANCH   5  15
BRANCH   1  19
ATOM     18  N   UNL     1       1.817   2.524  22.115  0.00  0.00    +0.000 NA
ATOM     19  C   UNL     1       2.146   3.074  21.150  0.00  0.00    +0.000 C 
ENDBRANCH   1  19
TORSDOF 4
ENDMDL
MODEL 4
REMARK VINA RESULT:      -6.4      0.753      1.331
REMARK  Name = 
REMARK  4 active torsions:
REMARK  status: ('A' for Active; 'I' for Inactive)
REMARK    1  A    between atoms: C_2  and  C_3
REMARK    2  A    between atoms: N_6  and  C_7
REMARK    3  A    between atoms: C_10  and  N_11
REMARK    4  A    between atoms: C_16  and  N_17
REMARK                            x       y       z     vdW  Elec       q    Type
REMARK                         _______ _______ _______ _____ _____    ______ ____
ROOT
ATOM      1  C   UNL     1       2.964   3.945  19.797  0.00  0.00    +0.000 A 
ATOM      2  C   UNL     1       2.279   4.988  19.161  0.00  0.00    +0.000 A 
ATOM      3  N   UNL     1       2.946   5.474  18.114  0.00  0.00    +0.000 NA
ATOM      4  N   UNL     1       4.025   4.651  17.987  0.00  0.00    +0.000 N 
ATOM      5  C   UNL     1       4.120   3.760  19.068  0.00  0.00    +0.000 A 
ENDROOT
BRANCH   4   6
ATOM      6  C   UNL     1       4.891   4.785  16.865  0.00  0.00    +0.000 A 
ATOM      7  C   UNL     1       5.924   5.734  16.903  0.00  0.00    +0.000 A 
ATOM      8  C   UNL     1       6.818   5.841  15.832  0.00  0.00    +0.000 A 
ATOM      9  C   UNL     1       6.649   5.023  14.706  0.00  0.00    +0.000 A 
ATOM     10  C   UNL     1       5.591   4.108  14.642  0.00  0.00    +0.000 A 
ATOM     11  C   UNL     1       4.714   3.989  15.724  0.00  0.00    +0.000 A 
BRANCH   9  12
ATOM     12  N   UNL     1       7.587   5.124  13.582  0.00  0.00    +0.000 N 
ATOM     13  O   UNL     1       7.329   4.478  12.558  0.00  0.00    +0.000 OA
ATOM     14  O   UNL     1       8.576   5.859  13.722  0.00  0.00    +0.000 OA
ENDBRANCH   9  12
ENDBRANCH   4   6
BRANCH   5  15
ATOM     15  N   UNL     1       5.195   2.958  19.315  0.00  0.00    +0.000 N 
ATOM     16  H   UNL     1       5.226   2.391  20.164  0.00  0.00    +0.000 HD
ATOM     17  H   UNL     1       5.661   2.480  18.541  0.00  0.00    +0.000 HD
ENDBRANCH   5  15
BRANCH   1  19
ATOM     18  N   UNL     1       2.273   2.738  21.973  0.00  0.00    +0.000 NA
ATOM     19  C   UNL     1       2.583   3.269  20.991  0.00  0.00    +0.000 C 
ENDBRANCH   1  19
TORSDOF 4
ENDMDL
MODEL 5
REMARK VINA RESULT:      -6.0      1.171      1.495
REMARK  Name = 
REMARK  4 active torsions:
REMARK  status: ('A' for Active; 'I' for Inactive)
REMARK    1  A    between atoms: C_2  and  C_3
REMARK    2  A    between atoms: N_6  and  C_7
REMARK    3  A    between atoms: C_10  and  N_11
REMARK    4  A    between atoms: C_16  and  N_17
REMARK                            x       y       z     vdW  Elec       q    Type
REMARK                         _______ _______ _______ _____ _____    ______ ____
ROOT
ATOM      1  C   UNL     1       3.180   3.247  19.376  0.00  0.00    +0.000 A 
ATOM      2  C   UNL     1       2.239   3.450  18.359  0.00  0.00    +0.000 A 
ATOM      3  N   UNL     1       2.792   3.904  17.234  0.00  0.00    +0.000 NA
ATOM      4  N   UNL     1       4.132   3.878  17.479  0.00  0.00    +0.000 N 
ATOM      5  C   UNL     1       4.402   3.574  18.823  0.00  0.00    +0.000 A 
ENDROOT
BRANCH   4   6
ATOM      6  C   UNL     1       5.051   4.161  16.430  0.00  0.00    +0.000 A 
ATOM      7  C   UNL     1       4.674   3.917  15.100  0.00  0.00    +0.000 A 
ATOM      8  C   UNL     1       5.543   4.241  14.053  0.00  0.00    +0.000 A 
ATOM      9  C   UNL     1       6.808   4.771  14.344  0.00  0.00    +0.000 A 
ATOM     10  C   UNL     1       7.209   4.970  15.670  0.00  0.00    +0.000 A 
ATOM     11  C   UNL     1       6.328   4.667  16.712  0.00  0.00    +0.000 A 
BRANCH   9  12
ATOM     12  N   UNL     1       7.722   5.120  13.251  0.00  0.00    +0.000 N 
ATOM     13  O   UNL     1       8.649   5.902  13.503  0.00  0.00    +0.000 OA
ATOM     14  O   UNL     1       7.519   4.603  12.142  0.00  0.00    +0.000 OA
ENDBRANCH   9  12
ENDBRANCH   4   6
BRANCH   5  15
ATOM     15  N   UNL     1       5.631   3.670  19.406  0.00  0.00    +0.000 N 
ATOM     16  H   UNL     1       5.739   3.495  20.405  0.00  0.00    +0.000 HD
ATOM     17  H   UNL     1       6.461   3.368  18.892  0.00  0.00    +0.000 HD
ENDBRANCH   5  15
BRANCH   1  19
ATOM     18  N   UNL     1       2.731   2.532  21.817  0.00  0.00    +0.000 NA
ATOM     19  C   UNL     1       2.922   2.860  20.721  0.00  0.00    +0.000 C 
ENDBRANCH   1  19
TORSDOF 4
ENDMDL
MODEL 6
REMARK VINA RESULT:      -5.9      4.165      5.927
REMARK  Name = 
REMARK  4 active torsions:
REMARK  status: ('A' for Active; 'I' for Inactive)
REMARK    1  A    between atoms: C_2  and  C_3
REMARK    2  A    between atoms: N_6  and  C_7
REMARK    3  A    between atoms: C_10  and  N_11
REMARK    4  A    between atoms: C_16  and  N_17
REMARK                            x       y       z     vdW  Elec       q    Type
REMARK                         _______ _______ _______ _____ _____    ______ ____
ROOT
ATOM      1  C   UNL     1       1.381   9.313  19.170  0.00  0.00    +0.000 A 
ATOM      2  C   UNL     1       1.843   9.179  17.854  0.00  0.00    +0.000 A 
ATOM      3  N   UNL     1       2.493   8.033  17.655  0.00  0.00    +0.000 NA
ATOM      4  N   UNL     1       2.345   7.350  18.824  0.00  0.00    +0.000 N 
ATOM      5  C   UNL     1       1.751   8.150  19.814  0.00  0.00    +0.000 A 
ENDROOT
BRANCH   4   6
ATOM      6  C   UNL     1       2.792   6.002  18.921  0.00  0.00    +0.000 A 
ATOM      7  C   UNL     1       4.149   5.744  19.170  0.00  0.00    +0.000 A 
ATOM      8  C   UNL     1       4.596   4.428  19.323  0.00  0.00    +0.000 A 
ATOM      9  C   UNL     1       3.689   3.368  19.183  0.00  0.00    +0.000 A 
ATOM     10  C   UNL     1       2.343   3.618  18.885  0.00  0.00    +0.000 A 
ATOM     11  C   UNL     1       1.896   4.936  18.757  0.00  0.00    +0.000 A 
BRANCH   9  12
ATOM     12  N   UNL     1       4.149   1.985  19.349  0.00  0.00    +0.000 N 
ATOM     13  O   UNL     1       3.706   1.134  18.565  0.00  0.00    +0.000 OA
ATOM     14  O   UNL     1       4.961   1.752  20.257  0.00  0.00    +0.000 OA
ENDBRANCH   9  12
ENDBRANCH   4   6
BRANCH   5  15
ATOM     15  N   UNL     1       1.656   7.808  21.131  0.00  0.00    +0.000 N 
ATOM     16  H   UNL     1       1.772   6.834  21.415  0.00  0.00    +0.000 HD
ATOM     17  H   UNL     1       2.014   8.442  21.847  0.00  0.00    +0.000 HD
ENDBRANCH   5  15
BRANCH   1  19
ATOM     18  N   UNL     1       0.210  11.376  20.191  0.00  0.00    +0.000 NA
ATOM     19  C   UNL     1       0.734  10.444  19.743  0.00  0.00    +0.000 C 
ENDBRANCH   1  19
TORSDOF 4
ENDMDL
MODEL 7
REMARK VINA RESULT:      -5.9      4.178      5.885
REMARK  Name = 
REMARK  4 active torsions:
REMARK  status: ('A' for Active; 'I' for Inactive)
REMARK    1  A    between atoms: C_2  and  C_3
REMARK    2  A    between atoms: N_6  and  C_7
REMARK    3  A    between atoms: C_10  and  N_11
REMARK    4  A    between atoms: C_16  and  N_17
REMARK                            x       y       z     vdW  Elec       q    Type
REMARK                         _______ _______ _______ _____ _____    ______ ____
ROOT
ATOM      1  C   UNL     1       1.363   9.339  19.184  0.00  0.00    +0.000 A 
ATOM      2  C   UNL     1       1.842   9.151  17.881  0.00  0.00    +0.000 A 
ATOM      3  N   UNL     1       2.513   8.007  17.744  0.00  0.00    +0.000 NA
ATOM      4  N   UNL     1       2.362   7.379  18.943  0.00  0.00    +0.000 N 
ATOM      5  C   UNL     1       1.745   8.215  19.887  0.00  0.00    +0.000 A 
ENDROOT
BRANCH   4   6
ATOM      6  C   UNL     1       2.831   6.045  19.108  0.00  0.00    +0.000 A 
ATOM      7  C   UNL     1       1.905   4.991  19.156  0.00  0.00    +0.000 A 
ATOM      8  C   UNL     1       2.351   3.670  19.263  0.00  0.00    +0.000 A 
ATOM      9  C   UNL     1       3.725   3.409  19.364  0.00  0.00    +0.000 A 
ATOM     10  C   UNL     1       4.651   4.460  19.366  0.00  0.00    +0.000 A 
ATOM     11  C   UNL     1       4.202   5.777  19.236  0.00  0.00    +0.000 A 
BRANCH   9  12
ATOM     12  N   UNL     1       4.201   2.026  19.469  0.00  0.00    +0.000 N 
ATOM     13  O   UNL     1       3.756   1.201  18.659  0.00  0.00    +0.000 OA
ATOM     14  O   UNL     1       5.028   1.766  20.356  0.00  0.00    +0.000 OA
ENDBRANCH   9  12
ENDBRANCH   4   6
BRANCH   5  15
ATOM     15  N   UNL     1       1.642   7.935  21.218  0.00  0.00    +0.000 N 
ATOM     16  H   UNL     1       2.220   7.203  21.632  0.00  0.00    +0.000 HD
ATOM     17  H   UNL     1       1.477   8.691  21.884  0.00  0.00    +0.000 HD
ENDBRANCH   5  15
BRANCH   1  19
ATOM     18  N   UNL     1       0.130  11.418  20.095  0.00  0.00    +0.000 NA
ATOM     19  C   UNL     1       0.691  10.486  19.696  0.00  0.00    +0.000 C 
ENDBRANCH   1  19
TORSDOF 4
ENDMDL
MODEL 8
REMARK VINA RESULT:      -5.9      2.128      3.082
REMARK  Name = 
REMARK  4 active torsions:
REMARK  status: ('A' for Active; 'I' for Inactive)
REMARK    1  A    between atoms: C_2  and  C_3
REMARK    2  A    between atoms: N_6  and  C_7
REMARK    3  A    between atoms: C_10  and  N_11
REMARK    4  A    between atoms: C_16  and  N_17
REMARK                            x       y       z     vdW  Elec       q    Type
REMARK                         _______ _______ _______ _____ _____    ______ ____
ROOT
ATOM      1  C   UNL     1       1.916   6.962  20.314  0.00  0.00    +0.000 A 
ATOM      2  C   UNL     1       2.158   5.628  20.664  0.00  0.00    +0.000 A 
ATOM      3  N   UNL     1       2.869   4.979  19.741  0.00  0.00    +0.000 NA
ATOM      4  N   UNL     1       3.205   5.937  18.834  0.00  0.00    +0.000 N 
ATOM      5  C   UNL     1       2.550   7.150  19.103  0.00  0.00    +0.000 A 
ENDROOT
BRANCH   4   6
ATOM      6  C   UNL     1       4.103   5.627  17.774  0.00  0.00    +0.000 A 
ATOM      7  C   UNL     1       4.042   4.362  17.168  0.00  0.00    +0.000 A 
ATOM      8  C   UNL     1       4.878   4.060  16.089  0.00  0.00    +0.000 A 
ATOM      9  C   UNL     1       5.805   5.013  15.644  0.00  0.00    +0.000 A 
ATOM     10  C   UNL     1       5.904   6.259  16.276  0.00  0.00    +0.000 A 
ATOM     11  C   UNL     1       5.051   6.565  17.339  0.00  0.00    +0.000 A 
BRANCH   9  12
ATOM     12  N   UNL     1       6.681   4.706  14.508  0.00  0.00    +0.000 N 
ATOM     13  O   UNL     1       6.346   3.780  13.757  0.00  0.00    +0.000 OA
ATOM     14  O   UNL     1       7.700   5.397  14.362  0.00  0.00    +0.000 OA
ENDBRANCH   9  12
ENDBRANCH   4   6
BRANCH   5  15
ATOM     15  N   UNL     1       2.536   8.223  18.261  0.00  0.00    +0.000 N 
ATOM     16  H   UNL     1       2.736   9.157  18.620  0.00  0.00    +0.000 HD
ATOM     17  H   UNL     1       2.873   8.121  17.303  0.00  0.00    +0.000 HD
ENDBRANCH   5  15
BRANCH   1  19
ATOM     18  N   UNL     1       0.487   8.685  21.602  0.00  0.00    +0.000 NA
ATOM     19  C   UNL     1       1.118   7.906  21.021  0.00  0.00    +0.000 C 
ENDBRANCH   1  19
TORSDOF 4
ENDMDL
MODEL 9
REMARK VINA RESULT:      -5.9      0.926      2.151
REMARK  Name = 
REMARK  4 active torsions:
REMARK  status: ('A' for Active; 'I' for Inactive)
REMARK    1  A    between atoms: C_2  and  C_3
REMARK    2  A    between atoms: N_6  and  C_7
REMARK    3  A    between atoms: C_10  and  N_11
REMARK    4  A    between atoms: C_16  and  N_17
REMARK                            x       y       z     vdW  Elec       q    Type
REMARK                         _______ _______ _______ _____ _____    ______ ____
ROOT
ATOM      1  C   UNL     1       3.259   3.146  19.648  0.00  0.00    +0.000 A 
ATOM      2  C   UNL     1       3.191   1.994  18.855  0.00  0.00    +0.000 A 
ATOM      3  N   UNL     1       3.750   2.164  17.657  0.00  0.00    +0.000 NA
ATOM      4  N   UNL     1       4.304   3.407  17.713  0.00  0.00    +0.000 N 
ATOM      5  C   UNL     1       3.934   4.080  18.889  0.00  0.00    +0.000 A 
ENDROOT
BRANCH   4   6
ATOM      6  C   UNL     1       5.122   3.869  16.644  0.00  0.00    +0.000 A 
ATOM      7  C   UNL     1       6.424   4.317  16.918  0.00  0.00    +0.000 A 
ATOM      8  C   UNL     1       7.260   4.721  15.873  0.00  0.00    +0.000 A 
ATOM      9  C   UNL     1       6.776   4.716  14.557  0.00  0.00    +0.000 A 
ATOM     10  C   UNL     1       5.462   4.317  14.284  0.00  0.00    +0.000 A 
ATOM     11  C   UNL     1       4.637   3.891  15.328  0.00  0.00    +0.000 A 
BRANCH   9  12
ATOM     12  N   UNL     1       7.650   5.133  13.455  0.00  0.00    +0.000 N 
ATOM     13  O   UNL     1       8.604   5.875  13.726  0.00  0.00    +0.000 OA
ATOM     14  O   UNL     1       7.388   4.710  12.319  0.00  0.00    +0.000 OA
ENDBRANCH   9  12
ENDBRANCH   4   6
BRANCH   5  15
ATOM     15  N   UNL     1       4.170   5.402  19.130  0.00  0.00    +0.000 N 
ATOM     16  H   UNL     1       4.499   5.703  20.048  0.00  0.00    +0.000 HD
ATOM     17  H   UNL     1       4.560   5.990  18.392  0.00  0.00    +0.000 HD
ENDBRANCH   5  15
BRANCH   1  19
ATOM     18  N   UNL     1       2.213   3.518  21.980  0.00  0.00    +0.000 NA
ATOM     19  C   UNL     1       2.683   3.339  20.936  0.00  0.00    +0.000 C 
ENDBRANCH   1  19
TORSDOF 4
ENDMDL
