MODEL 1
REMARK VINA RESULT:      -8.2      0.000      0.000
REMARK  Name = 
REMARK  5 active torsions:
REMARK  status: ('A' for Active; 'I' for Inactive)
REMARK    1  A    between atoms: O_1  and  C_2
REMARK    2  A    between atoms: N_10  and  C_11
REMARK    3  A    between atoms: C_14  and  O_15
REMARK    4  A    between atoms: O_15  and  C_16
REMARK    5  A    between atoms: C_16  and  C_17
REMARK                            x       y       z     vdW  Elec       q    Type
REMARK                         _______ _______ _______ _____ _____    ______ ____
ROOT
ATOM      1  C   UNL     1      -0.332  10.293  20.429  0.00  0.00    +0.000 A 
ATOM      2  C   UNL     1      -0.114  10.386  19.049  0.00  0.00    +0.000 A 
ATOM      3  C   UNL     1       0.791   9.558  18.398  0.00  0.00    +0.000 A 
ATOM      4  C   UNL     1       1.555   8.656  19.130  0.00  0.00    +0.000 A 
ATOM      5  C   UNL     1       1.376   8.571  20.512  0.00  0.00    +0.000 A 
ATOM      6  C   UNL     1       0.449   9.396  21.164  0.00  0.00    +0.000 A 
ENDROOT
BRANCH   1  15
ATOM      7  C   UNL     1      -3.716  12.860  24.178  0.00  0.00    +0.000 A 
ATOM      8  C   UNL     1      -3.279  14.040  24.760  0.00  0.00    +0.000 A 
ATOM      9  C   UNL     1      -2.086  14.616  24.319  0.00  0.00    +0.000 A 
ATOM     10  C   UNL     1      -1.330  14.049  23.301  0.00  0.00    +0.000 A 
ATOM     11  N   UNL     1      -0.199  14.662  22.946  0.00  0.00    +0.000 NA
ATOM     12  C   UNL     1       0.511  14.089  21.972  0.00  0.00    +0.000 A 
ATOM     13  N   UNL     1       0.189  12.967  21.331  0.00  0.00    +0.000 NA
ATOM     14  C   UNL     1      -0.950  12.347  21.700  0.00  0.00    +0.000 A 
ATOM     15  N   UNL     1      -1.285  11.130  21.046  0.00  0.00    +0.000 N 
ATOM     16  C   UNL     1      -1.781  12.860  22.707  0.00  0.00    +0.000 A 
ATOM     17  C   UNL     1      -2.977  12.258  23.167  0.00  0.00    +0.000 A 
ATOM     18  H   UNL     1      -2.136  11.248  20.508  0.00  0.00    +0.000 HD
BRANCH   7  19
ATOM     19  O   UNL     1      -4.870  12.257  24.573  0.00  0.00    +0.000 OA
ATOM     20  H   UNL     1      -5.119  11.590  23.911  0.00  0.00    +0.000 HD
ENDBRANCH   7  19
ENDBRANCH   1  15
BRANCH   4  21
ATOM     21  O   UNL     1       2.495   7.826  18.585  0.00  0.00    +0.000 OA
BRANCH  21  22
ATOM     22  C   UNL     1       3.020   6.851  19.489  0.00  0.00    +0.000 C 
BRANCH  22  23
ATOM     23  C   UNL     1       2.313   5.547  19.251  0.00  0.00    +0.000 A 
ATOM     24  C   UNL     1       2.226   5.002  17.962  0.00  0.00    +0.000 A 
ATOM     25  C   UNL     1       1.549   3.802  17.759  0.00  0.00    +0.000 A 
ATOM     26  C   UNL     1       0.960   3.151  18.838  0.00  0.00    +0.000 A 
ATOM     27  F   UNL     1       0.306   2.001  18.640  0.00  0.00    +0.000 F 
ATOM     28  C   UNL     1       1.038   3.679  20.122  0.00  0.00    +0.000 A 
ATOM     29  C   UNL     1       1.712   4.880  20.330  0.00  0.00    +0.000 A 
ENDBRANCH  22  23
ENDBRANCH  21  22
ENDBRANCH   4  21
TORSDOF 5
ENDMDL
MODEL 2
REMARK VINA RESULT:      -8.1      0.906      1.383
REMARK  Name = 
REMARK  5 active torsions:
REMARK  status: ('A' for Active; 'I' for Inactive)
REMARK    1  A    between atoms: O_1  and  C_2
REMARK    2  A    between atoms: N_10  and  C_11
REMARK    3  A    between atoms: C_14  and  O_15
REMARK    4  A    between atoms: O_15  and  C_16
REMARK    5  A    between atoms: C_16  and  C_17
REMARK                            x       y       z     vdW  Elec       q    Type
REMARK                         _______ _______ _______ _____ _____    ______ ____
ROOT
ATOM      1  C   UNL     1       0.396   9.858  19.816  0.00  0.00    +0.000 A 
ATOM      2  C   UNL     1       0.993   8.892  20.636  0.00  0.00    +0.000 A 
ATOM      3  C   UNL     1       1.923   7.989  20.136  0.00  0.00    +0.000 A 
ATOM      4  C   UNL     1       2.228   7.988  18.780  0.00  0.00    +0.000 A 
ATOM      5  C   UNL     1       1.619   8.922  17.940  0.00  0.00    +0.000 A 
ATOM      6  C   UNL     1       0.694   9.844  18.450  0.00  0.00    +0.000 A 
ENDROOT
BRANCH   1  15
ATOM      7  C   UNL     1      -2.929  12.779  23.353  0.00  0.00    +0.000 A 
ATOM      8  C   UNL     1      -2.433  13.947  23.910  0.00  0.00    +0.000 A 
ATOM      9  C   UNL     1      -1.189  14.425  23.492  0.00  0.00    +0.000 A 
ATOM     10  C   UNL     1      -0.440  13.773  22.522  0.00  0.00    +0.000 A 
ATOM     11  N   UNL     1       0.741  14.296  22.188  0.00  0.00    +0.000 NA
ATOM     12  C   UNL     1       1.443  13.642  21.260  0.00  0.00    +0.000 A 
ATOM     13  N   UNL     1       1.067  12.522  20.646  0.00  0.00    +0.000 NA
ATOM     14  C   UNL     1      -0.124  11.993  20.995  0.00  0.00    +0.000 A 
ATOM     15  N   UNL     1      -0.518  10.779  20.370  0.00  0.00    +0.000 N 
ATOM     16  C   UNL     1      -0.951  12.596  21.953  0.00  0.00    +0.000 A 
ATOM     17  C   UNL     1      -2.200  12.092  22.390  0.00  0.00    +0.000 A 
ATOM     18  H   UNL     1      -1.340  10.933  19.798  0.00  0.00    +0.000 HD
BRANCH   7  19
ATOM     19  O   UNL     1      -4.135  12.269  23.726  0.00  0.00    +0.000 OA
ATOM     20  H   UNL     1      -4.791  12.986  23.734  0.00  0.00    +0.000 HD
ENDBRANCH   7  19
ENDBRANCH   1  15
BRANCH   4  21
ATOM     21  O   UNL     1       3.102   7.117  18.190  0.00  0.00    +0.000 OA
BRANCH  21  22
ATOM     22  C   UNL     1       3.603   6.100  19.060  0.00  0.00    +0.000 C 
BRANCH  22  23
ATOM     23  C   UNL     1       2.735   4.881  18.922  0.00  0.00    +0.000 A 
ATOM     24  C   UNL     1       2.770   4.103  17.756  0.00  0.00    +0.000 A 
ATOM     25  C   UNL     1       1.944   2.988  17.640  0.00  0.00    +0.000 A 
ATOM     26  C   UNL     1       1.085   2.654  18.682  0.00  0.00    +0.000 A 
ATOM     27  F   UNL     1       0.288   1.585  18.566  0.00  0.00    +0.000 F 
ATOM     28  C   UNL     1       1.039   3.416  19.844  0.00  0.00    +0.000 A 
ATOM     29  C   UNL     1       1.862   4.533  19.964  0.00  0.00    +0.000 A 
ENDBRANCH  22  23
ENDBRANCH  21  22
ENDBRANCH   4  21
TORSDOF 5
ENDMDL
MODEL 3
REMARK VINA RESULT:      -8.0      8.790     10.851
REMARK  Name = 
REMARK  5 active torsions:
REMARK  status: ('A' for Active; 'I' for Inactive)
REMARK    1  A    between atoms: O_1  and  C_2
REMARK    2  A    between atoms: N_10  and  C_11
REMARK    3  A    between atoms: C_14  and  O_15
REMARK    4  A    between atoms: O_15  and  C_16
REMARK    5  A    between atoms: C_16  and  C_17
REMARK                            x       y       z     vdW  Elec       q    Type
REMARK                         _______ _______ _______ _____ _____    ______ ____
ROOT
ATOM      1  C   UNL     1       6.047   5.530  18.842  0.00  0.00    +0.000 A 
ATOM      2  C   UNL     1       7.345   5.622  19.358  0.00  0.00    +0.000 A 
ATOM      3  C   UNL     1       8.213   6.633  18.968  0.00  0.00    +0.000 A 
ATOM      4  C   UNL     1       7.821   7.545  17.994  0.00  0.00    +0.000 A 
ATOM      5  C   UNL     1       6.542   7.451  17.443  0.00  0.00    +0.000 A 
ATOM      6  C   UNL     1       5.661   6.439  17.852  0.00  0.00    +0.000 A 
ENDROOT
BRANCH   1  15
ATOM      7  C   UNL     1       1.658   2.638  20.956  0.00  0.00    +0.000 A 
ATOM      8  C   UNL     1       0.710   2.141  20.075  0.00  0.00    +0.000 A 
ATOM      9  C   UNL     1       0.929   2.262  18.701  0.00  0.00    +0.000 A 
ATOM     10  C   UNL     1       2.076   2.854  18.190  0.00  0.00    +0.000 A 
ATOM     11  N   UNL     1       2.201   2.934  16.864  0.00  0.00    +0.000 NA
ATOM     12  C   UNL     1       3.309   3.517  16.402  0.00  0.00    +0.000 A 
ATOM     13  N   UNL     1       4.293   4.019  17.146  0.00  0.00    +0.000 NA
ATOM     14  C   UNL     1       4.157   3.943  18.486  0.00  0.00    +0.000 A 
ATOM     15  N   UNL     1       5.185   4.507  19.290  0.00  0.00    +0.000 N 
ATOM     16  C   UNL     1       3.038   3.346  19.086  0.00  0.00    +0.000 A 
ATOM     17  C   UNL     1       2.811   3.249  20.480  0.00  0.00    +0.000 A 
ATOM     18  H   UNL     1       5.653   3.779  19.816  0.00  0.00    +0.000 HD
BRANCH   7  19
ATOM     19  O   UNL     1       1.493   2.547  22.304  0.00  0.00    +0.000 OA
ATOM     20  H   UNL     1       2.046   1.822  22.641  0.00  0.00    +0.000 HD
ENDBRANCH   7  19
ENDBRANCH   1  15
BRANCH   4  21
ATOM     21  O   UNL     1       8.616   8.552  17.520  0.00  0.00    +0.000 OA
BRANCH  21  22
ATOM     22  C   UNL     1       8.149   9.868  17.824  0.00  0.00    +0.000 C 
BRANCH  22  23
ATOM     23  C   UNL     1       9.274  10.640  18.455  0.00  0.00    +0.000 A 
ATOM     24  C   UNL     1       9.469  10.620  19.843  0.00  0.00    +0.000 A 
ATOM     25  C   UNL     1      10.506  11.357  20.411  0.00  0.00    +0.000 A 
ATOM     26  C   UNL     1      11.341  12.112  19.594  0.00  0.00    +0.000 A 
ATOM     27  F   UNL     1      12.333  12.825  20.142  0.00  0.00    +0.000 F 
ATOM     28  C   UNL     1      11.160  12.143  18.216  0.00  0.00    +0.000 A 
ATOM     29  C   UNL     1      10.124  11.409  17.645  0.00  0.00    +0.000 A 
ENDBRANCH  22  23
ENDBRANCH  21  22
ENDBRANCH   4  21
TORSDOF 5
ENDMDL
MODEL 4
REMARK VINA RESULT:      -8.0      1.117      1.724
REMARK  Name = 
REMARK  5 active torsions:
REMARK  status: ('A' for Active; 'I' for Inactive)
REMARK    1  A    between atoms: O_1  and  C_2
REMARK    2  A    between atoms: N_10  and  C_11
REMARK    3  A    between atoms: C_14  and  O_15
REMARK    4  A    between atoms: O_15  and  C_16
REMARK    5  A    between atoms: C_16  and  C_17
REMARK                            x       y       z     vdW  Elec       q    Type
REMARK                         _______ _______ _______ _____ _____    ______ ____
ROOT
ATOM      1  C   UNL     1      -0.143   9.941  20.819  0.00  0.00    +0.000 A 
ATOM      2  C   UNL     1       0.415   8.969  21.658  0.00  0.00    +0.000 A 
ATOM      3  C   UNL     1       1.413   8.111  21.214  0.00  0.00    +0.000 A 
ATOM      4  C   UNL     1       1.831   8.163  19.889  0.00  0.00    +0.000 A 
ATOM      5  C   UNL     1       1.265   9.103  19.028  0.00  0.00    +0.000 A 
ATOM      6  C   UNL     1       0.269   9.980  19.484  0.00  0.00    +0.000 A 
ENDROOT
BRANCH   1  15
ATOM      7  C   UNL     1      -3.688  12.802  24.187  0.00  0.00    +0.000 A 
ATOM      8  C   UNL     1      -3.293  14.045  24.655  0.00  0.00    +0.000 A 
ATOM      9  C   UNL     1      -2.099  14.600  24.189  0.00  0.00    +0.000 A 
ATOM     10  C   UNL     1      -1.302  13.949  23.257  0.00  0.00    +0.000 A 
ATOM     11  N   UNL     1      -0.174  14.549  22.872  0.00  0.00    +0.000 NA
ATOM     12  C   UNL     1       0.576  13.894  21.983  0.00  0.00    +0.000 A 
ATOM     13  N   UNL     1       0.297  12.706  21.452  0.00  0.00    +0.000 NA
ATOM     14  C   UNL     1      -0.840  12.100  21.853  0.00  0.00    +0.000 A 
ATOM     15  N   UNL     1      -1.131  10.815  21.319  0.00  0.00    +0.000 N 
ATOM     16  C   UNL     1      -1.711  12.695  22.778  0.00  0.00    +0.000 A 
ATOM     17  C   UNL     1      -2.908  12.116  23.265  0.00  0.00    +0.000 A 
ATOM     18  H   UNL     1      -1.967  10.857  20.749  0.00  0.00    +0.000 HD
BRANCH   7  19
ATOM     19  O   UNL     1      -4.842  12.216  24.610  0.00  0.00    +0.000 OA
ATOM     20  H   UNL     1      -5.043  11.462  24.031  0.00  0.00    +0.000 HD
ENDBRANCH   7  19
ENDBRANCH   1  15
BRANCH   4  21
ATOM     21  O   UNL     1       2.780   7.338  19.351  0.00  0.00    +0.000 OA
BRANCH  21  22
ATOM     22  C   UNL     1       2.506   6.912  18.014  0.00  0.00    +0.000 C 
BRANCH  22  23
ATOM     23  C   UNL     1       2.749   5.432  17.924  0.00  0.00    +0.000 A 
ATOM     24  C   UNL     1       1.692   4.521  18.058  0.00  0.00    +0.000 A 
ATOM     25  C   UNL     1       1.941   3.152  17.991  0.00  0.00    +0.000 A 
ATOM     26  C   UNL     1       3.240   2.697  17.793  0.00  0.00    +0.000 A 
ATOM     27  F   UNL     1       3.479   1.381  17.734  0.00  0.00    +0.000 F 
ATOM     28  C   UNL     1       4.300   3.588  17.658  0.00  0.00    +0.000 A 
ATOM     29  C   UNL     1       4.055   4.957  17.727  0.00  0.00    +0.000 A 
ENDBRANCH  22  23
ENDBRANCH  21  22
ENDBRANCH   4  21
TORSDOF 5
ENDMDL
MODEL 5
REMARK VINA RESULT:      -7.9      4.384     10.041
REMARK  Name = 
REMARK  5 active torsions:
REMARK  status: ('A' for Active; 'I' for Inactive)
REMARK    1  A    between atoms: O_1  and  C_2
REMARK    2  A    between atoms: N_10  and  C_11
REMARK    3  A    between atoms: C_14  and  O_15
REMARK    4  A    between atoms: O_15  and  C_16
REMARK    5  A    between atoms: C_16  and  C_17
REMARK                            x       y       z     vdW  Elec       q    Type
REMARK                         _______ _______ _______ _____ _____    ______ ____
ROOT
ATOM      1  C   UNL     1       2.076   8.220  18.985  0.00  0.00    +0.000 A 
ATOM      2  C   UNL     1       1.273   9.310  18.628  0.00  0.00    +0.000 A 
ATOM      3  C   UNL     1       0.421   9.915  19.543  0.00  0.00    +0.000 A 
ATOM      4  C   UNL     1       0.302   9.396  20.827  0.00  0.00    +0.000 A 
ATOM      5  C   UNL     1       1.069   8.289  21.192  0.00  0.00    +0.000 A 
ATOM      6  C   UNL     1       1.942   7.690  20.272  0.00  0.00    +0.000 A 
ENDROOT
BRANCH   1  15
ATOM      7  C   UNL     1       6.480   5.724  16.441  0.00  0.00    +0.000 A 
ATOM      8  C   UNL     1       6.428   4.355  16.226  0.00  0.00    +0.000 A 
ATOM      9  C   UNL     1       5.255   3.663  16.531  0.00  0.00    +0.000 A 
ATOM     10  C   UNL     1       4.130   4.308  17.028  0.00  0.00    +0.000 A 
ATOM     11  N   UNL     1       3.053   3.567  17.298  0.00  0.00    +0.000 NA
ATOM     12  C   UNL     1       1.991   4.213  17.785  0.00  0.00    +0.000 A 
ATOM     13  N   UNL     1       1.916   5.521  18.020  0.00  0.00    +0.000 NA
ATOM     14  C   UNL     1       3.011   6.263  17.754  0.00  0.00    +0.000 A 
ATOM     15  N   UNL     1       2.953   7.655  18.035  0.00  0.00    +0.000 N 
ATOM     16  C   UNL     1       4.183   5.695  17.234  0.00  0.00    +0.000 A 
ATOM     17  C   UNL     1       5.379   6.399  16.951  0.00  0.00    +0.000 A 
ATOM     18  H   UNL     1       3.021   8.186  17.174  0.00  0.00    +0.000 HD
BRANCH   7  19
ATOM     19  O   UNL     1       7.600   6.446  16.163  0.00  0.00    +0.000 OA
ATOM     20  H   UNL     1       7.609   7.241  16.721  0.00  0.00    +0.000 HD
ENDBRANCH   7  19
ENDBRANCH   1  15
BRANCH   4  21
ATOM     21  O   UNL     1      -0.535   9.899  21.785  0.00  0.00    +0.000 OA
BRANCH  21  22
ATOM     22  C   UNL     1      -0.388  11.301  22.023  0.00  0.00    +0.000 C 
BRANCH  22  23
ATOM     23  C   UNL     1      -1.751  11.932  22.014  0.00  0.00    +0.000 A 
ATOM     24  C   UNL     1      -2.289  12.466  20.834  0.00  0.00    +0.000 A 
ATOM     25  C   UNL     1      -3.547  13.064  20.851  0.00  0.00    +0.000 A 
ATOM     26  C   UNL     1      -4.262  13.131  22.042  0.00  0.00    +0.000 A 
ATOM     27  F   UNL     1      -5.468  13.711  22.057  0.00  0.00    +0.000 F 
ATOM     28  C   UNL     1      -3.743  12.607  23.220  0.00  0.00    +0.000 A 
ATOM     29  C   UNL     1      -2.485  12.010  23.209  0.00  0.00    +0.000 A 
ENDBRANCH  22  23
ENDBRANCH  21  22
ENDBRANCH   4  21
TORSDOF 5
ENDMDL
MODEL 6
REMARK VINA RESULT:      -7.9      1.466      2.172
REMARK  Name = 
REMARK  5 active torsions:
REMARK  status: ('A' for Active; 'I' for Inactive)
REMARK    1  A    between atoms: O_1  and  C_2
REMARK    2  A    between atoms: N_10  and  C_11
REMARK    3  A    between atoms: C_14  and  O_15
REMARK    4  A    between atoms: O_15  and  C_16
REMARK    5  A    between atoms: C_16  and  C_17
REMARK                            x       y       z     vdW  Elec       q    Type
REMARK                         _______ _______ _______ _____ _____    ______ ____
ROOT
ATOM      1  C   UNL     1       0.803   9.358  19.743  0.00  0.00    +0.000 A 
ATOM      2  C   UNL     1       1.301   8.365  20.595  0.00  0.00    +0.000 A 
ATOM      3  C   UNL     1       2.221   7.423  20.154  0.00  0.00    +0.000 A 
ATOM      4  C   UNL     1       2.617   7.413  18.821  0.00  0.00    +0.000 A 
ATOM      5  C   UNL     1       2.108   8.375  17.948  0.00  0.00    +0.000 A 
ATOM      6  C   UNL     1       1.191   9.336  18.400  0.00  0.00    +0.000 A 
ENDROOT
BRANCH   1  15
ATOM      7  C   UNL     1      -2.434  12.570  23.105  0.00  0.00    +0.000 A 
ATOM      8  C   UNL     1      -1.937  13.795  23.523  0.00  0.00    +0.000 A 
ATOM      9  C   UNL     1      -0.720  14.247  23.009  0.00  0.00    +0.000 A 
ATOM     10  C   UNL     1       0.002  13.512  22.079  0.00  0.00    +0.000 A 
ATOM     11  N   UNL     1       1.160  14.016  21.646  0.00  0.00    +0.000 NA
ATOM     12  C   UNL     1       1.836  13.282  20.760  0.00  0.00    +0.000 A 
ATOM     13  N   UNL     1       1.457  12.101  20.275  0.00  0.00    +0.000 NA
ATOM     14  C   UNL     1       0.291  11.592  20.724  0.00  0.00    +0.000 A 
ATOM     15  N   UNL     1      -0.106  10.317  20.239  0.00  0.00    +0.000 N 
ATOM     16  C   UNL     1      -0.509  12.277  21.650  0.00  0.00    +0.000 A 
ATOM     17  C   UNL     1      -1.731  11.801  22.186  0.00  0.00    +0.000 A 
ATOM     18  H   UNL     1      -0.952  10.401  19.689  0.00  0.00    +0.000 HD
BRANCH   7  19
ATOM     19  O   UNL     1      -3.614  12.083  23.576  0.00  0.00    +0.000 OA
ATOM     20  H   UNL     1      -4.217  11.941  22.826  0.00  0.00    +0.000 HD
ENDBRANCH   7  19
ENDBRANCH   1  15
BRANCH   4  21
ATOM     21  O   UNL     1       3.490   6.506  18.286  0.00  0.00    +0.000 OA
BRANCH  21  22
ATOM     22  C   UNL     1       2.871   5.337  17.742  0.00  0.00    +0.000 C 
BRANCH  22  23
ATOM     23  C   UNL     1       2.533   4.406  18.872  0.00  0.00    +0.000 A 
ATOM     24  C   UNL     1       1.202   4.062  19.147  0.00  0.00    +0.000 A 
ATOM     25  C   UNL     1       0.909   3.213  20.211  0.00  0.00    +0.000 A 
ATOM     26  C   UNL     1       1.941   2.710  20.996  0.00  0.00    +0.000 A 
ATOM     27  F   UNL     1       1.656   1.898  22.021  0.00  0.00    +0.000 F 
ATOM     28  C   UNL     1       3.266   3.041  20.737  0.00  0.00    +0.000 A 
ATOM     29  C   UNL     1       3.564   3.892  19.675  0.00  0.00    +0.000 A 
ENDBRANCH  22  23
ENDBRANCH  21  22
ENDBRANCH   4  21
TORSDOF 5
ENDMDL
MODEL 7
REMARK VINA RESULT:      -7.9      3.418      4.565
REMARK  Name = 
REMARK  5 active torsions:
REMARK  status: ('A' for Active; 'I' for Inactive)
REMARK    1  A    between atoms: O_1  and  C_2
REMARK    2  A    between atoms: N_10  and  C_11
REMARK    3  A    between atoms: C_14  and  O_15
REMARK    4  A    between atoms: O_15  and  C_16
REMARK    5  A    between atoms: C_16  and  C_17
REMARK                            x       y       z     vdW  Elec       q    Type
REMARK                         _______ _______ _______ _____ _____    ______ ____
ROOT
ATOM      1  C   UNL     1       1.749   7.993  19.499  0.00  0.00    +0.000 A 
ATOM      2  C   UNL     1       2.473   7.755  18.324  0.00  0.00    +0.000 A 
ATOM      3  C   UNL     1       3.023   6.509  18.049  0.00  0.00    +0.000 A 
ATOM      4  C   UNL     1       2.916   5.484  18.982  0.00  0.00    +0.000 A 
ATOM      5  C   UNL     1       2.226   5.711  20.174  0.00  0.00    +0.000 A 
ATOM      6  C   UNL     1       1.657   6.965  20.441  0.00  0.00    +0.000 A 
ENDROOT
BRANCH   1  15
ATOM      7  C   UNL     1      -1.864  12.315  20.098  0.00  0.00    +0.000 A 
ATOM      8  C   UNL     1      -2.331  12.613  21.369  0.00  0.00    +0.000 A 
ATOM      9  C   UNL     1      -1.808  11.923  22.465  0.00  0.00    +0.000 A 
ATOM     10  C   UNL     1      -0.821  10.956  22.321  0.00  0.00    +0.000 A 
ATOM     11  N   UNL     1      -0.383  10.341  23.421  0.00  0.00    +0.000 NA
ATOM     12  C   UNL     1       0.558   9.411  23.250  0.00  0.00    +0.000 A 
ATOM     13  N   UNL     1       1.093   9.048  22.086  0.00  0.00    +0.000 NA
ATOM     14  C   UNL     1       0.639   9.667  20.976  0.00  0.00    +0.000 A 
ATOM     15  N   UNL     1       1.178   9.264  19.724  0.00  0.00    +0.000 N 
ATOM     16  C   UNL     1      -0.344  10.666  21.033  0.00  0.00    +0.000 A 
ATOM     17  C   UNL     1      -0.887  11.345  19.916  0.00  0.00    +0.000 A 
ATOM     18  H   UNL     1       1.700  10.026  19.308  0.00  0.00    +0.000 HD
BRANCH   7  19
ATOM     19  O   UNL     1      -2.341  12.957  18.997  0.00  0.00    +0.000 OA
ATOM     20  H   UNL     1      -3.278  12.725  18.879  0.00  0.00    +0.000 HD
ENDBRANCH   7  19
ENDBRANCH   1  15
BRANCH   4  21
ATOM     21  O   UNL     1       3.454   4.237  18.818  0.00  0.00    +0.000 OA
BRANCH  21  22
ATOM     22  C   UNL     1       4.868   4.170  19.016  0.00  0.00    +0.000 C 
BRANCH  22  23
ATOM     23  C   UNL     1       5.548   4.428  17.701  0.00  0.00    +0.000 A 
ATOM     24  C   UNL     1       5.131   3.770  16.535  0.00  0.00    +0.000 A 
ATOM     25  C   UNL     1       5.787   4.009  15.330  0.00  0.00    +0.000 A 
ATOM     26  C   UNL     1       6.855   4.899  15.291  0.00  0.00    +0.000 A 
ATOM     27  F   UNL     1       7.487   5.123  14.133  0.00  0.00    +0.000 F 
ATOM     28  C   UNL     1       7.280   5.560  16.438  0.00  0.00    +0.000 A 
ATOM     29  C   UNL     1       6.629   5.322  17.646  0.00  0.00    +0.000 A 
ENDBRANCH  22  23
ENDBRANCH  21  22
ENDBRANCH   4  21
TORSDOF 5
ENDMDL
MODEL 8
REMARK VINA RESULT:      -7.9      4.386     10.110
REMARK  Name = 
REMARK  5 active torsions:
REMARK  status: ('A' for Active; 'I' for Inactive)
REMARK    1  A    between atoms: O_1  and  C_2
REMARK    2  A    between atoms: N_10  and  C_11
REMARK    3  A    between atoms: C_14  and  O_15
REMARK    4  A    between atoms: O_15  and  C_16
REMARK    5  A    between atoms: C_16  and  C_17
REMARK                            x       y       z     vdW  Elec       q    Type
REMARK                         _______ _______ _______ _____ _____    ______ ____
ROOT
ATOM      1  C   UNL     1       2.064   8.211  18.994  0.00  0.00    +0.000 A 
ATOM      2  C   UNL     1       1.985   7.654  20.277  0.00  0.00    +0.000 A 
ATOM      3  C   UNL     1       1.101   8.144  21.229  0.00  0.00    +0.000 A 
ATOM      4  C   UNL     1       0.315   9.254  20.938  0.00  0.00    +0.000 A 
ATOM      5  C   UNL     1       0.402   9.844  19.676  0.00  0.00    +0.000 A 
ATOM      6  C   UNL     1       1.284   9.336  18.711  0.00  0.00    +0.000 A 
ENDROOT
BRANCH   1  15
ATOM      7  C   UNL     1       6.503   5.766  16.462  0.00  0.00    +0.000 A 
ATOM      8  C   UNL     1       6.460   4.400  16.231  0.00  0.00    +0.000 A 
ATOM      9  C   UNL     1       5.287   3.698  16.516  0.00  0.00    +0.000 A 
ATOM     10  C   UNL     1       4.154   4.332  17.011  0.00  0.00    +0.000 A 
ATOM     11  N   UNL     1       3.078   3.583  17.262  0.00  0.00    +0.000 NA
ATOM     12  C   UNL     1       2.009   4.219  17.746  0.00  0.00    +0.000 A 
ATOM     13  N   UNL     1       1.926   5.523  17.996  0.00  0.00    +0.000 NA
ATOM     14  C   UNL     1       3.020   6.273  17.749  0.00  0.00    +0.000 A 
ATOM     15  N   UNL     1       2.953   7.662  18.046  0.00  0.00    +0.000 N 
ATOM     16  C   UNL     1       4.199   5.717  17.233  0.00  0.00    +0.000 A 
ATOM     17  C   UNL     1       5.394   6.430  16.969  0.00  0.00    +0.000 A 
ATOM     18  H   UNL     1       3.026   8.203  17.192  0.00  0.00    +0.000 HD
BRANCH   7  19
ATOM     19  O   UNL     1       7.622   6.496  16.202  0.00  0.00    +0.000 OA
ATOM     20  H   UNL     1       7.703   6.618  15.241  0.00  0.00    +0.000 HD
ENDBRANCH   7  19
ENDBRANCH   1  15
BRANCH   4  21
ATOM     21  O   UNL     1      -0.558   9.830  21.820  0.00  0.00    +0.000 OA
BRANCH  21  22
ATOM     22  C   UNL     1      -0.354  11.229  22.027  0.00  0.00    +0.000 C 
BRANCH  22  23
ATOM     23  C   UNL     1      -1.693  11.911  22.030  0.00  0.00    +0.000 A 
ATOM     24  C   UNL     1      -2.449  12.007  23.207  0.00  0.00    +0.000 A 
ATOM     25  C   UNL     1      -3.696  12.626  23.185  0.00  0.00    +0.000 A 
ATOM     26  C   UNL     1      -4.185  13.146  21.992  0.00  0.00    +0.000 A 
ATOM     27  F   UNL     1      -5.386  13.737  21.971  0.00  0.00    +0.000 F 
ATOM     28  C   UNL     1      -3.448  13.060  20.816  0.00  0.00    +0.000 A 
ATOM     29  C   UNL     1      -2.202  12.439  20.833  0.00  0.00    +0.000 A 
ENDBRANCH  22  23
ENDBRANCH  21  22
ENDBRANCH   4  21
TORSDOF 5
ENDMDL
MODEL 9
REMARK VINA RESULT:      -7.9      3.395      4.660
REMARK  Name = 
REMARK  5 active torsions:
REMARK  status: ('A' for Active; 'I' for Inactive)
REMARK    1  A    between atoms: O_1  and  C_2
REMARK    2  A    between atoms: N_10  and  C_11
REMARK    3  A    between atoms: C_14  and  O_15
REMARK    4  A    between atoms: O_15  and  C_16
REMARK    5  A    between atoms: C_16  and  C_17
REMARK                            x       y       z     vdW  Elec       q    Type
REMARK                         _______ _______ _______ _____ _____    ______ ____
ROOT
ATOM      1  C   UNL     1       1.752   7.960  19.494  0.00  0.00    +0.000 A 
ATOM      2  C   UNL     1       1.633   6.966  20.473  0.00  0.00    +0.000 A 
ATOM      3  C   UNL     1       2.171   5.698  20.291  0.00  0.00    +0.000 A 
ATOM      4  C   UNL     1       2.787   5.374  19.088  0.00  0.00    +0.000 A 
ATOM      5  C   UNL     1       2.888   6.341  18.087  0.00  0.00    +0.000 A 
ATOM      6  C   UNL     1       2.359   7.625  18.280  0.00  0.00    +0.000 A 
ENDROOT
BRANCH   1  15
ATOM      7  C   UNL     1      -1.725  12.389  20.119  0.00  0.00    +0.000 A 
ATOM      8  C   UNL     1      -2.195  12.683  21.389  0.00  0.00    +0.000 A 
ATOM      9  C   UNL     1      -1.706  11.961  22.480  0.00  0.00    +0.000 A 
ATOM     10  C   UNL     1      -0.750  10.966  22.332  0.00  0.00    +0.000 A 
ATOM     11  N   UNL     1      -0.343  10.321  23.428  0.00  0.00    +0.000 NA
ATOM     12  C   UNL     1       0.569   9.363  23.253  0.00  0.00    +0.000 A 
ATOM     13  N   UNL     1       1.104   9.000  22.089  0.00  0.00    +0.000 NA
ATOM     14  C   UNL     1       0.682   9.648  20.984  0.00  0.00    +0.000 A 
ATOM     15  N   UNL     1       1.221   9.245  19.732  0.00  0.00    +0.000 N 
ATOM     16  C   UNL     1      -0.268  10.678  21.045  0.00  0.00    +0.000 A 
ATOM     17  C   UNL     1      -0.778  11.389  19.932  0.00  0.00    +0.000 A 
ATOM     18  H   UNL     1       1.771   9.996  19.332  0.00  0.00    +0.000 HD
BRANCH   7  19
ATOM     19  O   UNL     1      -2.169  13.061  19.022  0.00  0.00    +0.000 OA
ATOM     20  H   UNL     1      -1.844  12.612  18.224  0.00  0.00    +0.000 HD
ENDBRANCH   7  19
ENDBRANCH   1  15
BRANCH   4  21
ATOM     21  O   UNL     1       3.315   4.144  18.802  0.00  0.00    +0.000 OA
BRANCH  21  22
ATOM     22  C   UNL     1       4.711   4.019  19.083  0.00  0.00    +0.000 C 
BRANCH  22  23
ATOM     23  C   UNL     1       5.479   4.308  17.824  0.00  0.00    +0.000 A 
ATOM     24  C   UNL     1       6.604   5.145  17.845  0.00  0.00    +0.000 A 
ATOM     25  C   UNL     1       7.291   5.416  16.664  0.00  0.00    +0.000 A 
ATOM     26  C   UNL     1       6.855   4.854  15.469  0.00  0.00    +0.000 A 
ATOM     27  F   UNL     1       7.513   5.120  14.334  0.00  0.00    +0.000 F 
ATOM     28  C   UNL     1       5.741   4.022  15.431  0.00  0.00    +0.000 A 
ATOM     29  C   UNL     1       5.050   3.750  16.609  0.00  0.00    +0.000 A 
ENDBRANCH  22  23
ENDBRANCH  21  22
ENDBRANCH   4  21
TORSDOF 5
ENDMDL
