MODEL 1
REMARK VINA RESULT:      -8.4      0.000      0.000
REMARK  Name = 
REMARK  6 active torsions:
REMARK  status: ('A' for Active; 'I' for Inactive)
REMARK    1  A    between atoms: C_1  and  N_2
REMARK    2  A    between atoms: C_3  and  C_5
REMARK    3  A    between atoms: C_9  and  N_10
REMARK    4  A    between atoms: C_11  and  O_13
REMARK    5  A    between atoms: O_13  and  C_14
REMARK    6  A    between atoms: C_14  and  C_15
REMARK                            x       y       z     vdW  Elec       q    Type
REMARK                         _______ _______ _______ _____ _____    ______ ____
ROOT
ATOM      1  N   UNL     1       5.884   5.541  15.665  0.00  0.00    +0.000 N 
ATOM      2  C   UNL     1       6.362   5.219  16.917  0.00  0.00    +0.000 C 
ATOM      3  O   UNL     1       7.308   4.463  17.168  0.00  0.00    +0.000 OA
ATOM      4  H   UNL     1       5.047   6.124  15.651  0.00  0.00    +0.000 HD
ENDROOT
BRANCH   1   9
ATOM      5  C   UNL     1       6.306   3.613  12.476  0.00  0.00    +0.000 A 
ATOM      6  C   UNL     1       7.430   4.228  11.924  0.00  0.00    +0.000 A 
ATOM      7  C   UNL     1       8.049   5.253  12.621  0.00  0.00    +0.000 A 
ATOM      8  C   UNL     1       7.545   5.673  13.849  0.00  0.00    +0.000 A 
ATOM      9  C   UNL     1       6.411   5.085  14.426  0.00  0.00    +0.000 A 
ATOM     10  C   UNL     1       5.804   4.032  13.725  0.00  0.00    +0.000 A 
BRANCH   5  13
ATOM     11  C   UNL     1       5.872   0.181  10.911  0.00  0.00    +0.000 C 
ATOM     12  N   UNL     1       6.402   1.331  11.598  0.00  0.00    +0.000 N 
ATOM     13  C   UNL     1       5.649   2.476  11.765  0.00  0.00    +0.000 C 
ATOM     14  O   UNL     1       4.496   2.588  11.364  0.00  0.00    +0.000 OA
ATOM     15  H   UNL     1       7.376   1.309  11.869  0.00  0.00    +0.000 HD
ENDBRANCH   5  13
ENDBRANCH   1   9
BRANCH   2  16
ATOM     16  O   UNL     1       5.601   5.763  17.907  0.00  0.00    +0.000 OA
BRANCH  16  17
ATOM     17  C   UNL     1       4.284   6.137  17.466  0.00  0.00    +0.000 C 
BRANCH  17  18
ATOM     18  C   UNL     1       3.150   5.793  18.414  0.00  0.00    +0.000 A 
ATOM     19  C   UNL     1       2.838   6.756  19.400  0.00  0.00    +0.000 A 
ATOM     20  C   UNL     1       1.922   6.477  20.408  0.00  0.00    +0.000 A 
ATOM     21  C   UNL     1       1.365   5.212  20.498  0.00  0.00    +0.000 A 
ATOM     22  C   UNL     1       1.716   4.212  19.587  0.00  0.00    +0.000 A 
ATOM     23  C   UNL     1       1.311   2.902  19.851  0.00  0.00    +0.000 A 
ATOM     24  C   UNL     1       1.690   1.857  19.016  0.00  0.00    +0.000 A 
ATOM     25  C   UNL     1       2.298   2.145  17.804  0.00  0.00    +0.000 A 
ATOM     26  C   UNL     1       2.730   3.449  17.533  0.00  0.00    +0.000 A 
ATOM     27  C   UNL     1       2.541   4.501  18.470  0.00  0.00    +0.000 A 
ENDBRANCH  17  18
ENDBRANCH  16  17
ENDBRANCH   2  16
TORSDOF 5
ENDMDL
MODEL 2
REMARK VINA RESULT:      -8.4      5.351      8.507
REMARK  Name = 
REMARK  6 active torsions:
REMARK  status: ('A' for Active; 'I' for Inactive)
REMARK    1  A    between atoms: C_1  and  N_2
REMARK    2  A    between atoms: C_3  and  C_5
REMARK    3  A    between atoms: C_9  and  N_10
REMARK    4  A    between atoms: C_11  and  O_13
REMARK    5  A    between atoms: O_13  and  C_14
REMARK    6  A    between atoms: C_14  and  C_15
REMARK                            x       y       z     vdW  Elec       q    Type
REMARK                         _______ _______ _______ _____ _____    ______ ____
ROOT
ATOM      1  N   UNL     1       0.797   9.105  18.218  0.00  0.00    +0.000 N 
ATOM      2  C   UNL     1       2.072   9.516  17.898  0.00  0.00    +0.000 C 
ATOM      3  O   UNL     1       2.416  10.662  17.585  0.00  0.00    +0.000 OA
ATOM      4  H   UNL     1       0.686   8.103  18.379  0.00  0.00    +0.000 HD
ENDROOT
BRANCH   1   9
ATOM      5  C   UNL     1      -2.465  10.723  17.321  0.00  0.00    +0.000 A 
ATOM      6  C   UNL     1      -2.692  11.531  18.435  0.00  0.00    +0.000 A 
ATOM      7  C   UNL     1      -1.756  11.552  19.456  0.00  0.00    +0.000 A 
ATOM      8  C   UNL     1      -0.611  10.764  19.376  0.00  0.00    +0.000 A 
ATOM      9  C   UNL     1      -0.358   9.931  18.277  0.00  0.00    +0.000 A 
ATOM     10  C   UNL     1      -1.300   9.933  17.237  0.00  0.00    +0.000 A 
BRANCH   5  13
ATOM     11  C   UNL     1      -3.871  10.084  13.852  0.00  0.00    +0.000 C 
ATOM     12  N   UNL     1      -3.020  10.127  15.013  0.00  0.00    +0.000 N 
ATOM     13  C   UNL     1      -3.438  10.719  16.188  0.00  0.00    +0.000 C 
ATOM     14  O   UNL     1      -4.545  11.225  16.330  0.00  0.00    +0.000 OA
ATOM     15  H   UNL     1      -2.069   9.797  14.911  0.00  0.00    +0.000 HD
ENDBRANCH   5  13
ENDBRANCH   1   9
BRANCH   2  16
ATOM     16  O   UNL     1       2.950   8.474  17.864  0.00  0.00    +0.000 OA
BRANCH  16  17
ATOM     17  C   UNL     1       2.489   7.325  18.595  0.00  0.00    +0.000 C 
BRANCH  17  18
ATOM     18  C   UNL     1       3.098   5.997  18.184  0.00  0.00    +0.000 A 
ATOM     19  C   UNL     1       4.137   6.048  17.228  0.00  0.00    +0.000 A 
ATOM     20  C   UNL     1       4.657   4.885  16.672  0.00  0.00    +0.000 A 
ATOM     21  C   UNL     1       4.100   3.660  16.999  0.00  0.00    +0.000 A 
ATOM     22  C   UNL     1       3.016   3.582  17.878  0.00  0.00    +0.000 A 
ATOM     23  C   UNL     1       2.345   2.363  17.997  0.00  0.00    +0.000 A 
ATOM     24  C   UNL     1       1.220   2.246  18.804  0.00  0.00    +0.000 A 
ATOM     25  C   UNL     1       0.885   3.288  19.656  0.00  0.00    +0.000 A 
ATOM     26  C   UNL     1       1.532   4.523  19.534  0.00  0.00    +0.000 A 
ATOM     27  C   UNL     1       2.550   4.733  18.564  0.00  0.00    +0.000 A 
ENDBRANCH  17  18
ENDBRANCH  16  17
ENDBRANCH   2  16
TORSDOF 5
ENDMDL
MODEL 3
REMARK VINA RESULT:      -8.1      3.119      5.417
REMARK  Name = 
REMARK  6 active torsions:
REMARK  status: ('A' for Active; 'I' for Inactive)
REMARK    1  A    between atoms: C_1  and  N_2
REMARK    2  A    between atoms: C_3  and  C_5
REMARK    3  A    between atoms: C_9  and  N_10
REMARK    4  A    between atoms: C_11  and  O_13
REMARK    5  A    between atoms: O_13  and  C_14
REMARK    6  A    between atoms: C_14  and  C_15
REMARK                            x       y       z     vdW  Elec       q    Type
REMARK                         _______ _______ _______ _____ _____    ______ ____
ROOT
ATOM      1  N   UNL     1       3.926   6.020  18.312  0.00  0.00    +0.000 N 
ATOM      2  C   UNL     1       3.025   5.322  19.087  0.00  0.00    +0.000 C 
ATOM      3  O   UNL     1       3.143   4.153  19.474  0.00  0.00    +0.000 OA
ATOM      4  H   UNL     1       3.629   6.953  18.027  0.00  0.00    +0.000 HD
ENDROOT
BRANCH   1   9
ATOM      5  C   UNL     1       6.668   4.926  15.998  0.00  0.00    +0.000 A 
ATOM      6  C   UNL     1       7.690   4.626  16.898  0.00  0.00    +0.000 A 
ATOM      7  C   UNL     1       7.455   4.764  18.257  0.00  0.00    +0.000 A 
ATOM      8  C   UNL     1       6.220   5.211  18.715  0.00  0.00    +0.000 A 
ATOM      9  C   UNL     1       5.175   5.532  17.838  0.00  0.00    +0.000 A 
ATOM     10  C   UNL     1       5.413   5.369  16.465  0.00  0.00    +0.000 A 
BRANCH   5  13
ATOM     11  C   UNL     1       6.332   3.440  12.521  0.00  0.00    +0.000 C 
ATOM     12  N   UNL     1       6.185   3.717  13.927  0.00  0.00    +0.000 N 
ATOM     13  C   UNL     1       6.883   4.742  14.532  0.00  0.00    +0.000 C 
ATOM     14  O   UNL     1       7.648   5.485  13.928  0.00  0.00    +0.000 OA
ATOM     15  H   UNL     1       5.629   3.075  14.477  0.00  0.00    +0.000 HD
ENDBRANCH   5  13
ENDBRANCH   1   9
BRANCH   2  16
ATOM     16  O   UNL     1       1.893   6.040  19.322  0.00  0.00    +0.000 OA
BRANCH  16  17
ATOM     17  C   UNL     1       2.107   7.160  20.200  0.00  0.00    +0.000 C 
BRANCH  17  18
ATOM     18  C   UNL     1       1.419   8.451  19.798  0.00  0.00    +0.000 A 
ATOM     19  C   UNL     1       1.790   9.001  18.550  0.00  0.00    +0.000 A 
ATOM     20  C   UNL     1       1.335  10.255  18.156  0.00  0.00    +0.000 A 
ATOM     21  C   UNL     1       0.572  11.012  19.029  0.00  0.00    +0.000 A 
ATOM     22  C   UNL     1       0.257  10.531  20.303  0.00  0.00    +0.000 A 
ATOM     23  C   UNL     1      -0.312  11.414  21.224  0.00  0.00    +0.000 A 
ATOM     24  C   UNL     1      -0.581  11.009  22.526  0.00  0.00    +0.000 A 
ATOM     25  C   UNL     1      -0.479   9.665  22.852  0.00  0.00    +0.000 A 
ATOM     26  C   UNL     1       0.110   8.771  21.950  0.00  0.00    +0.000 A 
ATOM     27  C   UNL     1       0.590   9.206  20.685  0.00  0.00    +0.000 A 
ENDBRANCH  17  18
ENDBRANCH  16  17
ENDBRANCH   2  16
TORSDOF 5
ENDMDL
MODEL 4
REMARK VINA RESULT:      -8.0      6.000      8.823
REMARK  Name = 
REMARK  6 active torsions:
REMARK  status: ('A' for Active; 'I' for Inactive)
REMARK    1  A    between atoms: C_1  and  N_2
REMARK    2  A    between atoms: C_3  and  C_5
REMARK    3  A    between atoms: C_9  and  N_10
REMARK    4  A    between atoms: C_11  and  O_13
REMARK    5  A    between atoms: O_13  and  C_14
REMARK    6  A    between atoms: C_14  and  C_15
REMARK                            x       y       z     vdW  Elec       q    Type
REMARK                         _______ _______ _______ _____ _____    ______ ____
ROOT
ATOM      1  N   UNL     1       6.749   7.662  17.011  0.00  0.00    +0.000 N 
ATOM      2  C   UNL     1       7.806   7.911  17.858  0.00  0.00    +0.000 C 
ATOM      3  O   UNL     1       8.276   7.128  18.693  0.00  0.00    +0.000 OA
ATOM      4  H   UNL     1       6.450   8.452  16.438  0.00  0.00    +0.000 HD
ENDROOT
BRANCH   1   9
ATOM      5  C   UNL     1       4.072   5.078  17.485  0.00  0.00    +0.000 A 
ATOM      6  C   UNL     1       4.537   4.043  16.675  0.00  0.00    +0.000 A 
ATOM      7  C   UNL     1       5.738   4.199  16.001  0.00  0.00    +0.000 A 
ATOM      8  C   UNL     1       6.463   5.381  16.121  0.00  0.00    +0.000 A 
ATOM      9  C   UNL     1       6.019   6.445  16.918  0.00  0.00    +0.000 A 
ATOM     10  C   UNL     1       4.813   6.271  17.615  0.00  0.00    +0.000 A 
BRANCH   5  13
ATOM     11  C   UNL     1       1.742   4.818  20.472  0.00  0.00    +0.000 C 
ATOM     12  N   UNL     1       2.901   4.981  19.631  0.00  0.00    +0.000 N 
ATOM     13  C   UNL     1       2.804   4.915  18.256  0.00  0.00    +0.000 C 
ATOM     14  O   UNL     1       1.746   4.734  17.663  0.00  0.00    +0.000 OA
ATOM     15  H   UNL     1       3.804   5.047  20.083  0.00  0.00    +0.000 HD
ENDBRANCH   5  13
ENDBRANCH   1   9
BRANCH   2  16
ATOM     16  O   UNL     1       8.251   9.194  17.755  0.00  0.00    +0.000 OA
BRANCH  16  17
ATOM     17  C   UNL     1       9.001   9.626  18.903  0.00  0.00    +0.000 C 
BRANCH  17  18
ATOM     18  C   UNL     1       9.598  11.018  18.813  0.00  0.00    +0.000 A 
ATOM     19  C   UNL     1      10.460  11.266  17.722  0.00  0.00    +0.000 A 
ATOM     20  C   UNL     1      11.175  12.455  17.629  0.00  0.00    +0.000 A 
ATOM     21  C   UNL     1      11.105  13.378  18.658  0.00  0.00    +0.000 A 
ATOM     22  C   UNL     1      10.326  13.127  19.791  0.00  0.00    +0.000 A 
ATOM     23  C   UNL     1      10.466  13.971  20.894  0.00  0.00    +0.000 A 
ATOM     24  C   UNL     1       9.768  13.728  22.071  0.00  0.00    +0.000 A 
ATOM     25  C   UNL     1       8.772  12.764  22.080  0.00  0.00    +0.000 A 
ATOM     26  C   UNL     1       8.632  11.894  20.992  0.00  0.00    +0.000 A 
ATOM     27  C   UNL     1       9.482  11.989  19.856  0.00  0.00    +0.000 A 
ENDBRANCH  17  18
ENDBRANCH  16  17
ENDBRANCH   2  16
TORSDOF 5
ENDMDL
MODEL 5
REMARK VINA RESULT:      -8.0      1.065      1.164
REMARK  Name = 
REMARK  6 active torsions:
REMARK  status: ('A' for Active; 'I' for Inactive)
REMARK    1  A    between atoms: C_1  and  N_2
REMARK    2  A    between atoms: C_3  and  C_5
REMARK    3  A    between atoms: C_9  and  N_10
REMARK    4  A    between atoms: C_11  and  O_13
REMARK    5  A    between atoms: O_13  and  C_14
REMARK    6  A    between atoms: C_14  and  C_15
REMARK                            x       y       z     vdW  Elec       q    Type
REMARK                         _______ _______ _______ _____ _____    ______ ____
ROOT
ATOM      1  N   UNL     1       5.528   5.228  15.897  0.00  0.00    +0.000 N 
ATOM      2  C   UNL     1       6.229   5.792  16.941  0.00  0.00    +0.000 C 
ATOM      3  O   UNL     1       7.441   6.036  16.962  0.00  0.00    +0.000 OA
ATOM      4  H   UNL     1       4.545   5.031  16.084  0.00  0.00    +0.000 HD
ENDROOT
BRANCH   1   9
ATOM      5  C   UNL     1       5.845   3.734  12.471  0.00  0.00    +0.000 A 
ATOM      6  C   UNL     1       7.122   4.155  12.100  0.00  0.00    +0.000 A 
ATOM      7  C   UNL     1       7.871   4.906  12.991  0.00  0.00    +0.000 A 
ATOM      8  C   UNL     1       7.350   5.246  14.236  0.00  0.00    +0.000 A 
ATOM      9  C   UNL     1       6.066   4.849  14.637  0.00  0.00    +0.000 A 
ATOM     10  C   UNL     1       5.322   4.070  13.737  0.00  0.00    +0.000 A 
BRANCH   5  13
ATOM     11  C   UNL     1       3.043   2.729  10.114  0.00  0.00    +0.000 C 
ATOM     12  N   UNL     1       3.905   3.463  11.005  0.00  0.00    +0.000 N 
ATOM     13  C   UNL     1       5.037   2.887  11.545  0.00  0.00    +0.000 C 
ATOM     14  O   UNL     1       5.392   1.739  11.298  0.00  0.00    +0.000 OA
ATOM     15  H   UNL     1       3.602   4.382  11.300  0.00  0.00    +0.000 HD
ENDBRANCH   5  13
ENDBRANCH   1   9
BRANCH   2  16
ATOM     16  O   UNL     1       5.444   5.980  18.038  0.00  0.00    +0.000 OA
BRANCH  16  17
ATOM     17  C   UNL     1       4.125   6.453  17.714  0.00  0.00    +0.000 C 
BRANCH  17  18
ATOM     18  C   UNL     1       3.005   5.938  18.600  0.00  0.00    +0.000 A 
ATOM     19  C   UNL     1       2.606   6.779  19.663  0.00  0.00    +0.000 A 
ATOM     20  C   UNL     1       1.699   6.340  20.621  0.00  0.00    +0.000 A 
ATOM     21  C   UNL     1       1.237   5.035  20.581  0.00  0.00    +0.000 A 
ATOM     22  C   UNL     1       1.677   4.153  19.590  0.00  0.00    +0.000 A 
ATOM     23  C   UNL     1       1.368   2.798  19.724  0.00  0.00    +0.000 A 
ATOM     24  C   UNL     1       1.838   1.867  18.805  0.00  0.00    +0.000 A 
ATOM     25  C   UNL     1       2.441   2.310  17.638  0.00  0.00    +0.000 A 
ATOM     26  C   UNL     1       2.778   3.662  17.498  0.00  0.00    +0.000 A 
ATOM     27  C   UNL     1       2.495   4.605  18.523  0.00  0.00    +0.000 A 
ENDBRANCH  17  18
ENDBRANCH  16  17
ENDBRANCH   2  16
TORSDOF 5
ENDMDL
MODEL 6
REMARK VINA RESULT:      -8.0      6.056      9.007
REMARK  Name = 
REMARK  6 active torsions:
REMARK  status: ('A' for Active; 'I' for Inactive)
REMARK    1  A    between atoms: C_1  and  N_2
REMARK    2  A    between atoms: C_3  and  C_5
REMARK    3  A    between atoms: C_9  and  N_10
REMARK    4  A    between atoms: C_11  and  O_13
REMARK    5  A    between atoms: O_13  and  C_14
REMARK    6  A    between atoms: C_14  and  C_15
REMARK                            x       y       z     vdW  Elec       q    Type
REMARK                         _______ _______ _______ _____ _____    ______ ____
ROOT
ATOM      1  N   UNL     1       7.619   6.515  18.509  0.00  0.00    +0.000 N 
ATOM      2  C   UNL     1       7.796   7.780  17.991  0.00  0.00    +0.000 C 
ATOM      3  O   UNL     1       7.215   8.257  17.008  0.00  0.00    +0.000 OA
ATOM      4  H   UNL     1       8.239   6.267  19.281  0.00  0.00    +0.000 HD
ENDROOT
BRANCH   1   9
ATOM      5  C   UNL     1       4.704   4.165  18.299  0.00  0.00    +0.000 A 
ATOM      6  C   UNL     1       4.874   3.622  17.026  0.00  0.00    +0.000 A 
ATOM      7  C   UNL     1       5.960   4.019  16.262  0.00  0.00    +0.000 A 
ATOM      8  C   UNL     1       6.861   4.958  16.755  0.00  0.00    +0.000 A 
ATOM      9  C   UNL     1       6.713   5.532  18.026  0.00  0.00    +0.000 A 
ATOM     10  C   UNL     1       5.624   5.108  18.802  0.00  0.00    +0.000 A 
BRANCH   5  13
ATOM     11  C   UNL     1       1.914   4.342  20.869  0.00  0.00    +0.000 C 
ATOM     12  N   UNL     1       3.005   4.670  19.985  0.00  0.00    +0.000 N 
ATOM     13  C   UNL     1       3.567   3.719  19.158  0.00  0.00    +0.000 C 
ATOM     14  O   UNL     1       3.178   2.558  19.104  0.00  0.00    +0.000 OA
ATOM     15  H   UNL     1       3.410   5.593  20.061  0.00  0.00    +0.000 HD
ENDBRANCH   5  13
ENDBRANCH   1   9
BRANCH   2  16
ATOM     16  O   UNL     1       8.785   8.460  18.634  0.00  0.00    +0.000 OA
BRANCH  16  17
ATOM     17  C   UNL     1       8.841   9.851  18.272  0.00  0.00    +0.000 C 
BRANCH  17  18
ATOM     18  C   UNL     1       9.563  10.757  19.252  0.00  0.00    +0.000 A 
ATOM     19  C   UNL     1       9.080  10.762  20.580  0.00  0.00    +0.000 A 
ATOM     20  C   UNL     1       9.571  11.665  21.516  0.00  0.00    +0.000 A 
ATOM     21  C   UNL     1      10.489  12.626  21.127  0.00  0.00    +0.000 A 
ATOM     22  C   UNL     1      10.925  12.700  19.801  0.00  0.00    +0.000 A 
ATOM     23  C   UNL     1      11.666  13.817  19.408  0.00  0.00    +0.000 A 
ATOM     24  C   UNL     1      12.066  13.976  18.086  0.00  0.00    +0.000 A 
ATOM     25  C   UNL     1      11.909  12.922  17.199  0.00  0.00    +0.000 A 
ATOM     26  C   UNL     1      11.150  11.805  17.570  0.00  0.00    +0.000 A 
ATOM     27  C   UNL     1      10.548  11.713  18.854  0.00  0.00    +0.000 A 
ENDBRANCH  17  18
ENDBRANCH  16  17
ENDBRANCH   2  16
TORSDOF 5
ENDMDL
MODEL 7
REMARK VINA RESULT:      -8.0      6.055      8.642
REMARK  Name = 
REMARK  6 active torsions:
REMARK  status: ('A' for Active; 'I' for Inactive)
REMARK    1  A    between atoms: C_1  and  N_2
REMARK    2  A    between atoms: C_3  and  C_5
REMARK    3  A    between atoms: C_9  and  N_10
REMARK    4  A    between atoms: C_11  and  O_13
REMARK    5  A    between atoms: O_13  and  C_14
REMARK    6  A    between atoms: C_14  and  C_15
REMARK                            x       y       z     vdW  Elec       q    Type
REMARK                         _______ _______ _______ _____ _____    ______ ____
ROOT
ATOM      1  N   UNL     1       7.817   6.637  17.968  0.00  0.00    +0.000 N 
ATOM      2  C   UNL     1       7.718   8.007  17.864  0.00  0.00    +0.000 C 
ATOM      3  O   UNL     1       6.965   8.632  17.107  0.00  0.00    +0.000 OA
ATOM      4  H   UNL     1       8.546   6.296  18.595  0.00  0.00    +0.000 HD
ENDROOT
BRANCH   1   9
ATOM      5  C   UNL     1       5.107   4.210  17.053  0.00  0.00    +0.000 A 
ATOM      6  C   UNL     1       5.487   3.841  15.764  0.00  0.00    +0.000 A 
ATOM      7  C   UNL     1       6.644   4.376  15.221  0.00  0.00    +0.000 A 
ATOM      8  C   UNL     1       7.408   5.283  15.949  0.00  0.00    +0.000 A 
ATOM      9  C   UNL     1       7.049   5.685  17.243  0.00  0.00    +0.000 A 
ATOM     10  C   UNL     1       5.888   5.121  17.794  0.00  0.00    +0.000 A 
BRANCH   5  13
ATOM     11  C   UNL     1       2.880   1.634  18.733  0.00  0.00    +0.000 C 
ATOM     12  N   UNL     1       3.999   2.314  18.132  0.00  0.00    +0.000 N 
ATOM     13  C   UNL     1       3.889   3.612  17.676  0.00  0.00    +0.000 C 
ATOM     14  O   UNL     1       2.859   4.271  17.764  0.00  0.00    +0.000 OA
ATOM     15  H   UNL     1       4.840   1.777  17.964  0.00  0.00    +0.000 HD
ENDBRANCH   5  13
ENDBRANCH   1   9
BRANCH   2  16
ATOM     16  O   UNL     1       8.636   8.645  18.642  0.00  0.00    +0.000 OA
BRANCH  16  17
ATOM     17  C   UNL     1       8.931   9.978  18.189  0.00  0.00    +0.000 C 
BRANCH  17  18
ATOM     18  C   UNL     1       9.643  10.870  19.190  0.00  0.00    +0.000 A 
ATOM     19  C   UNL     1       9.142  10.860  20.511  0.00  0.00    +0.000 A 
ATOM     20  C   UNL     1       9.622  11.750  21.465  0.00  0.00    +0.000 A 
ATOM     21  C   UNL     1      10.548  12.713  21.100  0.00  0.00    +0.000 A 
ATOM     22  C   UNL     1      11.003  12.801  19.782  0.00  0.00    +0.000 A 
ATOM     23  C   UNL     1      11.752  13.921  19.412  0.00  0.00    +0.000 A 
ATOM     24  C   UNL     1      12.171  14.094  18.098  0.00  0.00    +0.000 A 
ATOM     25  C   UNL     1      12.023  13.052  17.196  0.00  0.00    +0.000 A 
ATOM     26  C   UNL     1      11.255  11.933  17.543  0.00  0.00    +0.000 A 
ATOM     27  C   UNL     1      10.635  11.828  18.817  0.00  0.00    +0.000 A 
ENDBRANCH  17  18
ENDBRANCH  16  17
ENDBRANCH   2  16
TORSDOF 5
ENDMDL
MODEL 8
REMARK VINA RESULT:      -8.0      5.648      8.669
REMARK  Name = 
REMARK  6 active torsions:
REMARK  status: ('A' for Active; 'I' for Inactive)
REMARK    1  A    between atoms: C_1  and  N_2
REMARK    2  A    between atoms: C_3  and  C_5
REMARK    3  A    between atoms: C_9  and  N_10
REMARK    4  A    between atoms: C_11  and  O_13
REMARK    5  A    between atoms: O_13  and  C_14
REMARK    6  A    between atoms: C_14  and  C_15
REMARK                            x       y       z     vdW  Elec       q    Type
REMARK                         _______ _______ _______ _____ _____    ______ ____
ROOT
ATOM      1  N   UNL     1       8.538   9.837  17.790  0.00  0.00    +0.000 N 
ATOM      2  C   UNL     1       8.223   8.508  17.972  0.00  0.00    +0.000 C 
ATOM      3  O   UNL     1       8.629   7.776  18.883  0.00  0.00    +0.000 OA
ATOM      4  H   UNL     1       8.168  10.263  16.941  0.00  0.00    +0.000 HD
ENDROOT
BRANCH   1   9
ATOM      5  C   UNL     1       9.755  11.808  20.740  0.00  0.00    +0.000 A 
ATOM      6  C   UNL     1      11.053  12.131  20.344  0.00  0.00    +0.000 A 
ATOM      7  C   UNL     1      11.502  11.716  19.100  0.00  0.00    +0.000 A 
ATOM      8  C   UNL     1      10.673  10.974  18.264  0.00  0.00    +0.000 A 
ATOM      9  C   UNL     1       9.368  10.623  18.636  0.00  0.00    +0.000 A 
ATOM     10  C   UNL     1       8.912  11.065  19.887  0.00  0.00    +0.000 A 
BRANCH   5  13
ATOM     11  C   UNL     1       8.066  11.694  24.138  0.00  0.00    +0.000 C 
ATOM     12  N   UNL     1       8.621  11.340  22.857  0.00  0.00    +0.000 N 
ATOM     13  C   UNL     1       9.234  12.283  22.056  0.00  0.00    +0.000 C 
ATOM     14  O   UNL     1       9.362  13.459  22.377  0.00  0.00    +0.000 OA
ATOM     15  H   UNL     1       8.460  10.401  22.518  0.00  0.00    +0.000 HD
ENDBRANCH   5  13
ENDBRANCH   1   9
BRANCH   2  16
ATOM     16  O   UNL     1       7.459   8.022  16.954  0.00  0.00    +0.000 OA
BRANCH  16  17
ATOM     17  C   UNL     1       6.162   7.576  17.385  0.00  0.00    +0.000 C 
BRANCH  17  18
ATOM     18  C   UNL     1       5.833   6.124  17.087  0.00  0.00    +0.000 A 
ATOM     19  C   UNL     1       6.702   5.450  16.201  0.00  0.00    +0.000 A 
ATOM     20  C   UNL     1       6.408   4.170  15.744  0.00  0.00    +0.000 A 
ATOM     21  C   UNL     1       5.209   3.575  16.099  0.00  0.00    +0.000 A 
ATOM     22  C   UNL     1       4.290   4.249  16.908  0.00  0.00    +0.000 A 
ATOM     23  C   UNL     1       3.009   3.710  17.047  0.00  0.00    +0.000 A 
ATOM     24  C   UNL     1       2.034   4.373  17.783  0.00  0.00    +0.000 A 
ATOM     25  C   UNL     1       2.394   5.469  18.553  0.00  0.00    +0.000 A 
ATOM     26  C   UNL     1       3.667   6.035  18.408  0.00  0.00    +0.000 A 
ATOM     27  C   UNL     1       4.616   5.497  17.498  0.00  0.00    +0.000 A 
ENDBRANCH  17  18
ENDBRANCH  16  17
ENDBRANCH   2  16
TORSDOF 5
ENDMDL
MODEL 9
REMARK VINA RESULT:      -8.0      5.473      8.938
REMARK  Name = 
REMARK  6 active torsions:
REMARK  status: ('A' for Active; 'I' for Inactive)
REMARK    1  A    between atoms: C_1  and  N_2
REMARK    2  A    between atoms: C_3  and  C_5
REMARK    3  A    between atoms: C_9  and  N_10
REMARK    4  A    between atoms: C_11  and  O_13
REMARK    5  A    between atoms: O_13  and  C_14
REMARK    6  A    between atoms: C_14  and  C_15
REMARK                            x       y       z     vdW  Elec       q    Type
REMARK                         _______ _______ _______ _____ _____    ______ ____
ROOT
ATOM      1  N   UNL     1       1.053   9.289  19.844  0.00  0.00    +0.000 N 
ATOM      2  C   UNL     1       0.603   8.552  20.917  0.00  0.00    +0.000 C 
ATOM      3  O   UNL     1      -0.387   8.804  21.616  0.00  0.00    +0.000 OA
ATOM      4  H   UNL     1       1.930   8.971  19.430  0.00  0.00    +0.000 HD
ENDROOT
BRANCH   1   9
ATOM      5  C   UNL     1      -1.342  11.561  18.062  0.00  0.00    +0.000 A 
ATOM      6  C   UNL     1      -0.798  12.814  18.342  0.00  0.00    +0.000 A 
ATOM      7  C   UNL     1       0.363  12.894  19.094  0.00  0.00    +0.000 A 
ATOM      8  C   UNL     1       0.971  11.738  19.575  0.00  0.00    +0.000 A 
ATOM      9  C   UNL     1       0.445  10.463  19.321  0.00  0.00    +0.000 A 
ATOM     10  C   UNL     1      -0.719  10.389  18.541  0.00  0.00    +0.000 A 
BRANCH   5  13
ATOM     11  C   UNL     1      -5.002  11.758  17.072  0.00  0.00    +0.000 C 
ATOM     12  N   UNL     1      -3.757  11.844  17.792  0.00  0.00    +0.000 N 
ATOM     13  C   UNL     1      -2.567  11.447  17.217  0.00  0.00    +0.000 C 
ATOM     14  O   UNL     1      -2.482  11.019  16.071  0.00  0.00    +0.000 OA
ATOM     15  H   UNL     1      -3.796  12.110  18.767  0.00  0.00    +0.000 HD
ENDBRANCH   5  13
ENDBRANCH   1   9
BRANCH   2  16
ATOM     16  O   UNL     1       1.441   7.520  21.213  0.00  0.00    +0.000 OA
BRANCH  16  17
ATOM     17  C   UNL     1       2.232   7.095  20.089  0.00  0.00    +0.000 C 
BRANCH  17  18
ATOM     18  C   UNL     1       2.061   5.646  19.674  0.00  0.00    +0.000 A 
ATOM     19  C   UNL     1       1.275   4.835  20.523  0.00  0.00    +0.000 A 
ATOM     20  C   UNL     1       1.180   3.464  20.317  0.00  0.00    +0.000 A 
ATOM     21  C   UNL     1       1.927   2.868  19.314  0.00  0.00    +0.000 A 
ATOM     22  C   UNL     1       2.777   3.630  18.510  0.00  0.00    +0.000 A 
ATOM     23  C   UNL     1       3.676   2.963  17.674  0.00  0.00    +0.000 A 
ATOM     24  C   UNL     1       4.592   3.670  16.904  0.00  0.00    +0.000 A 
ATOM     25  C   UNL     1       4.475   5.048  16.807  0.00  0.00    +0.000 A 
ATOM     26  C   UNL     1       3.596   5.735  17.654  0.00  0.00    +0.000 A 
ATOM     27  C   UNL     1       2.796   5.046  18.605  0.00  0.00    +0.000 A 
ENDBRANCH  17  18
ENDBRANCH  16  17
ENDBRANCH   2  16
TORSDOF 5
ENDMDL
