MODEL 1
REMARK VINA RESULT:      -7.7      0.000      0.000
REMARK  Name = 
REMARK  7 active torsions:
REMARK  status: ('A' for Active; 'I' for Inactive)
REMARK    1  A    between atoms: C_1  and  C_2
REMARK    2  A    between atoms: C_2  and  O_3
REMARK    3  A    between atoms: O_3  and  C_4
REMARK    4  A    between atoms: C_4  and  C_6
REMARK    5  A    between atoms: C_6  and  N_7
REMARK    6  A    between atoms: C_16  and  C_17
REMARK    7  A    between atoms: C_17  and  C_18
REMARK                            x       y       z     vdW  Elec       q    Type
REMARK                         _______ _______ _______ _____ _____    ______ ____
ROOT
ATOM      1  N   UNL     1       2.428   7.449  18.745  0.00  0.00    +0.000 N 
ATOM      2  C   UNL     1       1.925   7.518  19.999  0.00  0.00    +0.000 A 
ATOM      3  C   UNL     1       1.585   6.376  20.709  0.00  0.00    +0.000 A 
ATOM      4  C   UNL     1       1.676   5.131  20.102  0.00  0.00    +0.000 A 
ATOM      5  C   UNL     1       1.203   3.986  20.763  0.00  0.00    +0.000 A 
ATOM      6  C   UNL     1       1.259   2.736  20.150  0.00  0.00    +0.000 A 
ATOM      7  C   UNL     1       1.813   2.615  18.893  0.00  0.00    +0.000 A 
ATOM      8  C   UNL     1       2.315   3.744  18.241  0.00  0.00    +0.000 A 
ATOM      9  C   UNL     1       2.251   5.033  18.813  0.00  0.00    +0.000 A 
ATOM     10  C   UNL     1       2.746   6.232  18.188  0.00  0.00    +0.000 A 
ENDROOT
BRANCH   1  11
ATOM     11  C   UNL     1       2.564   8.735  17.997  0.00  0.00    +0.000 C 
BRANCH  11  12
ATOM     12  C   UNL     1       1.462   9.720  18.364  0.00  0.00    +0.000 C 
ATOM     13  O   UNL     1       1.601  10.671  19.117  0.00  0.00    +0.000 OA
BRANCH  12  14
ATOM     14  O   UNL     1       0.305   9.372  17.728  0.00  0.00    +0.000 OA
BRANCH  14  16
ATOM     15  C   UNL     1      -1.987   9.942  16.957  0.00  0.00    +0.000 C 
ATOM     16  C   UNL     1      -0.903  10.110  18.010  0.00  0.00    +0.000 C 
ENDBRANCH  14  16
ENDBRANCH  12  14
ENDBRANCH  11  12
ENDBRANCH   1  11
BRANCH  10  17
ATOM     17  C   UNL     1       3.844   6.131  17.124  0.00  0.00    +0.000 C 
BRANCH  17  18
ATOM     18  C   UNL     1       5.208   6.290  17.777  0.00  0.00    +0.000 A 
ATOM     19  C   UNL     1       6.190   7.124  17.210  0.00  0.00    +0.000 A 
ATOM     20  C   UNL     1       7.512   7.074  17.662  0.00  0.00    +0.000 A 
ATOM     21  C   UNL     1       7.864   6.211  18.694  0.00  0.00    +0.000 A 
ATOM     22  C   UNL     1       6.881   5.457  19.324  0.00  0.00    +0.000 A 
ATOM     23  C   UNL     1       5.558   5.504  18.882  0.00  0.00    +0.000 A 
ENDBRANCH  17  18
ENDBRANCH  10  17
TORSDOF 6
ENDMDL
MODEL 2
REMARK VINA RESULT:      -7.7      0.917      1.229
REMARK  Name = 
REMARK  7 active torsions:
REMARK  status: ('A' for Active; 'I' for Inactive)
REMARK    1  A    between atoms: C_1  and  C_2
REMARK    2  A    between atoms: C_2  and  O_3
REMARK    3  A    between atoms: O_3  and  C_4
REMARK    4  A    between atoms: C_4  and  C_6
REMARK    5  A    between atoms: C_6  and  N_7
REMARK    6  A    between atoms: C_16  and  C_17
REMARK    7  A    between atoms: C_17  and  C_18
REMARK                            x       y       z     vdW  Elec       q    Type
REMARK                         _______ _______ _______ _____ _____    ______ ____
ROOT
ATOM      1  N   UNL     1       2.547   7.289  18.760  0.00  0.00    +0.000 N 
ATOM      2  C   UNL     1       2.012   7.330  20.002  0.00  0.00    +0.000 A 
ATOM      3  C   UNL     1       1.615   6.176  20.660  0.00  0.00    +0.000 A 
ATOM      4  C   UNL     1       1.682   4.951  20.011  0.00  0.00    +0.000 A 
ATOM      5  C   UNL     1       1.154   3.800  20.617  0.00  0.00    +0.000 A 
ATOM      6  C   UNL     1       1.187   2.571  19.962  0.00  0.00    +0.000 A 
ATOM      7  C   UNL     1       1.771   2.475  18.716  0.00  0.00    +0.000 A 
ATOM      8  C   UNL     1       2.327   3.609  18.119  0.00  0.00    +0.000 A 
ATOM      9  C   UNL     1       2.289   4.879  18.735  0.00  0.00    +0.000 A 
ATOM     10  C   UNL     1       2.840   6.082  18.168  0.00  0.00    +0.000 A 
ENDROOT
BRANCH   1  11
ATOM     11  C   UNL     1       2.746   8.595  18.063  0.00  0.00    +0.000 C 
BRANCH  11  12
ATOM     12  C   UNL     1       1.461   9.412  18.020  0.00  0.00    +0.000 C 
ATOM     13  O   UNL     1       0.456   9.096  17.403  0.00  0.00    +0.000 OA
BRANCH  12  14
ATOM     14  O   UNL     1       1.612  10.544  18.768  0.00  0.00    +0.000 OA
BRANCH  14  16
ATOM     15  C   UNL     1       0.037  10.391  20.684  0.00  0.00    +0.000 C 
ATOM     16  C   UNL     1       0.457  11.119  19.417  0.00  0.00    +0.000 C 
ENDBRANCH  14  16
ENDBRANCH  12  14
ENDBRANCH  11  12
ENDBRANCH   1  11
BRANCH  10  17
ATOM     17  C   UNL     1       3.963   5.982  17.130  0.00  0.00    +0.000 C 
BRANCH  17  18
ATOM     18  C   UNL     1       5.308   6.205  17.805  0.00  0.00    +0.000 A 
ATOM     19  C   UNL     1       6.256   7.088  17.256  0.00  0.00    +0.000 A 
ATOM     20  C   UNL     1       7.572   7.101  17.729  0.00  0.00    +0.000 A 
ATOM     21  C   UNL     1       7.949   6.252  18.764  0.00  0.00    +0.000 A 
ATOM     22  C   UNL     1       6.994   5.448  19.376  0.00  0.00    +0.000 A 
ATOM     23  C   UNL     1       5.678   5.432  18.913  0.00  0.00    +0.000 A 
ENDBRANCH  17  18
ENDBRANCH  10  17
TORSDOF 6
ENDMDL
MODEL 3
REMARK VINA RESULT:      -7.7      3.072      5.580
REMARK  Name = 
REMARK  7 active torsions:
REMARK  status: ('A' for Active; 'I' for Inactive)
REMARK    1  A    between atoms: C_1  and  C_2
REMARK    2  A    between atoms: C_2  and  O_3
REMARK    3  A    between atoms: O_3  and  C_4
REMARK    4  A    between atoms: C_4  and  C_6
REMARK    5  A    between atoms: C_6  and  N_7
REMARK    6  A    between atoms: C_16  and  C_17
REMARK    7  A    between atoms: C_17  and  C_18
REMARK                            x       y       z     vdW  Elec       q    Type
REMARK                         _______ _______ _______ _____ _____    ______ ____
ROOT
ATOM      1  N   UNL     1       4.300   4.959  17.506  0.00  0.00    +0.000 N 
ATOM      2  C   UNL     1       3.730   4.086  16.644  0.00  0.00    +0.000 A 
ATOM      3  C   UNL     1       2.656   3.293  17.018  0.00  0.00    +0.000 A 
ATOM      4  C   UNL     1       2.199   3.320  18.328  0.00  0.00    +0.000 A 
ATOM      5  C   UNL     1       1.206   2.421  18.749  0.00  0.00    +0.000 A 
ATOM      6  C   UNL     1       0.762   2.417  20.070  0.00  0.00    +0.000 A 
ATOM      7  C   UNL     1       1.280   3.326  20.968  0.00  0.00    +0.000 A 
ATOM      8  C   UNL     1       2.245   4.246  20.550  0.00  0.00    +0.000 A 
ATOM      9  C   UNL     1       2.745   4.265  19.229  0.00  0.00    +0.000 A 
ATOM     10  C   UNL     1       3.740   5.183  18.743  0.00  0.00    +0.000 A 
ENDROOT
BRANCH   1  11
ATOM     11  C   UNL     1       5.573   5.609  17.071  0.00  0.00    +0.000 C 
BRANCH  11  12
ATOM     12  C   UNL     1       6.783   4.730  17.360  0.00  0.00    +0.000 C 
ATOM     13  O   UNL     1       7.133   4.373  18.474  0.00  0.00    +0.000 OA
BRANCH  12  14
ATOM     14  O   UNL     1       7.409   4.412  16.189  0.00  0.00    +0.000 OA
BRANCH  14  16
ATOM     15  C   UNL     1       6.335   3.955  13.996  0.00  0.00    +0.000 C 
ATOM     16  C   UNL     1       6.923   4.979  14.954  0.00  0.00    +0.000 C 
ENDBRANCH  14  16
ENDBRANCH  12  14
ENDBRANCH  11  12
ENDBRANCH   1  11
BRANCH  10  17
ATOM     17  C   UNL     1       3.935   6.530  19.448  0.00  0.00    +0.000 C 
BRANCH  17  18
ATOM     18  C   UNL     1       2.758   7.444  19.142  0.00  0.00    +0.000 A 
ATOM     19  C   UNL     1       2.591   8.005  17.862  0.00  0.00    +0.000 A 
ATOM     20  C   UNL     1       1.667   9.033  17.653  0.00  0.00    +0.000 A 
ATOM     21  C   UNL     1       0.888   9.496  18.708  0.00  0.00    +0.000 A 
ATOM     22  C   UNL     1       0.978   8.879  19.950  0.00  0.00    +0.000 A 
ATOM     23  C   UNL     1       1.894   7.851  20.167  0.00  0.00    +0.000 A 
ENDBRANCH  17  18
ENDBRANCH  10  17
TORSDOF 6
ENDMDL
MODEL 4
REMARK VINA RESULT:      -7.6      1.148      1.799
REMARK  Name = 
REMARK  7 active torsions:
REMARK  status: ('A' for Active; 'I' for Inactive)
REMARK    1  A    between atoms: C_1  and  C_2
REMARK    2  A    between atoms: C_2  and  O_3
REMARK    3  A    between atoms: O_3  and  C_4
REMARK    4  A    between atoms: C_4  and  C_6
REMARK    5  A    between atoms: C_6  and  N_7
REMARK    6  A    between atoms: C_16  and  C_17
REMARK    7  A    between atoms: C_17  and  C_18
REMARK                            x       y       z     vdW  Elec       q    Type
REMARK                         _______ _______ _______ _____ _____    ______ ____
ROOT
ATOM      1  N   UNL     1       2.759   7.043  18.534  0.00  0.00    +0.000 N 
ATOM      2  C   UNL     1       2.299   7.225  19.794  0.00  0.00    +0.000 A 
ATOM      3  C   UNL     1       1.862   6.161  20.568  0.00  0.00    +0.000 A 
ATOM      4  C   UNL     1       1.807   4.885  20.023  0.00  0.00    +0.000 A 
ATOM      5  C   UNL     1       1.235   3.830  20.752  0.00  0.00    +0.000 A 
ATOM      6  C   UNL     1       1.146   2.552  20.203  0.00  0.00    +0.000 A 
ATOM      7  C   UNL     1       1.649   2.313  18.942  0.00  0.00    +0.000 A 
ATOM      8  C   UNL     1       2.248   3.350  18.222  0.00  0.00    +0.000 A 
ATOM      9  C   UNL     1       2.334   4.665  18.728  0.00  0.00    +0.000 A 
ATOM     10  C   UNL     1       2.933   5.774  18.033  0.00  0.00    +0.000 A 
ENDROOT
BRANCH   1  11
ATOM     11  C   UNL     1       3.007   8.270  17.719  0.00  0.00    +0.000 C 
BRANCH  11  12
ATOM     12  C   UNL     1       1.855   9.261  17.826  0.00  0.00    +0.000 C 
ATOM     13  O   UNL     1       0.677   8.977  17.680  0.00  0.00    +0.000 OA
BRANCH  12  14
ATOM     14  O   UNL     1       2.345  10.505  18.103  0.00  0.00    +0.000 OA
BRANCH  14  16
ATOM     15  C   UNL     1       2.004  12.909  18.630  0.00  0.00    +0.000 C 
ATOM     16  C   UNL     1       1.474  11.486  18.707  0.00  0.00    +0.000 C 
ENDBRANCH  14  16
ENDBRANCH  12  14
ENDBRANCH  11  12
ENDBRANCH   1  11
BRANCH  10  17
ATOM     17  C   UNL     1       3.985   5.506  16.951  0.00  0.00    +0.000 C 
BRANCH  17  18
ATOM     18  C   UNL     1       5.378   5.678  17.537  0.00  0.00    +0.000 A 
ATOM     19  C   UNL     1       5.739   5.050  18.743  0.00  0.00    +0.000 A 
ATOM     20  C   UNL     1       6.918   5.407  19.405  0.00  0.00    +0.000 A 
ATOM     21  C   UNL     1       7.757   6.374  18.862  0.00  0.00    +0.000 A 
ATOM     22  C   UNL     1       7.456   6.927  17.622  0.00  0.00    +0.000 A 
ATOM     23  C   UNL     1       6.285   6.574  16.953  0.00  0.00    +0.000 A 
ENDBRANCH  17  18
ENDBRANCH  10  17
TORSDOF 6
ENDMDL
MODEL 5
REMARK VINA RESULT:      -7.6      2.922      5.553
REMARK  Name = 
REMARK  7 active torsions:
REMARK  status: ('A' for Active; 'I' for Inactive)
REMARK    1  A    between atoms: C_1  and  C_2
REMARK    2  A    between atoms: C_2  and  O_3
REMARK    3  A    between atoms: O_3  and  C_4
REMARK    4  A    between atoms: C_4  and  C_6
REMARK    5  A    between atoms: C_6  and  N_7
REMARK    6  A    between atoms: C_16  and  C_17
REMARK    7  A    between atoms: C_17  and  C_18
REMARK                            x       y       z     vdW  Elec       q    Type
REMARK                         _______ _______ _______ _____ _____    ______ ____
ROOT
ATOM      1  N   UNL     1       3.834   4.717  17.356  0.00  0.00    +0.000 N 
ATOM      2  C   UNL     1       3.052   3.767  16.792  0.00  0.00    +0.000 A 
ATOM      3  C   UNL     1       2.152   3.028  17.543  0.00  0.00    +0.000 A 
ATOM      4  C   UNL     1       2.100   3.192  18.920  0.00  0.00    +0.000 A 
ATOM      5  C   UNL     1       1.294   2.351  19.703  0.00  0.00    +0.000 A 
ATOM      6  C   UNL     1       1.258   2.486  21.090  0.00  0.00    +0.000 A 
ATOM      7  C   UNL     1       2.001   3.475  21.700  0.00  0.00    +0.000 A 
ATOM      8  C   UNL     1       2.781   4.337  20.925  0.00  0.00    +0.000 A 
ATOM      9  C   UNL     1       2.869   4.217  19.522  0.00  0.00    +0.000 A 
ATOM     10  C   UNL     1       3.659   5.071  18.673  0.00  0.00    +0.000 A 
ENDROOT
BRANCH   1  11
ATOM     11  C   UNL     1       4.909   5.305  16.502  0.00  0.00    +0.000 C 
BRANCH  11  12
ATOM     12  C   UNL     1       6.036   4.312  16.250  0.00  0.00    +0.000 C 
ATOM     13  O   UNL     1       6.073   3.522  15.320  0.00  0.00    +0.000 OA
BRANCH  12  14
ATOM     14  O   UNL     1       6.986   4.440  17.222  0.00  0.00    +0.000 OA
BRANCH  14  16
ATOM     15  C   UNL     1       7.742   5.825  19.143  0.00  0.00    +0.000 C 
ATOM     16  C   UNL     1       7.359   5.761  17.672  0.00  0.00    +0.000 C 
ENDBRANCH  14  16
ENDBRANCH  12  14
ENDBRANCH  11  12
ENDBRANCH   1  11
BRANCH  10  17
ATOM     17  C   UNL     1       4.026   6.480  19.152  0.00  0.00    +0.000 C 
BRANCH  17  18
ATOM     18  C   UNL     1       2.831   7.406  18.986  0.00  0.00    +0.000 A 
ATOM     19  C   UNL     1       2.594   8.071  17.769  0.00  0.00    +0.000 A 
ATOM     20  C   UNL     1       1.655   9.105  17.695  0.00  0.00    +0.000 A 
ATOM     21  C   UNL     1       0.931   9.471  18.825  0.00  0.00    +0.000 A 
ATOM     22  C   UNL     1       1.089   8.752  20.005  0.00  0.00    +0.000 A 
ATOM     23  C   UNL     1       2.020   7.717  20.085  0.00  0.00    +0.000 A 
ENDBRANCH  17  18
ENDBRANCH  10  17
TORSDOF 6
ENDMDL
MODEL 6
REMARK VINA RESULT:      -7.5      2.472      5.146
REMARK  Name = 
REMARK  7 active torsions:
REMARK  status: ('A' for Active; 'I' for Inactive)
REMARK    1  A    between atoms: C_1  and  C_2
REMARK    2  A    between atoms: C_2  and  O_3
REMARK    3  A    between atoms: O_3  and  C_4
REMARK    4  A    between atoms: C_4  and  C_6
REMARK    5  A    between atoms: C_6  and  N_7
REMARK    6  A    between atoms: C_16  and  C_17
REMARK    7  A    between atoms: C_17  and  C_18
REMARK                            x       y       z     vdW  Elec       q    Type
REMARK                         _______ _______ _______ _____ _____    ______ ____
ROOT
ATOM      1  N   UNL     1       4.506   4.557  17.600  0.00  0.00    +0.000 N 
ATOM      2  C   UNL     1       3.940   3.707  16.712  0.00  0.00    +0.000 A 
ATOM      3  C   UNL     1       2.767   3.030  17.002  0.00  0.00    +0.000 A 
ATOM      4  C   UNL     1       2.192   3.148  18.260  0.00  0.00    +0.000 A 
ATOM      5  C   UNL     1       1.084   2.358  18.608  0.00  0.00    +0.000 A 
ATOM      6  C   UNL     1       0.518   2.445  19.878  0.00  0.00    +0.000 A 
ATOM      7  C   UNL     1       1.033   3.336  20.797  0.00  0.00    +0.000 A 
ATOM      8  C   UNL     1       2.115   4.148  20.448  0.00  0.00    +0.000 A 
ATOM      9  C   UNL     1       2.736   4.072  19.183  0.00  0.00    +0.000 A 
ATOM     10  C   UNL     1       3.856   4.877  18.769  0.00  0.00    +0.000 A 
ENDROOT
BRANCH   1  11
ATOM     11  C   UNL     1       5.870   5.072  17.273  0.00  0.00    +0.000 C 
BRANCH  11  12
ATOM     12  C   UNL     1       5.816   6.211  16.263  0.00  0.00    +0.000 C 
ATOM     13  O   UNL     1       5.404   6.107  15.119  0.00  0.00    +0.000 OA
BRANCH  12  14
ATOM     14  O   UNL     1       6.300   7.353  16.833  0.00  0.00    +0.000 OA
BRANCH  14  16
ATOM     15  C   UNL     1       8.126   8.645  17.917  0.00  0.00    +0.000 C 
ATOM     16  C   UNL     1       7.507   7.287  17.625  0.00  0.00    +0.000 C 
ENDBRANCH  14  16
ENDBRANCH  12  14
ENDBRANCH  11  12
ENDBRANCH   1  11
BRANCH  10  17
ATOM     17  C   UNL     1       4.108   6.226  19.451  0.00  0.00    +0.000 C 
BRANCH  17  18
ATOM     18  C   UNL     1       2.979   7.189  19.118  0.00  0.00    +0.000 A 
ATOM     19  C   UNL     1       2.883   7.779  17.844  0.00  0.00    +0.000 A 
ATOM     20  C   UNL     1       2.007   8.844  17.618  0.00  0.00    +0.000 A 
ATOM     21  C   UNL     1       1.205   9.318  18.651  0.00  0.00    +0.000 A 
ATOM     22  C   UNL     1       1.223   8.676  19.884  0.00  0.00    +0.000 A 
ATOM     23  C   UNL     1       2.091   7.610  20.116  0.00  0.00    +0.000 A 
ENDBRANCH  17  18
ENDBRANCH  10  17
TORSDOF 6
ENDMDL
MODEL 7
REMARK VINA RESULT:      -7.5      0.574      1.189
REMARK  Name = 
REMARK  7 active torsions:
REMARK  status: ('A' for Active; 'I' for Inactive)
REMARK    1  A    between atoms: C_1  and  C_2
REMARK    2  A    between atoms: C_2  and  O_3
REMARK    3  A    between atoms: O_3  and  C_4
REMARK    4  A    between atoms: C_4  and  C_6
REMARK    5  A    between atoms: C_6  and  N_7
REMARK    6  A    between atoms: C_16  and  C_17
REMARK    7  A    between atoms: C_17  and  C_18
REMARK                            x       y       z     vdW  Elec       q    Type
REMARK                         _______ _______ _______ _____ _____    ______ ____
ROOT
ATOM      1  N   UNL     1       2.491   7.145  18.869  0.00  0.00    +0.000 N 
ATOM      2  C   UNL     1       2.033   6.901  20.119  0.00  0.00    +0.000 A 
ATOM      3  C   UNL     1       1.783   5.612  20.562  0.00  0.00    +0.000 A 
ATOM      4  C   UNL     1       1.918   4.542  19.688  0.00  0.00    +0.000 A 
ATOM      5  C   UNL     1       1.532   3.251  20.086  0.00  0.00    +0.000 A 
ATOM      6  C   UNL     1       1.633   2.174  19.207  0.00  0.00    +0.000 A 
ATOM      7  C   UNL     1       2.143   2.371  17.941  0.00  0.00    +0.000 A 
ATOM      8  C   UNL     1       2.559   3.646  17.547  0.00  0.00    +0.000 A 
ATOM      9  C   UNL     1       2.447   4.769  18.396  0.00  0.00    +0.000 A 
ATOM     10  C   UNL     1       2.852   6.105  18.045  0.00  0.00    +0.000 A 
ENDROOT
BRANCH   1  11
ATOM     11  C   UNL     1       2.529   8.571  18.427  0.00  0.00    +0.000 C 
BRANCH  11  12
ATOM     12  C   UNL     1       1.303   9.342  18.901  0.00  0.00    +0.000 C 
ATOM     13  O   UNL     1       1.115   9.711  20.050  0.00  0.00    +0.000 OA
BRANCH  12  14
ATOM     14  O   UNL     1       0.455   9.546  17.851  0.00  0.00    +0.000 OA
BRANCH  14  16
ATOM     15  C   UNL     1      -1.899   9.905  17.140  0.00  0.00    +0.000 C 
ATOM     16  C   UNL     1      -0.757  10.302  18.061  0.00  0.00    +0.000 C 
ENDBRANCH  14  16
ENDBRANCH  12  14
ENDBRANCH  11  12
ENDBRANCH   1  11
BRANCH  10  17
ATOM     17  C   UNL     1       3.913   6.311  16.957  0.00  0.00    +0.000 C 
BRANCH  17  18
ATOM     18  C   UNL     1       5.301   6.153  17.557  0.00  0.00    +0.000 A 
ATOM     19  C   UNL     1       5.511   5.354  18.697  0.00  0.00    +0.000 A 
ATOM     20  C   UNL     1       6.723   5.411  19.391  0.00  0.00    +0.000 A 
ATOM     21  C   UNL     1       7.743   6.245  18.946  0.00  0.00    +0.000 A 
ATOM     22  C   UNL     1       7.579   6.961  17.765  0.00  0.00    +0.000 A 
ATOM     23  C   UNL     1       6.374   6.908  17.065  0.00  0.00    +0.000 A 
ENDBRANCH  17  18
ENDBRANCH  10  17
TORSDOF 6
ENDMDL
MODEL 8
REMARK VINA RESULT:      -7.5      1.047      1.777
REMARK  Name = 
REMARK  7 active torsions:
REMARK  status: ('A' for Active; 'I' for Inactive)
REMARK    1  A    between atoms: C_1  and  C_2
REMARK    2  A    between atoms: C_2  and  O_3
REMARK    3  A    between atoms: O_3  and  C_4
REMARK    4  A    between atoms: C_4  and  C_6
REMARK    5  A    between atoms: C_6  and  N_7
REMARK    6  A    between atoms: C_16  and  C_17
REMARK    7  A    between atoms: C_17  and  C_18
REMARK                            x       y       z     vdW  Elec       q    Type
REMARK                         _______ _______ _______ _____ _____    ______ ____
ROOT
ATOM      1  N   UNL     1       2.578   7.155  18.780  0.00  0.00    +0.000 N 
ATOM      2  C   UNL     1       2.090   6.955  20.026  0.00  0.00    +0.000 A 
ATOM      3  C   UNL     1       1.797   5.685  20.496  0.00  0.00    +0.000 A 
ATOM      4  C   UNL     1       1.920   4.589  19.652  0.00  0.00    +0.000 A 
ATOM      5  C   UNL     1       1.493   3.320  20.074  0.00  0.00    +0.000 A 
ATOM      6  C   UNL     1       1.581   2.219  19.225  0.00  0.00    +0.000 A 
ATOM      7  C   UNL     1       2.121   2.370  17.965  0.00  0.00    +0.000 A 
ATOM      8  C   UNL     1       2.578   3.623  17.548  0.00  0.00    +0.000 A 
ATOM      9  C   UNL     1       2.480   4.769  18.365  0.00  0.00    +0.000 A 
ATOM     10  C   UNL     1       2.927   6.085  17.989  0.00  0.00    +0.000 A 
ENDROOT
BRANCH   1  11
ATOM     11  C   UNL     1       2.662   8.568  18.302  0.00  0.00    +0.000 C 
BRANCH  11  12
ATOM     12  C   UNL     1       1.315   9.273  18.388  0.00  0.00    +0.000 C 
ATOM     13  O   UNL     1       0.444   9.215  17.534  0.00  0.00    +0.000 OA
BRANCH  12  14
ATOM     14  O   UNL     1       1.239   9.979  19.554  0.00  0.00    +0.000 OA
BRANCH  14  16
ATOM     15  C   UNL     1       0.024   9.573  21.683  0.00  0.00    +0.000 C 
ATOM     16  C   UNL     1      -0.026  10.064  20.245  0.00  0.00    +0.000 C 
ENDBRANCH  14  16
ENDBRANCH  12  14
ENDBRANCH  11  12
ENDBRANCH   1  11
BRANCH  10  17
ATOM     17  C   UNL     1       4.013   6.235  16.918  0.00  0.00    +0.000 C 
BRANCH  17  18
ATOM     18  C   UNL     1       5.386   6.098  17.556  0.00  0.00    +0.000 A 
ATOM     19  C   UNL     1       5.575   5.308  18.705  0.00  0.00    +0.000 A 
ATOM     20  C   UNL     1       6.767   5.384  19.432  0.00  0.00    +0.000 A 
ATOM     21  C   UNL     1       7.788   6.230  19.011  0.00  0.00    +0.000 A 
ATOM     22  C   UNL     1       7.647   6.938  17.823  0.00  0.00    +0.000 A 
ATOM     23  C   UNL     1       6.463   6.865  17.090  0.00  0.00    +0.000 A 
ENDBRANCH  17  18
ENDBRANCH  10  17
TORSDOF 6
ENDMDL
MODEL 9
REMARK VINA RESULT:      -7.5      2.822      5.401
REMARK  Name = 
REMARK  7 active torsions:
REMARK  status: ('A' for Active; 'I' for Inactive)
REMARK    1  A    between atoms: C_1  and  C_2
REMARK    2  A    between atoms: C_2  and  O_3
REMARK    3  A    between atoms: O_3  and  C_4
REMARK    4  A    between atoms: C_4  and  C_6
REMARK    5  A    between atoms: C_6  and  N_7
REMARK    6  A    between atoms: C_16  and  C_17
REMARK    7  A    between atoms: C_17  and  C_18
REMARK                            x       y       z     vdW  Elec       q    Type
REMARK                         _______ _______ _______ _____ _____    ______ ____
ROOT
ATOM      1  N   UNL     1       4.620   4.613  17.718  0.00  0.00    +0.000 N 
ATOM      2  C   UNL     1       4.126   3.771  16.780  0.00  0.00    +0.000 A 
ATOM      3  C   UNL     1       2.942   3.079  16.979  0.00  0.00    +0.000 A 
ATOM      4  C   UNL     1       2.280   3.173  18.195  0.00  0.00    +0.000 A 
ATOM      5  C   UNL     1       1.159   2.369  18.455  0.00  0.00    +0.000 A 
ATOM      6  C   UNL     1       0.506   2.431  19.684  0.00  0.00    +0.000 A 
ATOM      7  C   UNL     1       0.947   3.313  20.648  0.00  0.00    +0.000 A 
ATOM      8  C   UNL     1       2.043   4.140  20.387  0.00  0.00    +0.000 A 
ATOM      9  C   UNL     1       2.751   4.088  19.167  0.00  0.00    +0.000 A 
ATOM     10  C   UNL     1       3.887   4.910  18.843  0.00  0.00    +0.000 A 
ENDROOT
BRANCH   1  11
ATOM     11  C   UNL     1       5.998   5.145  17.493  0.00  0.00    +0.000 C 
BRANCH  11  12
ATOM     12  C   UNL     1       6.115   5.859  16.152  0.00  0.00    +0.000 C 
ATOM     13  O   UNL     1       5.302   6.659  15.717  0.00  0.00    +0.000 OA
BRANCH  12  14
ATOM     14  O   UNL     1       7.258   5.462  15.519  0.00  0.00    +0.000 OA
BRANCH  14  16
ATOM     15  C   UNL     1       6.196   3.888  13.916  0.00  0.00    +0.000 C 
ATOM     16  C   UNL     1       7.185   5.020  14.146  0.00  0.00    +0.000 C 
ENDBRANCH  14  16
ENDBRANCH  12  14
ENDBRANCH  11  12
ENDBRANCH   1  11
BRANCH  10  17
ATOM     17  C   UNL     1       4.079   6.251  19.560  0.00  0.00    +0.000 C 
BRANCH  17  18
ATOM     18  C   UNL     1       2.954   7.201  19.180  0.00  0.00    +0.000 A 
ATOM     19  C   UNL     1       2.864   7.734  17.881  0.00  0.00    +0.000 A 
ATOM     20  C   UNL     1       1.991   8.791  17.605  0.00  0.00    +0.000 A 
ATOM     21  C   UNL     1       1.187   9.312  18.613  0.00  0.00    +0.000 A 
ATOM     22  C   UNL     1       1.198   8.725  19.873  0.00  0.00    +0.000 A 
ATOM     23  C   UNL     1       2.063   7.668  20.156  0.00  0.00    +0.000 A 
ENDBRANCH  17  18
ENDBRANCH  10  17
TORSDOF 6
ENDMDL
