MODEL 1
REMARK VINA RESULT:      -6.8      0.000      0.000
REMARK  Name = 
REMARK  9 active torsions:
REMARK  status: ('A' for Active; 'I' for Inactive)
REMARK    1  A    between atoms: CE_1  and  SD_2
REMARK    2  A    between atoms: SD_2  and  CG_3
REMARK    3  A    between atoms: CG_3  and  CB_4
REMARK    4  A    between atoms: CB_4  and  CA_5
REMARK    5  A    between atoms: CA_5  and  N_6
REMARK    6  A    between atoms: CA_5  and  C_20
REMARK    7  A    between atoms: N_9  and  C_10
REMARK    8  A    between atoms: C_14  and  C_15
REMARK    9  A    between atoms: C_20  and  OXT_22
REMARK                            x       y       z     vdW  Elec       q    Type
REMARK                         _______ _______ _______ _____ _____    ______ ____
ROOT
ATOM      1  N   MET A   1       3.669   4.362  19.203  0.00  0.00    +0.000 N 
ATOM      2  C   UNK A   0       2.748   5.352  18.956  0.00  0.00    +0.000 C 
ATOM      3  O   UNK A   0       1.895   5.216  18.087  0.00  0.00    +0.000 OA
ATOM      4  N   UNK A   0       2.945   6.465  19.736  0.00  0.00    +0.000 N 
ATOM      5  H   MET A   1       4.107   4.310  20.116  0.00  0.00    +0.000 HD
ATOM      6  H   UNK A   0       3.850   6.542  20.174  0.00  0.00    +0.000 HD
ENDROOT
BRANCH   4   7
ATOM      7  C   UNK A   0       2.116   7.611  19.743  0.00  0.00    +0.000 A 
ATOM      8  C   UNK A   0       1.955   8.436  18.627  0.00  0.00    +0.000 A 
ATOM      9  C   UNK A   0       1.142   9.566  18.681  0.00  0.00    +0.000 A 
ATOM     10  C   UNK A   0       0.468   9.885  19.853  0.00  0.00    +0.000 A 
ATOM     11  C   UNK A   0       0.596   9.067  20.984  0.00  0.00    +0.000 A 
ATOM     12  C   UNK A   0       1.420   7.925  20.916  0.00  0.00    +0.000 A 
BRANCH  11  13
ATOM     13  C   UNK A   0      -0.132   9.406  22.260  0.00  0.00    +0.000 C 
ATOM     14  F   UNK A   0       0.689   9.536  23.339  0.00  0.00    +0.000 F 
ATOM     15  F   UNK A   0      -0.818  10.579  22.171  0.00  0.00    +0.000 F 
ATOM     16  F   UNK A   0      -1.051   8.460  22.603  0.00  0.00    +0.000 F 
ENDBRANCH  11  13
ENDBRANCH   4   7
BRANCH   1  17
ATOM     17  CA  MET A   1       3.586   3.120  18.426  0.00  0.00    +0.000 C 
BRANCH  17  18
ATOM     18  C   MET A   1       4.254   1.984  19.198  0.00  0.00    +0.000 C 
ATOM     19  O   MET A   1       4.769   2.122  20.302  0.00  0.00    +0.000 OA
BRANCH  18  20
ATOM     20  OXT MET A   1       4.228   0.793  18.556  0.00  0.00    +0.000 OA
ATOM     21  HXT MET A   1       3.346   0.364  18.523  0.00  0.00    +0.000 HD
ENDBRANCH  18  20
ENDBRANCH  17  18
BRANCH  17  22
ATOM     22  CB  MET A   1       4.239   3.323  17.050  0.00  0.00    +0.000 C 
BRANCH  22  23
ATOM     23  CG  MET A   1       5.493   4.197  17.035  0.00  0.00    +0.000 C 
BRANCH  23  25
ATOM     24  CE  MET A   1       6.918   4.772  14.712  0.00  0.00    +0.000 C 
ATOM     25  SD  MET A   1       5.536   5.432  15.692  0.00  0.00    +0.000 S 
ENDBRANCH  23  25
ENDBRANCH  22  23
ENDBRANCH  17  22
ENDBRANCH   1  17
TORSDOF 8
ENDMDL
MODEL 2
REMARK VINA RESULT:      -6.7      7.606      8.531
REMARK  Name = 
REMARK  9 active torsions:
REMARK  status: ('A' for Active; 'I' for Inactive)
REMARK    1  A    between atoms: CE_1  and  SD_2
REMARK    2  A    between atoms: SD_2  and  CG_3
REMARK    3  A    between atoms: CG_3  and  CB_4
REMARK    4  A    between atoms: CB_4  and  CA_5
REMARK    5  A    between atoms: CA_5  and  N_6
REMARK    6  A    between atoms: CA_5  and  C_20
REMARK    7  A    between atoms: N_9  and  C_10
REMARK    8  A    between atoms: C_14  and  C_15
REMARK    9  A    between atoms: C_20  and  OXT_22
REMARK                            x       y       z     vdW  Elec       q    Type
REMARK                         _______ _______ _______ _____ _____    ______ ____
ROOT
ATOM      1  N   MET A   1       7.172   7.619  17.132  0.00  0.00    +0.000 N 
ATOM      2  C   UNK A   0       8.067   8.242  17.968  0.00  0.00    +0.000 C 
ATOM      3  O   UNK A   0       8.683   7.607  18.818  0.00  0.00    +0.000 OA
ATOM      4  N   UNK A   0       8.129   9.598  17.764  0.00  0.00    +0.000 N 
ATOM      5  H   MET A   1       6.958   8.039  16.235  0.00  0.00    +0.000 HD
ATOM      6  H   UNK A   0       7.358  10.002  17.252  0.00  0.00    +0.000 HD
ENDROOT
BRANCH   4   7
ATOM      7  C   UNK A   0       9.005  10.484  18.432  0.00  0.00    +0.000 A 
ATOM      8  C   UNK A   0       9.271  10.396  19.801  0.00  0.00    +0.000 A 
ATOM      9  C   UNK A   0      10.128  11.299  20.425  0.00  0.00    +0.000 A 
ATOM     10  C   UNK A   0      10.742  12.303  19.686  0.00  0.00    +0.000 A 
ATOM     11  C   UNK A   0      10.509  12.406  18.308  0.00  0.00    +0.000 A 
ATOM     12  C   UNK A   0       9.641  11.484  17.687  0.00  0.00    +0.000 A 
BRANCH  11  13
ATOM     13  C   UNK A   0      11.172  13.491  17.499  0.00  0.00    +0.000 C 
ATOM     14  F   UNK A   0      12.332  13.951  18.048  0.00  0.00    +0.000 F 
ATOM     15  F   UNK A   0      11.494  13.079  16.241  0.00  0.00    +0.000 F 
ATOM     16  F   UNK A   0      10.376  14.585  17.342  0.00  0.00    +0.000 F 
ENDBRANCH  11  13
ENDBRANCH   4   7
BRANCH   1  17
ATOM     17  CA  MET A   1       6.992   6.168  17.256  0.00  0.00    +0.000 C 
BRANCH  17  18
ATOM     18  C   MET A   1       6.802   5.553  15.870  0.00  0.00    +0.000 C 
ATOM     19  O   MET A   1       7.549   4.708  15.392  0.00  0.00    +0.000 OA
BRANCH  18  20
ATOM     20  OXT MET A   1       5.723   6.025  15.204  0.00  0.00    +0.000 OA
ATOM     21  HXT MET A   1       5.902   6.312  14.282  0.00  0.00    +0.000 HD
ENDBRANCH  18  20
ENDBRANCH  17  18
BRANCH  17  22
ATOM     22  CB  MET A   1       5.797   5.867  18.173  0.00  0.00    +0.000 C 
BRANCH  22  23
ATOM     23  CG  MET A   1       5.528   4.388  18.445  0.00  0.00    +0.000 C 
BRANCH  23  25
ATOM     24  CE  MET A   1       3.036   5.515  17.917  0.00  0.00    +0.000 C 
ATOM     25  SD  MET A   1       3.765   3.920  18.398  0.00  0.00    +0.000 S 
ENDBRANCH  23  25
ENDBRANCH  22  23
ENDBRANCH  17  22
ENDBRANCH   1  17
TORSDOF 8
ENDMDL
MODEL 3
REMARK VINA RESULT:      -6.7      7.495      8.433
REMARK  Name = 
REMARK  9 active torsions:
REMARK  status: ('A' for Active; 'I' for Inactive)
REMARK    1  A    between atoms: CE_1  and  SD_2
REMARK    2  A    between atoms: SD_2  and  CG_3
REMARK    3  A    between atoms: CG_3  and  CB_4
REMARK    4  A    between atoms: CB_4  and  CA_5
REMARK    5  A    between atoms: CA_5  and  N_6
REMARK    6  A    between atoms: CA_5  and  C_20
REMARK    7  A    between atoms: N_9  and  C_10
REMARK    8  A    between atoms: C_14  and  C_15
REMARK    9  A    between atoms: C_20  and  OXT_22
REMARK                            x       y       z     vdW  Elec       q    Type
REMARK                         _______ _______ _______ _____ _____    ______ ____
ROOT
ATOM      1  N   MET A   1       6.821   7.581  16.992  0.00  0.00    +0.000 N 
ATOM      2  C   UNK A   0       7.745   8.124  17.851  0.00  0.00    +0.000 C 
ATOM      3  O   UNK A   0       8.250   7.451  18.743  0.00  0.00    +0.000 OA
ATOM      4  N   UNK A   0       7.967   9.459  17.616  0.00  0.00    +0.000 N 
ATOM      5  H   MET A   1       6.693   7.995  16.075  0.00  0.00    +0.000 HD
ATOM      6  H   UNK A   0       7.268   9.931  17.061  0.00  0.00    +0.000 HD
ENDROOT
BRANCH   4   7
ATOM      7  C   UNK A   0       8.908  10.262  18.301  0.00  0.00    +0.000 A 
ATOM      8  C   UNK A   0       9.233  10.066  19.646  0.00  0.00    +0.000 A 
ATOM      9  C   UNK A   0      10.154  10.890  20.289  0.00  0.00    +0.000 A 
ATOM     10  C   UNK A   0      10.773  11.921  19.593  0.00  0.00    +0.000 A 
ATOM     11  C   UNK A   0      10.480  12.131  18.238  0.00  0.00    +0.000 A 
ATOM     12  C   UNK A   0       9.548  11.289  17.598  0.00  0.00    +0.000 A 
BRANCH  11  13
ATOM     13  C   UNK A   0      11.148  13.247  17.475  0.00  0.00    +0.000 C 
ATOM     14  F   UNK A   0      11.429  12.931  16.180  0.00  0.00    +0.000 F 
ATOM     15  F   UNK A   0      10.384  14.373  17.426  0.00  0.00    +0.000 F 
ATOM     16  F   UNK A   0      12.333  13.623  18.031  0.00  0.00    +0.000 F 
ENDBRANCH  11  13
ENDBRANCH   4   7
BRANCH   1  17
ATOM     17  CA  MET A   1       6.476   6.162  17.143  0.00  0.00    +0.000 C 
BRANCH  17  18
ATOM     18  C   MET A   1       7.406   5.312  16.279  0.00  0.00    +0.000 C 
ATOM     19  O   MET A   1       8.058   4.367  16.709  0.00  0.00    +0.000 OA
BRANCH  18  20
ATOM     20  OXT MET A   1       7.449   5.690  14.981  0.00  0.00    +0.000 OA
ATOM     21  HXT MET A   1       6.630   5.508  14.473  0.00  0.00    +0.000 HD
ENDBRANCH  18  20
ENDBRANCH  17  18
BRANCH  17  22
ATOM     22  CB  MET A   1       5.003   5.942  16.766  0.00  0.00    +0.000 C 
BRANCH  22  23
ATOM     23  CG  MET A   1       4.486   4.513  16.924  0.00  0.00    +0.000 C 
BRANCH  23  25
ATOM     24  CE  MET A   1       2.617   2.585  17.667  0.00  0.00    +0.000 C 
ATOM     25  SD  MET A   1       2.871   4.383  17.764  0.00  0.00    +0.000 S 
ENDBRANCH  23  25
ENDBRANCH  22  23
ENDBRANCH  17  22
ENDBRANCH   1  17
TORSDOF 8
ENDMDL
MODEL 4
REMARK VINA RESULT:      -6.7      1.313      1.491
REMARK  Name = 
REMARK  9 active torsions:
REMARK  status: ('A' for Active; 'I' for Inactive)
REMARK    1  A    between atoms: CE_1  and  SD_2
REMARK    2  A    between atoms: SD_2  and  CG_3
REMARK    3  A    between atoms: CG_3  and  CB_4
REMARK    4  A    between atoms: CB_4  and  CA_5
REMARK    5  A    between atoms: CA_5  and  N_6
REMARK    6  A    between atoms: CA_5  and  C_20
REMARK    7  A    between atoms: N_9  and  C_10
REMARK    8  A    between atoms: C_14  and  C_15
REMARK    9  A    between atoms: C_20  and  OXT_22
REMARK                            x       y       z     vdW  Elec       q    Type
REMARK                         _______ _______ _______ _____ _____    ______ ____
ROOT
ATOM      1  N   MET A   1       4.096   5.558  17.882  0.00  0.00    +0.000 N 
ATOM      2  C   UNK A   0       2.890   6.178  18.108  0.00  0.00    +0.000 C 
ATOM      3  O   UNK A   0       1.833   5.587  17.922  0.00  0.00    +0.000 OA
ATOM      4  N   UNK A   0       3.033   7.488  18.495  0.00  0.00    +0.000 N 
ATOM      5  H   MET A   1       4.922   5.890  18.367  0.00  0.00    +0.000 HD
ATOM      6  H   UNK A   0       3.932   7.907  18.311  0.00  0.00    +0.000 HD
ENDROOT
BRANCH   4   7
ATOM      7  C   UNK A   0       1.972   8.351  18.855  0.00  0.00    +0.000 A 
ATOM      8  C   UNK A   0       1.330   9.186  17.936  0.00  0.00    +0.000 A 
ATOM      9  C   UNK A   0       0.300  10.034  18.335  0.00  0.00    +0.000 A 
ATOM     10  C   UNK A   0      -0.112  10.055  19.662  0.00  0.00    +0.000 A 
ATOM     11  C   UNK A   0       0.500   9.217  20.603  0.00  0.00    +0.000 A 
ATOM     12  C   UNK A   0       1.541   8.361  20.187  0.00  0.00    +0.000 A 
BRANCH  11  13
ATOM     13  C   UNK A   0       0.058   9.233  22.044  0.00  0.00    +0.000 C 
ATOM     14  F   UNK A   0       1.075   9.034  22.929  0.00  0.00    +0.000 F 
ATOM     15  F   UNK A   0      -0.517  10.416  22.398  0.00  0.00    +0.000 F 
ATOM     16  F   UNK A   0      -0.866   8.271  22.317  0.00  0.00    +0.000 F 
ENDBRANCH  11  13
ENDBRANCH   4   7
BRANCH   1  17
ATOM     17  CA  MET A   1       4.090   4.157  17.445  0.00  0.00    +0.000 C 
BRANCH  17  18
ATOM     18  C   MET A   1       4.423   3.248  18.626  0.00  0.00    +0.000 C 
ATOM     19  O   MET A   1       4.993   3.632  19.641  0.00  0.00    +0.000 OA
BRANCH  18  20
ATOM     20  OXT MET A   1       4.030   1.964  18.459  0.00  0.00    +0.000 OA
ATOM     21  HXT MET A   1       4.466   1.495  17.715  0.00  0.00    +0.000 HD
ENDBRANCH  18  20
ENDBRANCH  17  18
BRANCH  17  22
ATOM     22  CB  MET A   1       5.087   3.968  16.292  0.00  0.00    +0.000 C 
BRANCH  22  23
ATOM     23  CG  MET A   1       6.223   4.988  16.225  0.00  0.00    +0.000 C 
BRANCH  23  25
ATOM     24  CE  MET A   1       7.574   6.229  18.321  0.00  0.00    +0.000 C 
ATOM     25  SD  MET A   1       7.593   4.669  17.387  0.00  0.00    +0.000 S 
ENDBRANCH  23  25
ENDBRANCH  22  23
ENDBRANCH  17  22
ENDBRANCH   1  17
TORSDOF 8
ENDMDL
MODEL 5
REMARK VINA RESULT:      -6.7      1.364      1.520
REMARK  Name = 
REMARK  9 active torsions:
REMARK  status: ('A' for Active; 'I' for Inactive)
REMARK    1  A    between atoms: CE_1  and  SD_2
REMARK    2  A    between atoms: SD_2  and  CG_3
REMARK    3  A    between atoms: CG_3  and  CB_4
REMARK    4  A    between atoms: CB_4  and  CA_5
REMARK    5  A    between atoms: CA_5  and  N_6
REMARK    6  A    between atoms: CA_5  and  C_20
REMARK    7  A    between atoms: N_9  and  C_10
REMARK    8  A    between atoms: C_14  and  C_15
REMARK    9  A    between atoms: C_20  and  OXT_22
REMARK                            x       y       z     vdW  Elec       q    Type
REMARK                         _______ _______ _______ _____ _____    ______ ____
ROOT
ATOM      1  N   MET A   1       4.018   5.949  18.081  0.00  0.00    +0.000 N 
ATOM      2  C   UNK A   0       2.833   6.471  18.539  0.00  0.00    +0.000 C 
ATOM      3  O   UNK A   0       1.940   5.740  18.953  0.00  0.00    +0.000 OA
ATOM      4  N   UNK A   0       2.776   7.838  18.424  0.00  0.00    +0.000 N 
ATOM      5  H   MET A   1       4.852   6.526  18.095  0.00  0.00    +0.000 HD
ATOM      6  H   UNK A   0       3.449   8.256  17.798  0.00  0.00    +0.000 HD
ENDROOT
BRANCH   4   7
ATOM      7  C   UNK A   0       1.708   8.650  18.872  0.00  0.00    +0.000 A 
ATOM      8  C   UNK A   0       0.929   9.421  18.004  0.00  0.00    +0.000 A 
ATOM      9  C   UNK A   0      -0.104  10.221  18.488  0.00  0.00    +0.000 A 
ATOM     10  C   UNK A   0      -0.380  10.256  19.849  0.00  0.00    +0.000 A 
ATOM     11  C   UNK A   0       0.372   9.481  20.741  0.00  0.00    +0.000 A 
ATOM     12  C   UNK A   0       1.414   8.674  20.240  0.00  0.00    +0.000 A 
BRANCH  11  13
ATOM     13  C   UNK A   0       0.078   9.513  22.219  0.00  0.00    +0.000 C 
ATOM     14  F   UNK A   0       1.162   9.234  22.998  0.00  0.00    +0.000 F 
ATOM     15  F   UNK A   0      -0.373  10.730  22.633  0.00  0.00    +0.000 F 
ATOM     16  F   UNK A   0      -0.880   8.615  22.580  0.00  0.00    +0.000 F 
ENDBRANCH  11  13
ENDBRANCH   4   7
BRANCH   1  17
ATOM     17  CA  MET A   1       4.207   4.494  18.130  0.00  0.00    +0.000 C 
BRANCH  17  18
ATOM     18  C   MET A   1       5.272   4.148  19.169  0.00  0.00    +0.000 C 
ATOM     19  O   MET A   1       6.059   4.963  19.634  0.00  0.00    +0.000 OA
BRANCH  18  20
ATOM     20  OXT MET A   1       5.272   2.847  19.542  0.00  0.00    +0.000 OA
ATOM     21  HXT MET A   1       6.015   2.316  19.181  0.00  0.00    +0.000 HD
ENDBRANCH  18  20
ENDBRANCH  17  18
BRANCH  17  22
ATOM     22  CB  MET A   1       4.591   3.972  16.737  0.00  0.00    +0.000 C 
BRANCH  22  23
ATOM     23  CG  MET A   1       5.193   5.006  15.786  0.00  0.00    +0.000 C 
BRANCH  23  25
ATOM     24  CE  MET A   1       6.899   4.524  13.638  0.00  0.00    +0.000 C 
ATOM     25  SD  MET A   1       6.968   4.769  15.438  0.00  0.00    +0.000 S 
ENDBRANCH  23  25
ENDBRANCH  22  23
ENDBRANCH  17  22
ENDBRANCH   1  17
TORSDOF 8
ENDMDL
MODEL 6
REMARK VINA RESULT:      -6.6      3.939      5.194
REMARK  Name = 
REMARK  9 active torsions:
REMARK  status: ('A' for Active; 'I' for Inactive)
REMARK    1  A    between atoms: CE_1  and  SD_2
REMARK    2  A    between atoms: SD_2  and  CG_3
REMARK    3  A    between atoms: CG_3  and  CB_4
REMARK    4  A    between atoms: CB_4  and  CA_5
REMARK    5  A    between atoms: CA_5  and  N_6
REMARK    6  A    between atoms: CA_5  and  C_20
REMARK    7  A    between atoms: N_9  and  C_10
REMARK    8  A    between atoms: C_14  and  C_15
REMARK    9  A    between atoms: C_20  and  OXT_22
REMARK                            x       y       z     vdW  Elec       q    Type
REMARK                         _______ _______ _______ _____ _____    ______ ____
ROOT
ATOM      1  N   MET A   1       4.960   4.591  15.672  0.00  0.00    +0.000 N 
ATOM      2  C   UNK A   0       4.590   4.459  16.989  0.00  0.00    +0.000 C 
ATOM      3  O   UNK A   0       5.282   3.825  17.778  0.00  0.00    +0.000 OA
ATOM      4  N   UNK A   0       3.384   5.056  17.263  0.00  0.00    +0.000 N 
ATOM      5  H   MET A   1       4.616   5.380  15.138  0.00  0.00    +0.000 HD
ATOM      6  H   UNK A   0       2.805   5.267  16.463  0.00  0.00    +0.000 HD
ENDROOT
BRANCH   4   7
ATOM      7  C   UNK A   0       2.786   5.134  18.542  0.00  0.00    +0.000 A 
ATOM      8  C   UNK A   0       2.389   6.344  19.118  0.00  0.00    +0.000 A 
ATOM      9  C   UNK A   0       1.819   6.380  20.389  0.00  0.00    +0.000 A 
ATOM     10  C   UNK A   0       1.627   5.203  21.101  0.00  0.00    +0.000 A 
ATOM     11  C   UNK A   0       1.997   3.973  20.542  0.00  0.00    +0.000 A 
ATOM     12  C   UNK A   0       2.572   3.949  19.254  0.00  0.00    +0.000 A 
BRANCH  11  13
ATOM     13  C   UNK A   0       1.791   2.691  21.307  0.00  0.00    +0.000 C 
ATOM     14  F   UNK A   0       0.799   2.764  22.238  0.00  0.00    +0.000 F 
ATOM     15  F   UNK A   0       1.464   1.647  20.496  0.00  0.00    +0.000 F 
ATOM     16  F   UNK A   0       2.907   2.302  21.984  0.00  0.00    +0.000 F 
ENDBRANCH  11  13
ENDBRANCH   4   7
BRANCH   1  17
ATOM     17  CA  MET A   1       6.223   3.983  15.236  0.00  0.00    +0.000 C 
BRANCH  17  18
ATOM     18  C   MET A   1       7.398   4.786  15.791  0.00  0.00    +0.000 C 
ATOM     19  O   MET A   1       7.731   5.886  15.366  0.00  0.00    +0.000 OA
BRANCH  18  20
ATOM     20  OXT MET A   1       8.051   4.175  16.806  0.00  0.00    +0.000 OA
ATOM     21  HXT MET A   1       8.595   4.773  17.364  0.00  0.00    +0.000 HD
ENDBRANCH  18  20
ENDBRANCH  17  18
BRANCH  17  22
ATOM     22  CB  MET A   1       6.265   3.912  13.703  0.00  0.00    +0.000 C 
BRANCH  22  23
ATOM     23  CG  MET A   1       4.929   3.628  13.017  0.00  0.00    +0.000 C 
BRANCH  23  25
ATOM     24  CE  MET A   1       3.545   3.371  10.613  0.00  0.00    +0.000 C 
ATOM     25  SD  MET A   1       5.072   2.782  11.406  0.00  0.00    +0.000 S 
ENDBRANCH  23  25
ENDBRANCH  22  23
ENDBRANCH  17  22
ENDBRANCH   1  17
TORSDOF 8
ENDMDL
MODEL 7
REMARK VINA RESULT:      -6.6      7.500      8.496
REMARK  Name = 
REMARK  9 active torsions:
REMARK  status: ('A' for Active; 'I' for Inactive)
REMARK    1  A    between atoms: CE_1  and  SD_2
REMARK    2  A    between atoms: SD_2  and  CG_3
REMARK    3  A    between atoms: CG_3  and  CB_4
REMARK    4  A    between atoms: CB_4  and  CA_5
REMARK    5  A    between atoms: CA_5  and  N_6
REMARK    6  A    between atoms: CA_5  and  C_20
REMARK    7  A    between atoms: N_9  and  C_10
REMARK    8  A    between atoms: C_14  and  C_15
REMARK    9  A    between atoms: C_20  and  OXT_22
REMARK                            x       y       z     vdW  Elec       q    Type
REMARK                         _______ _______ _______ _____ _____    ______ ____
ROOT
ATOM      1  N   MET A   1       7.236   7.278  16.971  0.00  0.00    +0.000 N 
ATOM      2  C   UNK A   0       7.991   7.922  17.922  0.00  0.00    +0.000 C 
ATOM      3  O   UNK A   0       8.388   7.330  18.919  0.00  0.00    +0.000 OA
ATOM      4  N   UNK A   0       8.178   9.253  17.639  0.00  0.00    +0.000 N 
ATOM      5  H   MET A   1       7.228   7.633  16.022  0.00  0.00    +0.000 HD
ATOM      6  H   UNK A   0       7.549   9.651  16.957  0.00  0.00    +0.000 HD
ENDROOT
BRANCH   4   7
ATOM      7  C   UNK A   0       8.964  10.146  18.403  0.00  0.00    +0.000 A 
ATOM      8  C   UNK A   0       9.002  10.114  19.800  0.00  0.00    +0.000 A 
ATOM      9  C   UNK A   0       9.777  11.023  20.517  0.00  0.00    +0.000 A 
ATOM     10  C   UNK A   0      10.533  11.976  19.846  0.00  0.00    +0.000 A 
ATOM     11  C   UNK A   0      10.529  12.022  18.446  0.00  0.00    +0.000 A 
ATOM     12  C   UNK A   0       9.743  11.095  17.731  0.00  0.00    +0.000 A 
BRANCH  11  13
ATOM     13  C   UNK A   0      11.348  13.052  17.711  0.00  0.00    +0.000 C 
ATOM     14  F   UNK A   0      10.606  13.875  16.918  0.00  0.00    +0.000 F 
ATOM     15  F   UNK A   0      12.034  13.870  18.556  0.00  0.00    +0.000 F 
ATOM     16  F   UNK A   0      12.281  12.490  16.893  0.00  0.00    +0.000 F 
ENDBRANCH  11  13
ENDBRANCH   4   7
BRANCH   1  17
ATOM     17  CA  MET A   1       6.943   5.852  17.159  0.00  0.00    +0.000 C 
BRANCH  17  18
ATOM     18  C   MET A   1       6.993   5.135  15.811  0.00  0.00    +0.000 C 
ATOM     19  O   MET A   1       6.359   4.118  15.557  0.00  0.00    +0.000 OA
BRANCH  18  20
ATOM     20  OXT MET A   1       7.805   5.726  14.904  0.00  0.00    +0.000 OA
ATOM     21  HXT MET A   1       7.872   5.256  14.045  0.00  0.00    +0.000 HD
ENDBRANCH  18  20
ENDBRANCH  17  18
BRANCH  17  22
ATOM     22  CB  MET A   1       5.573   5.687  17.833  0.00  0.00    +0.000 C 
BRANCH  22  23
ATOM     23  CG  MET A   1       5.540   4.759  19.047  0.00  0.00    +0.000 C 
BRANCH  23  25
ATOM     24  CE  MET A   1       3.041   4.126  20.102  0.00  0.00    +0.000 C 
ATOM     25  SD  MET A   1       4.279   3.443  18.957  0.00  0.00    +0.000 S 
ENDBRANCH  23  25
ENDBRANCH  22  23
ENDBRANCH  17  22
ENDBRANCH   1  17
TORSDOF 8
ENDMDL
MODEL 8
REMARK VINA RESULT:      -6.6      0.864      1.200
REMARK  Name = 
REMARK  9 active torsions:
REMARK  status: ('A' for Active; 'I' for Inactive)
REMARK    1  A    between atoms: CE_1  and  SD_2
REMARK    2  A    between atoms: SD_2  and  CG_3
REMARK    3  A    between atoms: CG_3  and  CB_4
REMARK    4  A    between atoms: CB_4  and  CA_5
REMARK    5  A    between atoms: CA_5  and  N_6
REMARK    6  A    between atoms: CA_5  and  C_20
REMARK    7  A    between atoms: N_9  and  C_10
REMARK    8  A    between atoms: C_14  and  C_15
REMARK    9  A    between atoms: C_20  and  OXT_22
REMARK                            x       y       z     vdW  Elec       q    Type
REMARK                         _______ _______ _______ _____ _____    ______ ____
ROOT
ATOM      1  N   MET A   1       3.642   4.592  19.179  0.00  0.00    +0.000 N 
ATOM      2  C   UNK A   0       2.757   5.614  18.932  0.00  0.00    +0.000 C 
ATOM      3  O   UNK A   0       2.038   5.598  17.939  0.00  0.00    +0.000 OA
ATOM      4  N   UNK A   0       2.828   6.616  19.868  0.00  0.00    +0.000 N 
ATOM      5  H   MET A   1       3.945   4.419  20.131  0.00  0.00    +0.000 HD
ATOM      6  H   UNK A   0       3.661   6.627  20.438  0.00  0.00    +0.000 HD
ENDROOT
BRANCH   4   7
ATOM      7  C   UNK A   0       1.996   7.758  19.904  0.00  0.00    +0.000 A 
ATOM      8  C   UNK A   0       1.825   8.604  18.806  0.00  0.00    +0.000 A 
ATOM      9  C   UNK A   0       1.008   9.730  18.888  0.00  0.00    +0.000 A 
ATOM     10  C   UNK A   0       0.341  10.023  20.071  0.00  0.00    +0.000 A 
ATOM     11  C   UNK A   0       0.479   9.183  21.184  0.00  0.00    +0.000 A 
ATOM     12  C   UNK A   0       1.307   8.046  21.088  0.00  0.00    +0.000 A 
BRANCH  11  13
ATOM     13  C   UNK A   0      -0.243   9.494  22.471  0.00  0.00    +0.000 C 
ATOM     14  F   UNK A   0      -1.169   8.556  22.817  0.00  0.00    +0.000 F 
ATOM     15  F   UNK A   0       0.605   9.587  23.533  0.00  0.00    +0.000 F 
ATOM     16  F   UNK A   0      -0.913  10.678  22.421  0.00  0.00    +0.000 F 
ENDBRANCH  11  13
ENDBRANCH   4   7
BRANCH   1  17
ATOM     17  CA  MET A   1       3.684   3.461  18.244  0.00  0.00    +0.000 C 
BRANCH  17  18
ATOM     18  C   MET A   1       3.960   2.170  19.012  0.00  0.00    +0.000 C 
ATOM     19  O   MET A   1       4.712   2.099  19.977  0.00  0.00    +0.000 OA
BRANCH  18  20
ATOM     20  OXT MET A   1       3.295   1.093  18.532  0.00  0.00    +0.000 OA
ATOM     21  HXT MET A   1       3.629   0.752  17.675  0.00  0.00    +0.000 HD
ENDBRANCH  18  20
ENDBRANCH  17  18
BRANCH  17  22
ATOM     22  CB  MET A   1       4.751   3.715  17.169  0.00  0.00    +0.000 C 
BRANCH  22  23
ATOM     23  CG  MET A   1       5.989   4.482  17.632  0.00  0.00    +0.000 C 
BRANCH  23  25
ATOM     24  CE  MET A   1       7.411   6.867  17.412  0.00  0.00    +0.000 C 
ATOM     25  SD  MET A   1       6.737   5.549  16.355  0.00  0.00    +0.000 S 
ENDBRANCH  23  25
ENDBRANCH  22  23
ENDBRANCH  17  22
ENDBRANCH   1  17
TORSDOF 8
ENDMDL
MODEL 9
REMARK VINA RESULT:      -6.6      5.529      7.927
REMARK  Name = 
REMARK  9 active torsions:
REMARK  status: ('A' for Active; 'I' for Inactive)
REMARK    1  A    between atoms: CE_1  and  SD_2
REMARK    2  A    between atoms: SD_2  and  CG_3
REMARK    3  A    between atoms: CG_3  and  CB_4
REMARK    4  A    between atoms: CB_4  and  CA_5
REMARK    5  A    between atoms: CA_5  and  N_6
REMARK    6  A    between atoms: CA_5  and  C_20
REMARK    7  A    between atoms: N_9  and  C_10
REMARK    8  A    between atoms: C_14  and  C_15
REMARK    9  A    between atoms: C_20  and  OXT_22
REMARK                            x       y       z     vdW  Elec       q    Type
REMARK                         _______ _______ _______ _____ _____    ______ ____
ROOT
ATOM      1  N   MET A   1       2.595   4.484  19.071  0.00  0.00    +0.000 N 
ATOM      2  C   UNK A   0       3.836   4.679  18.516  0.00  0.00    +0.000 C 
ATOM      3  O   UNK A   0       4.789   5.024  19.206  0.00  0.00    +0.000 OA
ATOM      4  N   UNK A   0       3.843   4.496  17.155  0.00  0.00    +0.000 N 
ATOM      5  H   MET A   1       1.936   3.869  18.607  0.00  0.00    +0.000 HD
ATOM      6  H   UNK A   0       2.940   4.515  16.704  0.00  0.00    +0.000 HD
ENDROOT
BRANCH   4   7
ATOM      7  C   UNK A   0       4.988   4.568  16.329  0.00  0.00    +0.000 A 
ATOM      8  C   UNK A   0       6.205   5.098  16.766  0.00  0.00    +0.000 A 
ATOM      9  C   UNK A   0       7.305   5.166  15.915  0.00  0.00    +0.000 A 
ATOM     10  C   UNK A   0       7.209   4.695  14.611  0.00  0.00    +0.000 A 
ATOM     11  C   UNK A   0       6.007   4.142  14.149  0.00  0.00    +0.000 A 
ATOM     12  C   UNK A   0       4.901   4.077  15.021  0.00  0.00    +0.000 A 
BRANCH  11  13
ATOM     13  C   UNK A   0       5.895   3.628  12.736  0.00  0.00    +0.000 C 
ATOM     14  F   UNK A   0       6.768   4.215  11.870  0.00  0.00    +0.000 F 
ATOM     15  F   UNK A   0       6.129   2.289  12.650  0.00  0.00    +0.000 F 
ATOM     16  F   UNK A   0       4.656   3.826  12.206  0.00  0.00    +0.000 F 
ENDBRANCH  11  13
ENDBRANCH   4   7
BRANCH   1  17
ATOM     17  CA  MET A   1       2.441   4.664  20.520  0.00  0.00    +0.000 C 
BRANCH  17  18
ATOM     18  C   MET A   1       1.839   3.402  21.135  0.00  0.00    +0.000 C 
ATOM     19  O   MET A   1       2.360   2.776  22.050  0.00  0.00    +0.000 OA
BRANCH  18  20
ATOM     20  OXT MET A   1       0.664   3.026  20.578  0.00  0.00    +0.000 OA
ATOM     21  HXT MET A   1      -0.064   3.676  20.680  0.00  0.00    +0.000 HD
ENDBRANCH  18  20
ENDBRANCH  17  18
BRANCH  17  22
ATOM     22  CB  MET A   1       1.568   5.896  20.801  0.00  0.00    +0.000 C 
BRANCH  22  23
ATOM     23  CG  MET A   1       2.027   7.197  20.143  0.00  0.00    +0.000 C 
BRANCH  23  25
ATOM     24  CE  MET A   1       1.044   9.627  19.201  0.00  0.00    +0.000 C 
ATOM     25  SD  MET A   1       1.180   8.693  20.755  0.00  0.00    +0.000 S 
ENDBRANCH  23  25
ENDBRANCH  22  23
ENDBRANCH  17  22
ENDBRANCH   1  17
TORSDOF 8
ENDMDL
