MODEL 1
REMARK VINA RESULT:     -10.4      0.000      0.000
REMARK  Name = 
REMARK  6 active torsions:
REMARK  status: ('A' for Active; 'I' for Inactive)
REMARK    1  A    between atoms: C_6  and  C_7
REMARK    2  A    between atoms: C_7  and  N_8
REMARK    3  A    between atoms: C_13  and  N_14
REMARK    4  A    between atoms: C_22  and  C_23
REMARK    5  A    between atoms: C_23  and  N_24
REMARK    6  A    between atoms: N_24  and  C_25
REMARK                            x       y       z     vdW  Elec       q    Type
REMARK                         _______ _______ _______ _____ _____    ______ ____
ROOT
ATOM      1  N   UNL     1       2.999   6.333  18.956  0.00  0.00    +0.000 N 
ATOM      2  C   UNL     1       2.505   5.104  19.343  0.00  0.00    +0.000 A 
ATOM      3  N   UNL     1       1.595   5.042  20.280  0.00  0.00    +0.000 NA
ATOM      4  C   UNL     1       1.122   3.836  20.710  0.00  0.00    +0.000 A 
ATOM      5  N   UNL     1       1.471   2.669  20.280  0.00  0.00    +0.000 NA
ATOM      6  N   UNL     1       2.396   2.715  19.310  0.00  0.00    +0.000 N 
ATOM      7  C   UNL     1       2.887   1.619  18.670  0.00  0.00    +0.000 A 
ATOM      8  C   UNL     1       3.772   2.045  17.713  0.00  0.00    +0.000 A 
ATOM      9  C   UNL     1       3.817   3.478  17.763  0.00  0.00    +0.000 A 
ATOM     10  C   UNL     1       2.954   3.854  18.790  0.00  0.00    +0.000 A 
ATOM     11  H   UNL     1       3.905   6.349  18.492  0.00  0.00    +0.000 HD
ENDROOT
BRANCH   1  17
ATOM     12  N   UNL     1      -0.126  10.851  19.712  0.00  0.00    +0.000 N 
ATOM     13  N   UNL     1      -0.481  10.760  21.021  0.00  0.00    +0.000 NA
ATOM     14  C   UNL     1       0.194   9.692  21.449  0.00  0.00    +0.000 A 
ATOM     15  C   UNL     1       0.948   9.067  20.431  0.00  0.00    +0.000 A 
ATOM     16  C   UNL     1       1.781   7.928  20.342  0.00  0.00    +0.000 A 
ATOM     17  C   UNL     1       2.310   7.555  19.094  0.00  0.00    +0.000 A 
ATOM     18  C   UNL     1       2.032   8.358  17.978  0.00  0.00    +0.000 A 
ATOM     19  C   UNL     1       1.252   9.518  18.052  0.00  0.00    +0.000 A 
ATOM     20  C   UNL     1       0.703   9.835  19.298  0.00  0.00    +0.000 A 
BRANCH  12  21
ATOM     21  C   UNL     1      -0.679  11.925  18.894  0.00  0.00    +0.000 C 
BRANCH  21  27
ATOM     22  F   UNL     1      -3.430   9.621  15.563  0.00  0.00    +0.000 F 
ATOM     23  C   UNL     1      -3.358  10.404  16.647  0.00  0.00    +0.000 A 
ATOM     24  C   UNL     1      -4.529  10.877  17.226  0.00  0.00    +0.000 A 
ATOM     25  C   UNL     1      -4.454  11.683  18.360  0.00  0.00    +0.000 A 
ATOM     26  C   UNL     1      -3.208  12.010  18.899  0.00  0.00    +0.000 A 
ATOM     27  C   UNL     1      -2.021  11.548  18.306  0.00  0.00    +0.000 A 
ATOM     28  C   UNL     1      -2.109  10.727  17.174  0.00  0.00    +0.000 A 
ENDBRANCH  21  27
ENDBRANCH  12  21
ENDBRANCH   1  17
BRANCH   9  29
ATOM     29  C   UNL     1       4.607   4.274  16.772  0.00  0.00    +0.000 C 
BRANCH  29  30
ATOM     30  N   UNL     1       5.376   5.347  17.409  0.00  0.00    +0.000 NA
ATOM     31  H   UNL     1       5.315   5.211  18.422  0.00  0.00    +0.000 HD
BRANCH  30  32
ATOM     32  C   UNL     1       6.803   5.264  16.998  0.00  0.00    +0.000 C 
ATOM     33  C   UNL     1       7.754   4.733  18.090  0.00  0.00    +0.000 C 
ATOM     34  C   UNL     1       7.863   5.705  19.262  0.00  0.00    +0.000 C 
ATOM     35  N   UNL     1       8.338   7.017  18.823  0.00  0.00    +0.000 NA
ATOM     36  C   UNL     1       7.484   7.588  17.777  0.00  0.00    +0.000 C 
ATOM     37  C   UNL     1       7.316   6.653  16.580  0.00  0.00    +0.000 C 
ATOM     38  H   UNL     1       9.289   6.922  18.464  0.00  0.00    +0.000 HD
ENDBRANCH  30  32
ENDBRANCH  29  30
ENDBRANCH   9  29
TORSDOF 6
ENDMDL
MODEL 2
REMARK VINA RESULT:     -10.1      1.143      1.541
REMARK  Name = 
REMARK  6 active torsions:
REMARK  status: ('A' for Active; 'I' for Inactive)
REMARK    1  A    between atoms: C_6  and  C_7
REMARK    2  A    between atoms: C_7  and  N_8
REMARK    3  A    between atoms: C_13  and  N_14
REMARK    4  A    between atoms: C_22  and  C_23
REMARK    5  A    between atoms: C_23  and  N_24
REMARK    6  A    between atoms: N_24  and  C_25
REMARK                            x       y       z     vdW  Elec       q    Type
REMARK                         _______ _______ _______ _____ _____    ______ ____
ROOT
ATOM      1  N   UNL     1       2.961   6.208  20.050  0.00  0.00    +0.000 N 
ATOM      2  C   UNL     1       2.375   4.965  19.923  0.00  0.00    +0.000 A 
ATOM      3  N   UNL     1       1.098   4.827  20.169  0.00  0.00    +0.000 NA
ATOM      4  C   UNL     1       0.504   3.600  20.091  0.00  0.00    +0.000 A 
ATOM      5  N   UNL     1       1.072   2.483  19.777  0.00  0.00    +0.000 NA
ATOM      6  N   UNL     1       2.381   2.609  19.511  0.00  0.00    +0.000 N 
ATOM      7  C   UNL     1       3.182   1.583  19.115  0.00  0.00    +0.000 A 
ATOM      8  C   UNL     1       4.437   2.085  18.888  0.00  0.00    +0.000 A 
ATOM      9  C   UNL     1       4.400   3.495  19.148  0.00  0.00    +0.000 A 
ATOM     10  C   UNL     1       3.097   3.776  19.553  0.00  0.00    +0.000 A 
ATOM     11  H   UNL     1       3.970   6.239  20.182  0.00  0.00    +0.000 HD
ENDROOT
BRANCH   1  17
ATOM     12  N   UNL     1      -0.184  10.768  19.807  0.00  0.00    +0.000 N 
ATOM     13  N   UNL     1      -0.724  10.831  21.053  0.00  0.00    +0.000 NA
ATOM     14  C   UNL     1      -0.131   9.826  21.697  0.00  0.00    +0.000 A 
ATOM     15  C   UNL     1       0.754   9.088  20.880  0.00  0.00    +0.000 A 
ATOM     16  C   UNL     1       1.577   7.951  21.047  0.00  0.00    +0.000 A 
ATOM     17  C   UNL     1       2.274   7.434  19.942  0.00  0.00    +0.000 A 
ATOM     18  C   UNL     1       2.169   8.097  18.710  0.00  0.00    +0.000 A 
ATOM     19  C   UNL     1       1.401   9.254  18.533  0.00  0.00    +0.000 A 
ATOM     20  C   UNL     1       0.683   9.715  19.640  0.00  0.00    +0.000 A 
BRANCH  12  21
ATOM     21  C   UNL     1      -0.600  11.734  18.797  0.00  0.00    +0.000 C 
BRANCH  21  27
ATOM     22  F   UNL     1      -3.181   9.278  15.438  0.00  0.00    +0.000 F 
ATOM     23  C   UNL     1      -3.163  10.120  16.480  0.00  0.00    +0.000 A 
ATOM     24  C   UNL     1      -4.359  10.639  16.960  0.00  0.00    +0.000 A 
ATOM     25  C   UNL     1      -4.340  11.506  18.049  0.00  0.00    +0.000 A 
ATOM     26  C   UNL     1      -3.125  11.848  18.644  0.00  0.00    +0.000 A 
ATOM     27  C   UNL     1      -1.911  11.340  18.151  0.00  0.00    +0.000 A 
ATOM     28  C   UNL     1      -1.944  10.458  17.063  0.00  0.00    +0.000 A 
ENDBRANCH  21  27
ENDBRANCH  12  21
ENDBRANCH   1  17
BRANCH   9  29
ATOM     29  C   UNL     1       5.584   4.372  18.890  0.00  0.00    +0.000 C 
BRANCH  29  30
ATOM     30  N   UNL     1       6.299   3.993  17.667  0.00  0.00    +0.000 NA
ATOM     31  H   UNL     1       5.599   3.704  16.978  0.00  0.00    +0.000 HD
BRANCH  30  32
ATOM     32  C   UNL     1       7.047   5.163  17.131  0.00  0.00    +0.000 C 
ATOM     33  C   UNL     1       6.409   6.530  17.450  0.00  0.00    +0.000 C 
ATOM     34  C   UNL     1       5.072   6.708  16.734  0.00  0.00    +0.000 C 
ATOM     35  N   UNL     1       5.226   6.588  15.284  0.00  0.00    +0.000 NA
ATOM     36  C   UNL     1       5.833   5.309  14.900  0.00  0.00    +0.000 C 
ATOM     37  C   UNL     1       7.168   5.059  15.602  0.00  0.00    +0.000 C 
ATOM     38  H   UNL     1       5.814   7.351  14.948  0.00  0.00    +0.000 HD
ENDBRANCH  30  32
ENDBRANCH  29  30
ENDBRANCH   9  29
TORSDOF 6
ENDMDL
MODEL 3
REMARK VINA RESULT:     -10.0      1.336      1.884
REMARK  Name = 
REMARK  6 active torsions:
REMARK  status: ('A' for Active; 'I' for Inactive)
REMARK    1  A    between atoms: C_6  and  C_7
REMARK    2  A    between atoms: C_7  and  N_8
REMARK    3  A    between atoms: C_13  and  N_14
REMARK    4  A    between atoms: C_22  and  C_23
REMARK    5  A    between atoms: C_23  and  N_24
REMARK    6  A    between atoms: N_24  and  C_25
REMARK                            x       y       z     vdW  Elec       q    Type
REMARK                         _______ _______ _______ _____ _____    ______ ____
ROOT
ATOM      1  N   UNL     1       2.983   6.277  20.074  0.00  0.00    +0.000 N 
ATOM      2  C   UNL     1       2.420   5.024  19.947  0.00  0.00    +0.000 A 
ATOM      3  N   UNL     1       1.139   4.869  20.162  0.00  0.00    +0.000 NA
ATOM      4  C   UNL     1       0.567   3.632  20.084  0.00  0.00    +0.000 A 
ATOM      5  N   UNL     1       1.160   2.521  19.798  0.00  0.00    +0.000 NA
ATOM      6  N   UNL     1       2.472   2.663  19.564  0.00  0.00    +0.000 N 
ATOM      7  C   UNL     1       3.299   1.646  19.201  0.00  0.00    +0.000 A 
ATOM      8  C   UNL     1       4.552   2.164  19.000  0.00  0.00    +0.000 A 
ATOM      9  C   UNL     1       4.486   3.577  19.242  0.00  0.00    +0.000 A 
ATOM     10  C   UNL     1       3.169   3.842  19.611  0.00  0.00    +0.000 A 
ATOM     11  H   UNL     1       3.988   6.325  20.231  0.00  0.00    +0.000 HD
ENDROOT
BRANCH   1  17
ATOM     12  N   UNL     1      -0.221  10.787  19.708  0.00  0.00    +0.000 N 
ATOM     13  N   UNL     1      -0.769  10.872  20.949  0.00  0.00    +0.000 NA
ATOM     14  C   UNL     1      -0.166   9.891  21.620  0.00  0.00    +0.000 A 
ATOM     15  C   UNL     1       0.733   9.145  20.825  0.00  0.00    +0.000 A 
ATOM     16  C   UNL     1       1.570   8.024  21.023  0.00  0.00    +0.000 A 
ATOM     17  C   UNL     1       2.281   7.491  19.934  0.00  0.00    +0.000 A 
ATOM     18  C   UNL     1       2.174   8.124  18.686  0.00  0.00    +0.000 A 
ATOM     19  C   UNL     1       1.391   9.266  18.479  0.00  0.00    +0.000 A 
ATOM     20  C   UNL     1       0.661   9.742  19.571  0.00  0.00    +0.000 A 
BRANCH  12  21
ATOM     21  C   UNL     1      -0.645  11.724  18.673  0.00  0.00    +0.000 C 
BRANCH  21  27
ATOM     22  F   UNL     1      -5.524  11.889  18.307  0.00  0.00    +0.000 F 
ATOM     23  C   UNL     1      -4.358  11.394  17.872  0.00  0.00    +0.000 A 
ATOM     24  C   UNL     1      -4.352  10.476  16.829  0.00  0.00    +0.000 A 
ATOM     25  C   UNL     1      -3.139   9.970  16.371  0.00  0.00    +0.000 A 
ATOM     26  C   UNL     1      -1.945  10.384  16.964  0.00  0.00    +0.000 A 
ATOM     27  C   UNL     1      -1.947  11.298  18.031  0.00  0.00    +0.000 A 
ATOM     28  C   UNL     1      -3.173  11.811  18.474  0.00  0.00    +0.000 A 
ENDBRANCH  21  27
ENDBRANCH  12  21
ENDBRANCH   1  17
BRANCH   9  29
ATOM     29  C   UNL     1       5.663   4.469  19.004  0.00  0.00    +0.000 C 
BRANCH  29  30
ATOM     30  N   UNL     1       6.451   4.050  17.840  0.00  0.00    +0.000 NA
ATOM     31  H   UNL     1       5.801   3.659  17.153  0.00  0.00    +0.000 HD
BRANCH  30  32
ATOM     32  C   UNL     1       7.138   5.225  17.240  0.00  0.00    +0.000 C 
ATOM     33  C   UNL     1       6.440   6.576  17.500  0.00  0.00    +0.000 C 
ATOM     34  C   UNL     1       5.089   6.656  16.793  0.00  0.00    +0.000 C 
ATOM     35  N   UNL     1       5.233   6.473  15.348  0.00  0.00    +0.000 NA
ATOM     36  C   UNL     1       5.896   5.207  15.020  0.00  0.00    +0.000 C 
ATOM     37  C   UNL     1       7.248   5.053  15.716  0.00  0.00    +0.000 C 
ATOM     38  H   UNL     1       5.782   7.246  14.969  0.00  0.00    +0.000 HD
ENDBRANCH  30  32
ENDBRANCH  29  30
ENDBRANCH   9  29
TORSDOF 6
ENDMDL
MODEL 4
REMARK VINA RESULT:     -10.0      2.968      3.609
REMARK  Name = 
REMARK  6 active torsions:
REMARK  status: ('A' for Active; 'I' for Inactive)
REMARK    1  A    between atoms: C_6  and  C_7
REMARK    2  A    between atoms: C_7  and  N_8
REMARK    3  A    between atoms: C_13  and  N_14
REMARK    4  A    between atoms: C_22  and  C_23
REMARK    5  A    between atoms: C_23  and  N_24
REMARK    6  A    between atoms: N_24  and  C_25
REMARK                            x       y       z     vdW  Elec       q    Type
REMARK                         _______ _______ _______ _____ _____    ______ ____
ROOT
ATOM      1  N   UNL     1       2.591   6.998  19.675  0.00  0.00    +0.000 N 
ATOM      2  C   UNL     1       2.158   5.689  19.634  0.00  0.00    +0.000 A 
ATOM      3  N   UNL     1       1.258   5.281  20.490  0.00  0.00    +0.000 NA
ATOM      4  C   UNL     1       0.845   3.979  20.496  0.00  0.00    +0.000 A 
ATOM      5  N   UNL     1       1.246   3.035  19.711  0.00  0.00    +0.000 NA
ATOM      6  N   UNL     1       2.162   3.439  18.819  0.00  0.00    +0.000 N 
ATOM      7  C   UNL     1       2.701   2.638  17.860  0.00  0.00    +0.000 A 
ATOM      8  C   UNL     1       3.559   3.394  17.105  0.00  0.00    +0.000 A 
ATOM      9  C   UNL     1       3.536   4.732  17.622  0.00  0.00    +0.000 A 
ATOM     10  C   UNL     1       2.662   4.710  18.706  0.00  0.00    +0.000 A 
ATOM     11  H   UNL     1       3.493   7.207  19.251  0.00  0.00    +0.000 HD
ENDROOT
BRANCH   1  17
ATOM     12  N   UNL     1      -0.671  10.856  21.961  0.00  0.00    +0.000 N 
ATOM     13  N   UNL     1      -0.716  10.480  23.266  0.00  0.00    +0.000 NA
ATOM     14  C   UNL     1       0.128   9.449  23.320  0.00  0.00    +0.000 A 
ATOM     15  C   UNL     1       0.688   9.124  22.065  0.00  0.00    +0.000 A 
ATOM     16  C   UNL     1       1.577   8.140  21.576  0.00  0.00    +0.000 A 
ATOM     17  C   UNL     1       1.846   8.074  20.199  0.00  0.00    +0.000 A 
ATOM     18  C   UNL     1       1.258   9.026  19.352  0.00  0.00    +0.000 A 
ATOM     19  C   UNL     1       0.416  10.041  19.820  0.00  0.00    +0.000 A 
ATOM     20  C   UNL     1       0.131  10.050  21.188  0.00  0.00    +0.000 A 
BRANCH  12  21
ATOM     21  C   UNL     1      -1.483  11.980  21.511  0.00  0.00    +0.000 C 
BRANCH  21  27
ATOM     22  F   UNL     1      -5.043  12.602  24.813  0.00  0.00    +0.000 F 
ATOM     23  C   UNL     1      -3.879  13.010  24.292  0.00  0.00    +0.000 A 
ATOM     24  C   UNL     1      -3.249  14.130  24.822  0.00  0.00    +0.000 A 
ATOM     25  C   UNL     1      -2.034  14.548  24.286  0.00  0.00    +0.000 A 
ATOM     26  C   UNL     1      -1.464  13.844  23.223  0.00  0.00    +0.000 A 
ATOM     27  C   UNL     1      -2.106  12.722  22.673  0.00  0.00    +0.000 A 
ATOM     28  C   UNL     1      -3.322  12.303  23.229  0.00  0.00    +0.000 A 
ENDBRANCH  21  27
ENDBRANCH  12  21
ENDBRANCH   1  17
BRANCH   9  29
ATOM     29  C   UNL     1       4.282   5.844  16.954  0.00  0.00    +0.000 C 
BRANCH  29  30
ATOM     30  N   UNL     1       5.221   6.508  17.864  0.00  0.00    +0.000 NA
ATOM     31  H   UNL     1       5.351   5.895  18.673  0.00  0.00    +0.000 HD
BRANCH  30  32
ATOM     32  C   UNL     1       6.533   6.700  17.189  0.00  0.00    +0.000 C 
ATOM     33  C   UNL     1       6.855   5.652  16.104  0.00  0.00    +0.000 C 
ATOM     34  C   UNL     1       7.057   4.263  16.706  0.00  0.00    +0.000 C 
ATOM     35  N   UNL     1       8.136   4.263  17.693  0.00  0.00    +0.000 NA
ATOM     36  C   UNL     1       7.904   5.242  18.760  0.00  0.00    +0.000 C 
ATOM     37  C   UNL     1       7.672   6.654  18.222  0.00  0.00    +0.000 C 
ATOM     38  H   UNL     1       9.015   4.483  17.224  0.00  0.00    +0.000 HD
ENDBRANCH  30  32
ENDBRANCH  29  30
ENDBRANCH   9  29
TORSDOF 6
ENDMDL
MODEL 5
REMARK VINA RESULT:      -9.8      3.114      3.752
REMARK  Name = 
REMARK  6 active torsions:
REMARK  status: ('A' for Active; 'I' for Inactive)
REMARK    1  A    between atoms: C_6  and  C_7
REMARK    2  A    between atoms: C_7  and  N_8
REMARK    3  A    between atoms: C_13  and  N_14
REMARK    4  A    between atoms: C_22  and  C_23
REMARK    5  A    between atoms: C_23  and  N_24
REMARK    6  A    between atoms: N_24  and  C_25
REMARK                            x       y       z     vdW  Elec       q    Type
REMARK                         _______ _______ _______ _____ _____    ______ ____
ROOT
ATOM      1  N   UNL     1       2.574   7.099  19.675  0.00  0.00    +0.000 N 
ATOM      2  C   UNL     1       2.178   5.777  19.644  0.00  0.00    +0.000 A 
ATOM      3  N   UNL     1       1.300   5.348  20.513  0.00  0.00    +0.000 NA
ATOM      4  C   UNL     1       0.924   4.036  20.530  0.00  0.00    +0.000 A 
ATOM      5  N   UNL     1       1.341   3.100  19.743  0.00  0.00    +0.000 NA
ATOM      6  N   UNL     1       2.235   3.526  18.838  0.00  0.00    +0.000 N 
ATOM      7  C   UNL     1       2.783   2.736  17.875  0.00  0.00    +0.000 A 
ATOM      8  C   UNL     1       3.610   3.512  17.106  0.00  0.00    +0.000 A 
ATOM      9  C   UNL     1       3.557   4.851  17.618  0.00  0.00    +0.000 A 
ATOM     10  C   UNL     1       2.697   4.809  18.714  0.00  0.00    +0.000 A 
ATOM     11  H   UNL     1       3.465   7.331  19.238  0.00  0.00    +0.000 HD
ENDROOT
BRANCH   1  17
ATOM     12  N   UNL     1      -0.769  10.873  21.982  0.00  0.00    +0.000 N 
ATOM     13  N   UNL     1      -0.802  10.492  23.287  0.00  0.00    +0.000 NA
ATOM     14  C   UNL     1       0.065   9.481  23.335  0.00  0.00    +0.000 A 
ATOM     15  C   UNL     1       0.630   9.173  22.077  0.00  0.00    +0.000 A 
ATOM     16  C   UNL     1       1.539   8.211  21.583  0.00  0.00    +0.000 A 
ATOM     17  C   UNL     1       1.806   8.155  20.204  0.00  0.00    +0.000 A 
ATOM     18  C   UNL     1       1.194   9.096  19.362  0.00  0.00    +0.000 A 
ATOM     19  C   UNL     1       0.330  10.090  19.835  0.00  0.00    +0.000 A 
ATOM     20  C   UNL     1       0.049  10.088  21.205  0.00  0.00    +0.000 A 
BRANCH  12  21
ATOM     21  C   UNL     1      -1.608  11.980  21.538  0.00  0.00    +0.000 C 
BRANCH  21  27
ATOM     22  F   UNL     1      -0.783  15.536  24.801  0.00  0.00    +0.000 F 
ATOM     23  C   UNL     1      -1.610  14.610  24.298  0.00  0.00    +0.000 A 
ATOM     24  C   UNL     1      -2.873  14.449  24.856  0.00  0.00    +0.000 A 
ATOM     25  C   UNL     1      -3.736  13.492  24.327  0.00  0.00    +0.000 A 
ATOM     26  C   UNL     1      -3.326  12.705  23.250  0.00  0.00    +0.000 A 
ATOM     27  C   UNL     1      -2.044  12.852  22.695  0.00  0.00    +0.000 A 
ATOM     28  C   UNL     1      -1.188  13.827  23.227  0.00  0.00    +0.000 A 
ENDBRANCH  21  27
ENDBRANCH  12  21
ENDBRANCH   1  17
BRANCH   9  29
ATOM     29  C   UNL     1       4.262   5.981  16.936  0.00  0.00    +0.000 C 
BRANCH  29  30
ATOM     30  N   UNL     1       5.201   6.668  17.829  0.00  0.00    +0.000 NA
ATOM     31  H   UNL     1       5.310   6.089  18.666  0.00  0.00    +0.000 HD
BRANCH  30  32
ATOM     32  C   UNL     1       6.525   6.809  17.164  0.00  0.00    +0.000 C 
ATOM     33  C   UNL     1       6.920   5.618  16.268  0.00  0.00    +0.000 C 
ATOM     34  C   UNL     1       7.158   4.352  17.088  0.00  0.00    +0.000 C 
ATOM     35  N   UNL     1       8.206   4.555  18.088  0.00  0.00    +0.000 NA
ATOM     36  C   UNL     1       7.903   5.680  18.980  0.00  0.00    +0.000 C 
ATOM     37  C   UNL     1       7.632   6.977  18.218  0.00  0.00    +0.000 C 
ATOM     38  H   UNL     1       9.090   4.737  17.611  0.00  0.00    +0.000 HD
ENDBRANCH  30  32
ENDBRANCH  29  30
ENDBRANCH   9  29
TORSDOF 6
ENDMDL
MODEL 6
REMARK VINA RESULT:      -9.8      2.024      2.811
REMARK  Name = 
REMARK  6 active torsions:
REMARK  status: ('A' for Active; 'I' for Inactive)
REMARK    1  A    between atoms: C_6  and  C_7
REMARK    2  A    between atoms: C_7  and  N_8
REMARK    3  A    between atoms: C_13  and  N_14
REMARK    4  A    between atoms: C_22  and  C_23
REMARK    5  A    between atoms: C_23  and  N_24
REMARK    6  A    between atoms: N_24  and  C_25
REMARK                            x       y       z     vdW  Elec       q    Type
REMARK                         _______ _______ _______ _____ _____    ______ ____
ROOT
ATOM      1  N   UNL     1       2.986   6.356  18.927  0.00  0.00    +0.000 N 
ATOM      2  C   UNL     1       2.481   5.145  19.351  0.00  0.00    +0.000 A 
ATOM      3  N   UNL     1       1.572   5.119  20.291  0.00  0.00    +0.000 NA
ATOM      4  C   UNL     1       1.087   3.931  20.757  0.00  0.00    +0.000 A 
ATOM      5  N   UNL     1       1.423   2.748  20.359  0.00  0.00    +0.000 NA
ATOM      6  N   UNL     1       2.346   2.756  19.387  0.00  0.00    +0.000 N 
ATOM      7  C   UNL     1       2.824   1.638  18.777  0.00  0.00    +0.000 A 
ATOM      8  C   UNL     1       3.711   2.026  17.807  0.00  0.00    +0.000 A 
ATOM      9  C   UNL     1       3.771   3.459  17.816  0.00  0.00    +0.000 A 
ATOM     10  C   UNL     1       2.915   3.874  18.833  0.00  0.00    +0.000 A 
ATOM     11  H   UNL     1       3.892   6.349  18.461  0.00  0.00    +0.000 HD
ENDROOT
BRANCH   1  17
ATOM     12  N   UNL     1      -0.086  10.928  19.563  0.00  0.00    +0.000 N 
ATOM     13  N   UNL     1      -0.430  10.883  20.877  0.00  0.00    +0.000 NA
ATOM     14  C   UNL     1       0.238   9.823  21.334  0.00  0.00    +0.000 A 
ATOM     15  C   UNL     1       0.976   9.157  20.331  0.00  0.00    +0.000 A 
ATOM     16  C   UNL     1       1.797   8.008  20.271  0.00  0.00    +0.000 A 
ATOM     17  C   UNL     1       2.311   7.589  19.032  0.00  0.00    +0.000 A 
ATOM     18  C   UNL     1       2.031   8.358  17.892  0.00  0.00    +0.000 A 
ATOM     19  C   UNL     1       1.264   9.528  17.936  0.00  0.00    +0.000 A 
ATOM     20  C   UNL     1       0.729   9.891  19.175  0.00  0.00    +0.000 A 
BRANCH  12  21
ATOM     21  C   UNL     1      -0.635  11.980  18.715  0.00  0.00    +0.000 C 
BRANCH  21  27
ATOM     22  F   UNL     1       3.572  14.380  17.998  0.00  0.00    +0.000 F 
ATOM     23  C   UNL     1       2.295  14.399  18.406  0.00  0.00    +0.000 A 
ATOM     24  C   UNL     1       1.750  15.583  18.886  0.00  0.00    +0.000 A 
ATOM     25  C   UNL     1       0.421  15.605  19.301  0.00  0.00    +0.000 A 
ATOM     26  C   UNL     1      -0.347  14.441  19.234  0.00  0.00    +0.000 A 
ATOM     27  C   UNL     1       0.205  13.237  18.766  0.00  0.00    +0.000 A 
ATOM     28  C   UNL     1       1.540  13.230  18.339  0.00  0.00    +0.000 A 
ENDBRANCH  21  27
ENDBRANCH  12  21
ENDBRANCH   1  17
BRANCH   9  29
ATOM     29  C   UNL     1       4.567   4.218  16.800  0.00  0.00    +0.000 C 
BRANCH  29  30
ATOM     30  N   UNL     1       5.332   5.314  17.402  0.00  0.00    +0.000 NA
ATOM     31  H   UNL     1       5.261   5.219  18.418  0.00  0.00    +0.000 HD
BRANCH  30  32
ATOM     32  C   UNL     1       6.763   5.213  17.008  0.00  0.00    +0.000 C 
ATOM     33  C   UNL     1       7.699   4.702  18.123  0.00  0.00    +0.000 C 
ATOM     34  C   UNL     1       7.801   5.702  19.272  0.00  0.00    +0.000 C 
ATOM     35  N   UNL     1       8.290   7.000  18.807  0.00  0.00    +0.000 NA
ATOM     36  C   UNL     1       7.451   7.551  17.737  0.00  0.00    +0.000 C 
ATOM     37  C   UNL     1       7.289   6.587  16.562  0.00  0.00    +0.000 C 
ATOM     38  H   UNL     1       9.243   6.890  18.460  0.00  0.00    +0.000 HD
ENDBRANCH  30  32
ENDBRANCH  29  30
ENDBRANCH   9  29
TORSDOF 6
ENDMDL
MODEL 7
REMARK VINA RESULT:      -9.7      1.063      1.524
REMARK  Name = 
REMARK  6 active torsions:
REMARK  status: ('A' for Active; 'I' for Inactive)
REMARK    1  A    between atoms: C_6  and  C_7
REMARK    2  A    between atoms: C_7  and  N_8
REMARK    3  A    between atoms: C_13  and  N_14
REMARK    4  A    between atoms: C_22  and  C_23
REMARK    5  A    between atoms: C_23  and  N_24
REMARK    6  A    between atoms: N_24  and  C_25
REMARK                            x       y       z     vdW  Elec       q    Type
REMARK                         _______ _______ _______ _____ _____    ______ ____
ROOT
ATOM      1  N   UNL     1       2.970   6.105  19.536  0.00  0.00    +0.000 N 
ATOM      2  C   UNL     1       2.332   4.887  19.654  0.00  0.00    +0.000 A 
ATOM      3  N   UNL     1       1.176   4.821  20.260  0.00  0.00    +0.000 NA
ATOM      4  C   UNL     1       0.545   3.622  20.426  0.00  0.00    +0.000 A 
ATOM      5  N   UNL     1       0.963   2.466  20.028  0.00  0.00    +0.000 NA
ATOM      6  N   UNL     1       2.144   2.516  19.394  0.00  0.00    +0.000 N 
ATOM      7  C   UNL     1       2.764   1.436  18.846  0.00  0.00    +0.000 A 
ATOM      8  C   UNL     1       3.917   1.867  18.242  0.00  0.00    +0.000 A 
ATOM      9  C   UNL     1       4.001   3.288  18.421  0.00  0.00    +0.000 A 
ATOM     10  C   UNL     1       2.879   3.649  19.163  0.00  0.00    +0.000 A 
ATOM     11  H   UNL     1       3.975   6.094  19.374  0.00  0.00    +0.000 HD
ENDROOT
BRANCH   1  17
ATOM     12  N   UNL     1      -0.012  10.769  19.839  0.00  0.00    +0.000 N 
ATOM     13  N   UNL     1      -0.410  10.792  21.139  0.00  0.00    +0.000 NA
ATOM     14  C   UNL     1       0.213   9.739  21.670  0.00  0.00    +0.000 A 
ATOM     15  C   UNL     1       0.975   9.012  20.729  0.00  0.00    +0.000 A 
ATOM     16  C   UNL     1       1.769   7.843  20.755  0.00  0.00    +0.000 A 
ATOM     17  C   UNL     1       2.322   7.356  19.558  0.00  0.00    +0.000 A 
ATOM     18  C   UNL     1       2.107   8.079  18.375  0.00  0.00    +0.000 A 
ATOM     19  C   UNL     1       1.367   9.266  18.334  0.00  0.00    +0.000 A 
ATOM     20  C   UNL     1       0.792   9.698  19.533  0.00  0.00    +0.000 A 
BRANCH  12  21
ATOM     21  C   UNL     1      -0.501  11.794  18.924  0.00  0.00    +0.000 C 
BRANCH  21  27
ATOM     22  F   UNL     1      -5.377  12.219  19.015  0.00  0.00    +0.000 F 
ATOM     23  C   UNL     1      -4.283  11.683  18.458  0.00  0.00    +0.000 A 
ATOM     24  C   UNL     1      -4.421  10.807  17.389  0.00  0.00    +0.000 A 
ATOM     25  C   UNL     1      -3.283  10.258  16.804  0.00  0.00    +0.000 A 
ATOM     26  C   UNL     1      -2.020  10.588  17.298  0.00  0.00    +0.000 A 
ATOM     27  C   UNL     1      -1.876  11.459  18.390  0.00  0.00    +0.000 A 
ATOM     28  C   UNL     1      -3.028  12.016  18.962  0.00  0.00    +0.000 A 
ENDBRANCH  21  27
ENDBRANCH  12  21
ENDBRANCH   1  17
BRANCH   9  29
ATOM     29  C   UNL     1       5.090   4.095  17.786  0.00  0.00    +0.000 C 
BRANCH  29  30
ATOM     30  N   UNL     1       5.755   4.981  18.746  0.00  0.00    +0.000 NA
ATOM     31  H   UNL     1       5.564   4.619  19.684  0.00  0.00    +0.000 HD
BRANCH  30  32
ATOM     32  C   UNL     1       7.226   4.969  18.516  0.00  0.00    +0.000 C 
ATOM     33  C   UNL     1       7.926   6.316  18.785  0.00  0.00    +0.000 C 
ATOM     34  C   UNL     1       7.500   7.382  17.779  0.00  0.00    +0.000 C 
ATOM     35  N   UNL     1       7.793   6.967  16.407  0.00  0.00    +0.000 NA
ATOM     36  C   UNL     1       7.162   5.685  16.076  0.00  0.00    +0.000 C 
ATOM     37  C   UNL     1       7.531   4.576  17.061  0.00  0.00    +0.000 C 
ATOM     38  H   UNL     1       8.804   6.880  16.295  0.00  0.00    +0.000 HD
ENDBRANCH  30  32
ENDBRANCH  29  30
ENDBRANCH   9  29
TORSDOF 6
ENDMDL
MODEL 8
REMARK VINA RESULT:      -9.7      1.499      2.015
REMARK  Name = 
REMARK  6 active torsions:
REMARK  status: ('A' for Active; 'I' for Inactive)
REMARK    1  A    between atoms: C_6  and  C_7
REMARK    2  A    between atoms: C_7  and  N_8
REMARK    3  A    between atoms: C_13  and  N_14
REMARK    4  A    between atoms: C_22  and  C_23
REMARK    5  A    between atoms: C_23  and  N_24
REMARK    6  A    between atoms: N_24  and  C_25
REMARK                            x       y       z     vdW  Elec       q    Type
REMARK                         _______ _______ _______ _____ _____    ______ ____
ROOT
ATOM      1  N   UNL     1       2.948   6.096  20.202  0.00  0.00    +0.000 N 
ATOM      2  C   UNL     1       2.367   4.857  20.029  0.00  0.00    +0.000 A 
ATOM      3  N   UNL     1       1.073   4.728  20.162  0.00  0.00    +0.000 NA
ATOM      4  C   UNL     1       0.480   3.504  20.037  0.00  0.00    +0.000 A 
ATOM      5  N   UNL     1       1.066   2.382  19.778  0.00  0.00    +0.000 NA
ATOM      6  N   UNL     1       2.394   2.498  19.628  0.00  0.00    +0.000 N 
ATOM      7  C   UNL     1       3.220   1.466  19.307  0.00  0.00    +0.000 A 
ATOM      8  C   UNL     1       4.493   1.959  19.189  0.00  0.00    +0.000 A 
ATOM      9  C   UNL     1       4.443   3.370  19.440  0.00  0.00    +0.000 A 
ATOM     10  C   UNL     1       3.111   3.662  19.728  0.00  0.00    +0.000 A 
ATOM     11  H   UNL     1       3.942   6.121  20.422  0.00  0.00    +0.000 HD
ENDROOT
BRANCH   1  17
ATOM     12  N   UNL     1      -0.125  10.684  19.704  0.00  0.00    +0.000 N 
ATOM     13  N   UNL     1      -0.697  10.801  20.931  0.00  0.00    +0.000 NA
ATOM     14  C   UNL     1      -0.136   9.813  21.629  0.00  0.00    +0.000 A 
ATOM     15  C   UNL     1       0.760   9.033  20.864  0.00  0.00    +0.000 A 
ATOM     16  C   UNL     1       1.562   7.893  21.095  0.00  0.00    +0.000 A 
ATOM     17  C   UNL     1       2.282   7.326  20.030  0.00  0.00    +0.000 A 
ATOM     18  C   UNL     1       2.219   7.944  18.772  0.00  0.00    +0.000 A 
ATOM     19  C   UNL     1       1.472   9.103  18.531  0.00  0.00    +0.000 A 
ATOM     20  C   UNL     1       0.731   9.614  19.600  0.00  0.00    +0.000 A 
BRANCH  12  21
ATOM     21  C   UNL     1      -0.501  11.617  18.647  0.00  0.00    +0.000 C 
BRANCH  21  27
ATOM     22  F   UNL     1      -5.339  12.122  18.089  0.00  0.00    +0.000 F 
ATOM     23  C   UNL     1      -4.204  11.498  17.746  0.00  0.00    +0.000 A 
ATOM     24  C   UNL     1      -4.242  10.486  16.795  0.00  0.00    +0.000 A 
ATOM     25  C   UNL     1      -3.060   9.845  16.432  0.00  0.00    +0.000 A 
ATOM     26  C   UNL     1      -1.854  10.221  17.026  0.00  0.00    +0.000 A 
ATOM     27  C   UNL     1      -1.813  11.232  18.001  0.00  0.00    +0.000 A 
ATOM     28  C   UNL     1      -3.007  11.879  18.349  0.00  0.00    +0.000 A 
ENDBRANCH  21  27
ENDBRANCH  12  21
ENDBRANCH   1  17
BRANCH   9  29
ATOM     29  C   UNL     1       5.651   4.239  19.284  0.00  0.00    +0.000 C 
BRANCH  29  30
ATOM     30  N   UNL     1       6.291   4.068  17.976  0.00  0.00    +0.000 NA
ATOM     31  H   UNL     1       6.794   3.177  17.993  0.00  0.00    +0.000 HD
BRANCH  30  32
ATOM     32  C   UNL     1       5.258   4.017  16.906  0.00  0.00    +0.000 C 
ATOM     33  C   UNL     1       5.804   3.666  15.507  0.00  0.00    +0.000 C 
ATOM     34  C   UNL     1       6.708   4.769  14.963  0.00  0.00    +0.000 C 
ATOM     35  N   UNL     1       6.000   6.047  14.884  0.00  0.00    +0.000 NA
ATOM     36  C   UNL     1       5.445   6.448  16.181  0.00  0.00    +0.000 C 
ATOM     37  C   UNL     1       4.546   5.375  16.793  0.00  0.00    +0.000 C 
ATOM     38  H   UNL     1       5.240   5.964  14.207  0.00  0.00    +0.000 HD
ENDBRANCH  30  32
ENDBRANCH  29  30
ENDBRANCH   9  29
TORSDOF 6
ENDMDL
MODEL 9
REMARK VINA RESULT:      -9.7      0.843      1.051
REMARK  Name = 
REMARK  6 active torsions:
REMARK  status: ('A' for Active; 'I' for Inactive)
REMARK    1  A    between atoms: C_6  and  C_7
REMARK    2  A    between atoms: C_7  and  N_8
REMARK    3  A    between atoms: C_13  and  N_14
REMARK    4  A    between atoms: C_22  and  C_23
REMARK    5  A    between atoms: C_23  and  N_24
REMARK    6  A    between atoms: N_24  and  C_25
REMARK                            x       y       z     vdW  Elec       q    Type
REMARK                         _______ _______ _______ _____ _____    ______ ____
ROOT
ATOM      1  N   UNL     1       2.966   6.112  18.970  0.00  0.00    +0.000 N 
ATOM      2  C   UNL     1       2.516   4.928  19.515  0.00  0.00    +0.000 A 
ATOM      3  N   UNL     1       1.753   4.955  20.576  0.00  0.00    +0.000 NA
ATOM      4  C   UNL     1       1.329   3.795  21.158  0.00  0.00    +0.000 A 
ATOM      5  N   UNL     1       1.592   2.592  20.769  0.00  0.00    +0.000 NA
ATOM      6  N   UNL     1       2.366   2.545  19.674  0.00  0.00    +0.000 N 
ATOM      7  C   UNL     1       2.739   1.395  19.051  0.00  0.00    +0.000 A 
ATOM      8  C   UNL     1       3.481   1.728  17.947  0.00  0.00    +0.000 A 
ATOM      9  C   UNL     1       3.555   3.160  17.885  0.00  0.00    +0.000 A 
ATOM     10  C   UNL     1       2.859   3.629  18.996  0.00  0.00    +0.000 A 
ATOM     11  H   UNL     1       3.795   6.072  18.380  0.00  0.00    +0.000 HD
ENDROOT
BRANCH   1  17
ATOM     12  N   UNL     1       0.023  10.743  19.770  0.00  0.00    +0.000 N 
ATOM     13  N   UNL     1      -0.304  10.671  21.088  0.00  0.00    +0.000 NA
ATOM     14  C   UNL     1       0.342   9.582  21.507  0.00  0.00    +0.000 A 
ATOM     15  C   UNL     1       1.049   8.925  20.476  0.00  0.00    +0.000 A 
ATOM     16  C   UNL     1       1.839   7.757  20.374  0.00  0.00    +0.000 A 
ATOM     17  C   UNL     1       2.325   7.359  19.117  0.00  0.00    +0.000 A 
ATOM     18  C   UNL     1       2.050   8.166  18.003  0.00  0.00    +0.000 A 
ATOM     19  C   UNL     1       1.314   9.353  18.088  0.00  0.00    +0.000 A 
ATOM     20  C   UNL     1       0.806   9.696  19.344  0.00  0.00    +0.000 A 
BRANCH  12  21
ATOM     21  C   UNL     1      -0.510  11.831  18.959  0.00  0.00    +0.000 C 
BRANCH  21  27
ATOM     22  F   UNL     1      -3.359   9.571  15.682  0.00  0.00    +0.000 F 
ATOM     23  C   UNL     1      -3.254  10.367  16.754  0.00  0.00    +0.000 A 
ATOM     24  C   UNL     1      -4.404  10.888  17.333  0.00  0.00    +0.000 A 
ATOM     25  C   UNL     1      -4.295  11.708  18.453  0.00  0.00    +0.000 A 
ATOM     26  C   UNL     1      -3.035  12.001  18.979  0.00  0.00    +0.000 A 
ATOM     27  C   UNL     1      -1.868  11.491  18.386  0.00  0.00    +0.000 A 
ATOM     28  C   UNL     1      -1.992  10.656  17.267  0.00  0.00    +0.000 A 
ENDBRANCH  21  27
ENDBRANCH  12  21
ENDBRANCH   1  17
BRANCH   9  29
ATOM     29  C   UNL     1       4.203   3.862  16.733  0.00  0.00    +0.000 C 
BRANCH  29  30
ATOM     30  N   UNL     1       5.658   3.677  16.718  0.00  0.00    +0.000 NA
ATOM     31  H   UNL     1       5.842   2.703  16.464  0.00  0.00    +0.000 HD
BRANCH  30  32
ATOM     32  C   UNL     1       6.273   4.567  15.696  0.00  0.00    +0.000 C 
ATOM     33  C   UNL     1       7.600   5.220  16.133  0.00  0.00    +0.000 C 
ATOM     34  C   UNL     1       7.389   6.216  17.271  0.00  0.00    +0.000 C 
ATOM     35  N   UNL     1       6.450   7.270  16.888  0.00  0.00    +0.000 NA
ATOM     36  C   UNL     1       5.160   6.725  16.454  0.00  0.00    +0.000 C 
ATOM     37  C   UNL     1       5.303   5.702  15.328  0.00  0.00    +0.000 C 
ATOM     38  H   UNL     1       6.856   7.815  16.126  0.00  0.00    +0.000 HD
ENDBRANCH  30  32
ENDBRANCH  29  30
ENDBRANCH   9  29
TORSDOF 6
ENDMDL
