MODEL 1
REMARK VINA RESULT:      -8.8      0.000      0.000
REMARK  Name = 
REMARK  7 active torsions:
REMARK  status: ('A' for Active; 'I' for Inactive)
REMARK    1  A    between atoms: C_2  and  C_3
REMARK    2  A    between atoms: C_4  and  C_5
REMARK    3  A    between atoms: C_8  and  C_9
REMARK    4  A    between atoms: C_16  and  N_17
REMARK    5  A    between atoms: N_17  and  C_18
REMARK    6  A    between atoms: C_18  and  C_19
REMARK    7  A    between atoms: C_19  and  N_20
REMARK                            x       y       z     vdW  Elec       q    Type
REMARK                         _______ _______ _______ _____ _____    ______ ____
ROOT
ATOM      1  C   UNL     1       2.268   7.166  19.712  0.00  0.00    +0.000 A 
ATOM      2  C   UNL     1       2.774   7.551  18.510  0.00  0.00    +0.000 A 
ATOM      3  C   UNL     1       2.451   8.880  17.987  0.00  0.00    +0.000 A 
ATOM      4  C   UNL     1       1.659   9.738  18.667  0.00  0.00    +0.000 A 
ATOM      5  N   UNL     1       1.178   9.319  19.936  0.00  0.00    +0.000 N 
ATOM      6  C   UNL     1       1.461   8.059  20.475  0.00  0.00    +0.000 A 
ATOM      7  N   UNL     1       0.900   7.887  21.652  0.00  0.00    +0.000 NA
ATOM      8  C   UNL     1       0.227   9.048  21.910  0.00  0.00    +0.000 A 
ATOM      9  C   UNL     1      -0.541   9.378  23.035  0.00  0.00    +0.000 A 
ATOM     10  C   UNL     1      -1.149  10.635  23.098  0.00  0.00    +0.000 A 
ATOM     11  C   UNL     1      -0.992  11.547  22.054  0.00  0.00    +0.000 A 
ATOM     12  C   UNL     1      -0.231  11.233  20.919  0.00  0.00    +0.000 A 
ATOM     13  C   UNL     1       0.374   9.965  20.871  0.00  0.00    +0.000 A 
ENDROOT
BRANCH   2  14
ATOM     14  C   UNL     1       3.608   6.609  17.721  0.00  0.00    +0.000 A 
ATOM     15  C   UNL     1       4.808   7.046  17.144  0.00  0.00    +0.000 A 
ATOM     16  C   UNL     1       5.556   6.189  16.327  0.00  0.00    +0.000 A 
ATOM     17  C   UNL     1       5.123   4.880  16.073  0.00  0.00    +0.000 A 
ATOM     18  C   UNL     1       3.945   4.430  16.691  0.00  0.00    +0.000 A 
ATOM     19  C   UNL     1       3.193   5.289  17.506  0.00  0.00    +0.000 A 
BRANCH  17  20
ATOM     20  C   UNL     1       5.889   3.974  15.136  0.00  0.00    +0.000 C 
ATOM     21  F   UNL     1       5.923   2.673  15.543  0.00  0.00    +0.000 F 
ATOM     22  F   UNL     1       5.365   3.955  13.879  0.00  0.00    +0.000 F 
ATOM     23  F   UNL     1       7.190   4.350  14.992  0.00  0.00    +0.000 F 
ENDBRANCH  17  20
ENDBRANCH   2  14
BRANCH   1  25
ATOM     24  N   UNL     1       2.836   4.640  20.727  0.00  0.00    +0.000 NA
ATOM     25  C   UNL     1       2.578   5.785  20.267  0.00  0.00    +0.000 C 
ENDBRANCH   1  25
BRANCH   4  26
ATOM     26  N   UNL     1       1.255  10.971  18.147  0.00  0.00    +0.000 N 
ATOM     27  H   UNL     1       0.411  11.313  18.621  0.00  0.00    +0.000 HD
BRANCH  26  28
ATOM     28  C   UNL     1       2.221  12.079  18.049  0.00  0.00    +0.000 C 
BRANCH  28  29
ATOM     29  C   UNL     1       2.225  12.959  19.315  0.00  0.00    +0.000 C 
BRANCH  29  30
ATOM     30  N   UNL     1       2.620  14.375  19.118  0.00  0.00    +0.000 NA
ATOM     31  C   UNL     1       3.699  14.526  18.124  0.00  0.00    +0.000 C 
ATOM     32  C   UNL     1       4.094  15.996  17.953  0.00  0.00    +0.000 C 
ATOM     33  C   UNL     1       2.896  16.855  17.564  0.00  0.00    +0.000 C 
ATOM     34  C   UNL     1       1.750  16.632  18.541  0.00  0.00    +0.000 C 
ATOM     35  C   UNL     1       1.432  15.144  18.688  0.00  0.00    +0.000 C 
ENDBRANCH  29  30
ENDBRANCH  28  29
ENDBRANCH  26  28
ENDBRANCH   4  26
TORSDOF 7
ENDMDL
MODEL 2
REMARK VINA RESULT:      -8.8      0.566      1.113
REMARK  Name = 
REMARK  7 active torsions:
REMARK  status: ('A' for Active; 'I' for Inactive)
REMARK    1  A    between atoms: C_2  and  C_3
REMARK    2  A    between atoms: C_4  and  C_5
REMARK    3  A    between atoms: C_8  and  C_9
REMARK    4  A    between atoms: C_16  and  N_17
REMARK    5  A    between atoms: N_17  and  C_18
REMARK    6  A    between atoms: C_18  and  C_19
REMARK    7  A    between atoms: C_19  and  N_20
REMARK                            x       y       z     vdW  Elec       q    Type
REMARK                         _______ _______ _______ _____ _____    ______ ____
ROOT
ATOM      1  C   UNL     1       2.236   7.211  19.721  0.00  0.00    +0.000 A 
ATOM      2  C   UNL     1       2.761   7.591  18.526  0.00  0.00    +0.000 A 
ATOM      3  C   UNL     1       2.463   8.926  18.003  0.00  0.00    +0.000 A 
ATOM      4  C   UNL     1       1.677   9.794  18.675  0.00  0.00    +0.000 A 
ATOM      5  N   UNL     1       1.176   9.379  19.938  0.00  0.00    +0.000 N 
ATOM      6  C   UNL     1       1.434   8.114  20.478  0.00  0.00    +0.000 A 
ATOM      7  N   UNL     1       0.859   7.948  21.647  0.00  0.00    +0.000 NA
ATOM      8  C   UNL     1       0.200   9.118  21.901  0.00  0.00    +0.000 A 
ATOM      9  C   UNL     1      -0.575   9.457  23.019  0.00  0.00    +0.000 A 
ATOM     10  C   UNL     1      -1.165  10.723  23.078  0.00  0.00    +0.000 A 
ATOM     11  C   UNL     1      -0.983  11.635  22.038  0.00  0.00    +0.000 A 
ATOM     12  C   UNL     1      -0.214  11.312  20.911  0.00  0.00    +0.000 A 
ATOM     13  C   UNL     1       0.372  10.035  20.866  0.00  0.00    +0.000 A 
ENDROOT
BRANCH   2  14
ATOM     14  C   UNL     1       3.589   6.639  17.743  0.00  0.00    +0.000 A 
ATOM     15  C   UNL     1       4.788   7.066  17.157  0.00  0.00    +0.000 A 
ATOM     16  C   UNL     1       5.531   6.199  16.347  0.00  0.00    +0.000 A 
ATOM     17  C   UNL     1       5.093   4.888  16.108  0.00  0.00    +0.000 A 
ATOM     18  C   UNL     1       3.917   4.448  16.734  0.00  0.00    +0.000 A 
ATOM     19  C   UNL     1       3.170   5.317  17.544  0.00  0.00    +0.000 A 
BRANCH  17  20
ATOM     20  C   UNL     1       5.854   3.970  15.178  0.00  0.00    +0.000 C 
ATOM     21  F   UNL     1       5.834   2.663  15.566  0.00  0.00    +0.000 F 
ATOM     22  F   UNL     1       5.362   3.987  13.907  0.00  0.00    +0.000 F 
ATOM     23  F   UNL     1       7.170   4.305  15.073  0.00  0.00    +0.000 F 
ENDBRANCH  17  20
ENDBRANCH   2  14
BRANCH   1  25
ATOM     24  N   UNL     1       2.755   4.674  20.736  0.00  0.00    +0.000 NA
ATOM     25  C   UNL     1       2.520   5.825  20.275  0.00  0.00    +0.000 C 
ENDBRANCH   1  25
BRANCH   4  26
ATOM     26  N   UNL     1       1.297  11.034  18.155  0.00  0.00    +0.000 N 
ATOM     27  H   UNL     1       0.467  11.398  18.636  0.00  0.00    +0.000 HD
BRANCH  26  28
ATOM     28  C   UNL     1       2.288  12.118  18.041  0.00  0.00    +0.000 C 
BRANCH  28  29
ATOM     29  C   UNL     1       2.046  13.237  19.072  0.00  0.00    +0.000 C 
BRANCH  29  30
ATOM     30  N   UNL     1       1.517  14.513  18.532  0.00  0.00    +0.000 NA
ATOM     31  C   UNL     1       0.275  14.938  19.203  0.00  0.00    +0.000 C 
ATOM     32  C   UNL     1      -0.254  16.249  18.614  0.00  0.00    +0.000 C 
ATOM     33  C   UNL     1       0.790  17.356  18.689  0.00  0.00    +0.000 C 
ATOM     34  C   UNL     1       2.101  16.886  18.075  0.00  0.00    +0.000 C 
ATOM     35  C   UNL     1       2.551  15.559  18.684  0.00  0.00    +0.000 C 
ENDBRANCH  29  30
ENDBRANCH  28  29
ENDBRANCH  26  28
ENDBRANCH   4  26
TORSDOF 7
ENDMDL
MODEL 3
REMARK VINA RESULT:      -8.8      0.470      1.161
REMARK  Name = 
REMARK  7 active torsions:
REMARK  status: ('A' for Active; 'I' for Inactive)
REMARK    1  A    between atoms: C_2  and  C_3
REMARK    2  A    between atoms: C_4  and  C_5
REMARK    3  A    between atoms: C_8  and  C_9
REMARK    4  A    between atoms: C_16  and  N_17
REMARK    5  A    between atoms: N_17  and  C_18
REMARK    6  A    between atoms: C_18  and  C_19
REMARK    7  A    between atoms: C_19  and  N_20
REMARK                            x       y       z     vdW  Elec       q    Type
REMARK                         _______ _______ _______ _____ _____    ______ ____
ROOT
ATOM      1  C   UNL     1       2.268   7.178  19.706  0.00  0.00    +0.000 A 
ATOM      2  C   UNL     1       2.770   7.550  18.499  0.00  0.00    +0.000 A 
ATOM      3  C   UNL     1       2.444   8.874  17.963  0.00  0.00    +0.000 A 
ATOM      4  C   UNL     1       1.654   9.738  18.636  0.00  0.00    +0.000 A 
ATOM      5  N   UNL     1       1.176   9.331  19.911  0.00  0.00    +0.000 N 
ATOM      6  C   UNL     1       1.462   8.077  20.462  0.00  0.00    +0.000 A 
ATOM      7  N   UNL     1       0.906   7.918  21.642  0.00  0.00    +0.000 NA
ATOM      8  C   UNL     1       0.233   9.081  21.891  0.00  0.00    +0.000 A 
ATOM      9  C   UNL     1      -0.532   9.422  23.015  0.00  0.00    +0.000 A 
ATOM     10  C   UNL     1      -1.141  10.679  23.066  0.00  0.00    +0.000 A 
ATOM     11  C   UNL     1      -0.988  11.580  22.012  0.00  0.00    +0.000 A 
ATOM     12  C   UNL     1      -0.230  11.255  20.878  0.00  0.00    +0.000 A 
ATOM     13  C   UNL     1       0.376   9.987  20.841  0.00  0.00    +0.000 A 
ENDROOT
BRANCH   2  14
ATOM     14  C   UNL     1       3.602   6.601  17.717  0.00  0.00    +0.000 A 
ATOM     15  C   UNL     1       4.809   7.027  17.147  0.00  0.00    +0.000 A 
ATOM     16  C   UNL     1       5.556   6.164  16.337  0.00  0.00    +0.000 A 
ATOM     17  C   UNL     1       5.116   4.857  16.083  0.00  0.00    +0.000 A 
ATOM     18  C   UNL     1       3.931   4.418  16.693  0.00  0.00    +0.000 A 
ATOM     19  C   UNL     1       3.179   5.283  17.502  0.00  0.00    +0.000 A 
BRANCH  17  20
ATOM     20  C   UNL     1       5.881   3.944  15.153  0.00  0.00    +0.000 C 
ATOM     21  F   UNL     1       7.196   4.281  15.018  0.00  0.00    +0.000 F 
ATOM     22  F   UNL     1       5.873   2.646  15.568  0.00  0.00    +0.000 F 
ATOM     23  F   UNL     1       5.370   3.935  13.890  0.00  0.00    +0.000 F 
ENDBRANCH  17  20
ENDBRANCH   2  14
BRANCH   1  25
ATOM     24  N   UNL     1       2.841   4.663  20.745  0.00  0.00    +0.000 NA
ATOM     25  C   UNL     1       2.581   5.803  20.274  0.00  0.00    +0.000 C 
ENDBRANCH   1  25
BRANCH   4  26
ATOM     26  N   UNL     1       1.247  10.965  18.105  0.00  0.00    +0.000 N 
ATOM     27  H   UNL     1       0.379  11.289  18.546  0.00  0.00    +0.000 HD
BRANCH  26  28
ATOM     28  C   UNL     1       2.195  12.091  18.048  0.00  0.00    +0.000 C 
BRANCH  28  29
ATOM     29  C   UNL     1       1.557  13.411  18.524  0.00  0.00    +0.000 C 
BRANCH  29  30
ATOM     30  N   UNL     1       2.358  14.638  18.291  0.00  0.00    +0.000 NA
ATOM     31  C   UNL     1       2.070  15.695  19.279  0.00  0.00    +0.000 C 
ATOM     32  C   UNL     1       2.901  16.952  19.004  0.00  0.00    +0.000 C 
ATOM     33  C   UNL     1       4.393  16.642  18.984  0.00  0.00    +0.000 C 
ATOM     34  C   UNL     1       4.679  15.491  18.030  0.00  0.00    +0.000 C 
ATOM     35  C   UNL     1       3.793  14.285  18.340  0.00  0.00    +0.000 C 
ENDBRANCH  29  30
ENDBRANCH  28  29
ENDBRANCH  26  28
ENDBRANCH   4  26
TORSDOF 7
ENDMDL
MODEL 4
REMARK VINA RESULT:      -8.7      1.159      1.753
REMARK  Name = 
REMARK  7 active torsions:
REMARK  status: ('A' for Active; 'I' for Inactive)
REMARK    1  A    between atoms: C_2  and  C_3
REMARK    2  A    between atoms: C_4  and  C_5
REMARK    3  A    between atoms: C_8  and  C_9
REMARK    4  A    between atoms: C_16  and  N_17
REMARK    5  A    between atoms: N_17  and  C_18
REMARK    6  A    between atoms: C_18  and  C_19
REMARK    7  A    between atoms: C_19  and  N_20
REMARK                            x       y       z     vdW  Elec       q    Type
REMARK                         _______ _______ _______ _____ _____    ______ ____
ROOT
ATOM      1  C   UNL     1       2.251   7.191  19.716  0.00  0.00    +0.000 A 
ATOM      2  C   UNL     1       2.781   7.578  18.526  0.00  0.00    +0.000 A 
ATOM      3  C   UNL     1       2.488   8.917  18.011  0.00  0.00    +0.000 A 
ATOM      4  C   UNL     1       1.701   9.782  18.686  0.00  0.00    +0.000 A 
ATOM      5  N   UNL     1       1.194   9.359  19.945  0.00  0.00    +0.000 N 
ATOM      6  C   UNL     1       1.448   8.090  20.476  0.00  0.00    +0.000 A 
ATOM      7  N   UNL     1       0.868   7.917  21.643  0.00  0.00    +0.000 NA
ATOM      8  C   UNL     1       0.211   9.087  21.902  0.00  0.00    +0.000 A 
ATOM      9  C   UNL     1      -0.568   9.420  23.019  0.00  0.00    +0.000 A 
ATOM     10  C   UNL     1      -1.156  10.686  23.085  0.00  0.00    +0.000 A 
ATOM     11  C   UNL     1      -0.968  11.605  22.052  0.00  0.00    +0.000 A 
ATOM     12  C   UNL     1      -0.196  11.289  20.925  0.00  0.00    +0.000 A 
ATOM     13  C   UNL     1       0.388  10.011  20.874  0.00  0.00    +0.000 A 
ENDROOT
BRANCH   2  14
ATOM     14  C   UNL     1       3.610   6.629  17.740  0.00  0.00    +0.000 A 
ATOM     15  C   UNL     1       4.826   7.050  17.186  0.00  0.00    +0.000 A 
ATOM     16  C   UNL     1       5.572   6.188  16.372  0.00  0.00    +0.000 A 
ATOM     17  C   UNL     1       5.120   4.889  16.098  0.00  0.00    +0.000 A 
ATOM     18  C   UNL     1       3.925   4.455  16.693  0.00  0.00    +0.000 A 
ATOM     19  C   UNL     1       3.176   5.318  17.505  0.00  0.00    +0.000 A 
BRANCH  17  20
ATOM     20  C   UNL     1       5.884   3.979  15.164  0.00  0.00    +0.000 C 
ATOM     21  F   UNL     1       5.383   3.954  13.896  0.00  0.00    +0.000 F 
ATOM     22  F   UNL     1       7.193   4.337  15.038  0.00  0.00    +0.000 F 
ATOM     23  F   UNL     1       5.891   2.683  15.584  0.00  0.00    +0.000 F 
ENDBRANCH  17  20
ENDBRANCH   2  14
BRANCH   1  25
ATOM     24  N   UNL     1       2.761   4.646  20.715  0.00  0.00    +0.000 NA
ATOM     25  C   UNL     1       2.529   5.800  20.262  0.00  0.00    +0.000 C 
ENDBRANCH   1  25
BRANCH   4  26
ATOM     26  N   UNL     1       1.326  11.026  18.173  0.00  0.00    +0.000 N 
ATOM     27  H   UNL     1       0.420  11.324  18.552  0.00  0.00    +0.000 HD
BRANCH  26  28
ATOM     28  C   UNL     1       2.261  12.162  18.242  0.00  0.00    +0.000 C 
BRANCH  28  29
ATOM     29  C   UNL     1       1.548  13.515  18.045  0.00  0.00    +0.000 C 
BRANCH  29  30
ATOM     30  N   UNL     1       1.492  14.396  19.237  0.00  0.00    +0.000 NA
ATOM     31  C   UNL     1       0.113  14.624  19.705  0.00  0.00    +0.000 C 
ATOM     32  C   UNL     1       0.087  15.548  20.926  0.00  0.00    +0.000 C 
ATOM     33  C   UNL     1       0.944  15.000  22.060  0.00  0.00    +0.000 C 
ATOM     34  C   UNL     1       2.344  14.681  21.555  0.00  0.00    +0.000 C 
ATOM     35  C   UNL     1       2.294  13.785  20.318  0.00  0.00    +0.000 C 
ENDBRANCH  29  30
ENDBRANCH  28  29
ENDBRANCH  26  28
ENDBRANCH   4  26
TORSDOF 7
ENDMDL
MODEL 5
REMARK VINA RESULT:      -8.7      1.134      1.351
REMARK  Name = 
REMARK  7 active torsions:
REMARK  status: ('A' for Active; 'I' for Inactive)
REMARK    1  A    between atoms: C_2  and  C_3
REMARK    2  A    between atoms: C_4  and  C_5
REMARK    3  A    between atoms: C_8  and  C_9
REMARK    4  A    between atoms: C_16  and  N_17
REMARK    5  A    between atoms: N_17  and  C_18
REMARK    6  A    between atoms: C_18  and  C_19
REMARK    7  A    between atoms: C_19  and  N_20
REMARK                            x       y       z     vdW  Elec       q    Type
REMARK                         _______ _______ _______ _____ _____    ______ ____
ROOT
ATOM      1  C   UNL     1       2.272   7.165  19.682  0.00  0.00    +0.000 A 
ATOM      2  C   UNL     1       2.777   7.557  18.483  0.00  0.00    +0.000 A 
ATOM      3  C   UNL     1       2.447   8.886  17.964  0.00  0.00    +0.000 A 
ATOM      4  C   UNL     1       1.650   9.737  18.645  0.00  0.00    +0.000 A 
ATOM      5  N   UNL     1       1.169   9.311  19.912  0.00  0.00    +0.000 N 
ATOM      6  C   UNL     1       1.458   8.051  20.447  0.00  0.00    +0.000 A 
ATOM      7  N   UNL     1       0.897   7.872  21.622  0.00  0.00    +0.000 NA
ATOM      8  C   UNL     1       0.218   9.029  21.884  0.00  0.00    +0.000 A 
ATOM      9  C   UNL     1      -0.554   9.351  23.009  0.00  0.00    +0.000 A 
ATOM     10  C   UNL     1      -1.169  10.604  23.075  0.00  0.00    +0.000 A 
ATOM     11  C   UNL     1      -1.016  11.520  22.034  0.00  0.00    +0.000 A 
ATOM     12  C   UNL     1      -0.251  11.214  20.899  0.00  0.00    +0.000 A 
ATOM     13  C   UNL     1       0.361   9.950  20.848  0.00  0.00    +0.000 A 
ENDROOT
BRANCH   2  14
ATOM     14  C   UNL     1       3.618   6.622  17.691  0.00  0.00    +0.000 A 
ATOM     15  C   UNL     1       4.809   7.071  17.106  0.00  0.00    +0.000 A 
ATOM     16  C   UNL     1       5.562   6.221  16.288  0.00  0.00    +0.000 A 
ATOM     17  C   UNL     1       5.143   4.906  16.040  0.00  0.00    +0.000 A 
ATOM     18  C   UNL     1       3.975   4.445  16.666  0.00  0.00    +0.000 A 
ATOM     19  C   UNL     1       3.217   5.296  17.483  0.00  0.00    +0.000 A 
BRANCH  17  20
ATOM     20  C   UNL     1       5.915   4.006  15.102  0.00  0.00    +0.000 C 
ATOM     21  F   UNL     1       5.958   2.705  15.507  0.00  0.00    +0.000 F 
ATOM     22  F   UNL     1       5.389   3.985  13.845  0.00  0.00    +0.000 F 
ATOM     23  F   UNL     1       7.213   4.392  14.956  0.00  0.00    +0.000 F 
ENDBRANCH  17  20
ENDBRANCH   2  14
BRANCH   1  25
ATOM     24  N   UNL     1       2.852   4.639  20.689  0.00  0.00    +0.000 NA
ATOM     25  C   UNL     1       2.589   5.784  20.233  0.00  0.00    +0.000 C 
ENDBRANCH   1  25
BRANCH   4  26
ATOM     26  N   UNL     1       1.240  10.970  18.129  0.00  0.00    +0.000 N 
ATOM     27  H   UNL     1       0.409  11.317  18.620  0.00  0.00    +0.000 HD
BRANCH  26  28
ATOM     28  C   UNL     1       2.208  12.072  18.003  0.00  0.00    +0.000 C 
BRANCH  28  29
ATOM     29  C   UNL     1       1.643  13.405  18.534  0.00  0.00    +0.000 C 
BRANCH  29  30
ATOM     30  N   UNL     1       1.982  13.739  19.939  0.00  0.00    +0.000 NA
ATOM     31  C   UNL     1       3.334  14.313  20.071  0.00  0.00    +0.000 C 
ATOM     32  C   UNL     1       3.660  14.634  21.533  0.00  0.00    +0.000 C 
ATOM     33  C   UNL     1       2.626  15.574  22.142  0.00  0.00    +0.000 C 
ATOM     34  C   UNL     1       1.223  15.024  21.927  0.00  0.00    +0.000 C 
ATOM     35  C   UNL     1       0.979  14.695  20.455  0.00  0.00    +0.000 C 
ENDBRANCH  29  30
ENDBRANCH  28  29
ENDBRANCH  26  28
ENDBRANCH   4  26
TORSDOF 7
ENDMDL
MODEL 6
REMARK VINA RESULT:      -8.4      0.721      1.277
REMARK  Name = 
REMARK  7 active torsions:
REMARK  status: ('A' for Active; 'I' for Inactive)
REMARK    1  A    between atoms: C_2  and  C_3
REMARK    2  A    between atoms: C_4  and  C_5
REMARK    3  A    between atoms: C_8  and  C_9
REMARK    4  A    between atoms: C_16  and  N_17
REMARK    5  A    between atoms: N_17  and  C_18
REMARK    6  A    between atoms: C_18  and  C_19
REMARK    7  A    between atoms: C_19  and  N_20
REMARK                            x       y       z     vdW  Elec       q    Type
REMARK                         _______ _______ _______ _____ _____    ______ ____
ROOT
ATOM      1  C   UNL     1       2.176   7.231  19.653  0.00  0.00    +0.000 A 
ATOM      2  C   UNL     1       2.655   7.618  18.441  0.00  0.00    +0.000 A 
ATOM      3  C   UNL     1       2.331   8.952  17.932  0.00  0.00    +0.000 A 
ATOM      4  C   UNL     1       1.564   9.814  18.636  0.00  0.00    +0.000 A 
ATOM      5  N   UNL     1       1.111   9.392  19.915  0.00  0.00    +0.000 N 
ATOM      6  C   UNL     1       1.397   8.127  20.441  0.00  0.00    +0.000 A 
ATOM      7  N   UNL     1       0.865   7.954  21.630  0.00  0.00    +0.000 NA
ATOM      8  C   UNL     1       0.209   9.120  21.911  0.00  0.00    +0.000 A 
ATOM      9  C   UNL     1      -0.527   9.451  23.057  0.00  0.00    +0.000 A 
ATOM     10  C   UNL     1      -1.122  10.713  23.141  0.00  0.00    +0.000 A 
ATOM     11  C   UNL     1      -0.983  11.629  22.098  0.00  0.00    +0.000 A 
ATOM     12  C   UNL     1      -0.254  11.314  20.943  0.00  0.00    +0.000 A 
ATOM     13  C   UNL     1       0.338  10.041  20.873  0.00  0.00    +0.000 A 
ENDROOT
BRANCH   2  14
ATOM     14  C   UNL     1       3.460   6.672  17.626  0.00  0.00    +0.000 A 
ATOM     15  C   UNL     1       3.102   5.320  17.560  0.00  0.00    +0.000 A 
ATOM     16  C   UNL     1       3.904   4.406  16.865  0.00  0.00    +0.000 A 
ATOM     17  C   UNL     1       5.076   4.825  16.220  0.00  0.00    +0.000 A 
ATOM     18  C   UNL     1       5.407   6.189  16.248  0.00  0.00    +0.000 A 
ATOM     19  C   UNL     1       4.606   7.104  16.946  0.00  0.00    +0.000 A 
BRANCH  17  20
ATOM     20  C   UNL     1       5.983   3.832  15.528  0.00  0.00    +0.000 C 
ATOM     21  F   UNL     1       5.755   2.539  15.895  0.00  0.00    +0.000 F 
ATOM     22  F   UNL     1       5.854   3.861  14.172  0.00  0.00    +0.000 F 
ATOM     23  F   UNL     1       7.301   4.062  15.782  0.00  0.00    +0.000 F 
ENDBRANCH  17  20
ENDBRANCH   2  14
BRANCH   1  25
ATOM     24  N   UNL     1       2.746   4.695  20.640  0.00  0.00    +0.000 NA
ATOM     25  C   UNL     1       2.488   5.845  20.192  0.00  0.00    +0.000 C 
ENDBRANCH   1  25
BRANCH   4  26
ATOM     26  N   UNL     1       1.159  11.053  18.133  0.00  0.00    +0.000 N 
ATOM     27  H   UNL     1       0.382  11.438  18.682  0.00  0.00    +0.000 HD
BRANCH  26  28
ATOM     28  C   UNL     1       2.153  12.117  17.913  0.00  0.00    +0.000 C 
BRANCH  28  29
ATOM     29  C   UNL     1       2.302  13.036  19.142  0.00  0.00    +0.000 C 
BRANCH  29  30
ATOM     30  N   UNL     1       3.182  14.217  18.965  0.00  0.00    +0.000 NA
ATOM     31  C   UNL     1       2.451  15.394  18.460  0.00  0.00    +0.000 C 
ATOM     32  C   UNL     1       3.387  16.592  18.275  0.00  0.00    +0.000 C 
ATOM     33  C   UNL     1       4.114  16.938  19.569  0.00  0.00    +0.000 C 
ATOM     34  C   UNL     1       4.795  15.701  20.137  0.00  0.00    +0.000 C 
ATOM     35  C   UNL     1       3.812  14.538  20.263  0.00  0.00    +0.000 C 
ENDBRANCH  29  30
ENDBRANCH  28  29
ENDBRANCH  26  28
ENDBRANCH   4  26
TORSDOF 7
ENDMDL
MODEL 7
REMARK VINA RESULT:      -8.4      1.192      1.770
REMARK  Name = 
REMARK  7 active torsions:
REMARK  status: ('A' for Active; 'I' for Inactive)
REMARK    1  A    between atoms: C_2  and  C_3
REMARK    2  A    between atoms: C_4  and  C_5
REMARK    3  A    between atoms: C_8  and  C_9
REMARK    4  A    between atoms: C_16  and  N_17
REMARK    5  A    between atoms: N_17  and  C_18
REMARK    6  A    between atoms: C_18  and  C_19
REMARK    7  A    between atoms: C_19  and  N_20
REMARK                            x       y       z     vdW  Elec       q    Type
REMARK                         _______ _______ _______ _____ _____    ______ ____
ROOT
ATOM      1  C   UNL     1       2.174   7.262  19.687  0.00  0.00    +0.000 A 
ATOM      2  C   UNL     1       2.681   7.658  18.489  0.00  0.00    +0.000 A 
ATOM      3  C   UNL     1       2.383   9.003  17.992  0.00  0.00    +0.000 A 
ATOM      4  C   UNL     1       1.613   9.865  18.692  0.00  0.00    +0.000 A 
ATOM      5  N   UNL     1       1.131   9.433  19.957  0.00  0.00    +0.000 N 
ATOM      6  C   UNL     1       1.391   8.157  20.471  0.00  0.00    +0.000 A 
ATOM      7  N   UNL     1       0.834   7.976  21.648  0.00  0.00    +0.000 NA
ATOM      8  C   UNL     1       0.188   9.146  21.932  0.00  0.00    +0.000 A 
ATOM      9  C   UNL     1      -0.566   9.472  23.068  0.00  0.00    +0.000 A 
ATOM     10  C   UNL     1      -1.147  10.740  23.158  0.00  0.00    +0.000 A 
ATOM     11  C   UNL     1      -0.978  11.667  22.130  0.00  0.00    +0.000 A 
ATOM     12  C   UNL     1      -0.230  11.358  20.984  0.00  0.00    +0.000 A 
ATOM     13  C   UNL     1       0.348  10.079  20.909  0.00  0.00    +0.000 A 
ENDROOT
BRANCH   2  14
ATOM     14  C   UNL     1       3.490   6.714  17.677  0.00  0.00    +0.000 A 
ATOM     15  C   UNL     1       3.095   5.375  17.555  0.00  0.00    +0.000 A 
ATOM     16  C   UNL     1       3.897   4.458  16.864  0.00  0.00    +0.000 A 
ATOM     17  C   UNL     1       5.106   4.861  16.279  0.00  0.00    +0.000 A 
ATOM     18  C   UNL     1       5.475   6.212  16.362  0.00  0.00    +0.000 A 
ATOM     19  C   UNL     1       4.674   7.130  17.057  0.00  0.00    +0.000 A 
BRANCH  17  20
ATOM     20  C   UNL     1       6.009   3.862  15.592  0.00  0.00    +0.000 C 
ATOM     21  F   UNL     1       5.714   2.565  15.891  0.00  0.00    +0.000 F 
ATOM     22  F   UNL     1       5.953   3.951  14.234  0.00  0.00    +0.000 F 
ATOM     23  F   UNL     1       7.320   4.028  15.923  0.00  0.00    +0.000 F 
ENDBRANCH  17  20
ENDBRANCH   2  14
BRANCH   1  25
ATOM     24  N   UNL     1       2.694   4.706  20.652  0.00  0.00    +0.000 NA
ATOM     25  C   UNL     1       2.459   5.865  20.214  0.00  0.00    +0.000 C 
ENDBRANCH   1  25
BRANCH   4  26
ATOM     26  N   UNL     1       1.233  11.116  18.198  0.00  0.00    +0.000 N 
ATOM     27  H   UNL     1       0.411  11.475  18.697  0.00  0.00    +0.000 HD
BRANCH  26  28
ATOM     28  C   UNL     1       2.227  12.196  18.088  0.00  0.00    +0.000 C 
BRANCH  28  29
ATOM     29  C   UNL     1       1.581  13.593  18.188  0.00  0.00    +0.000 C 
BRANCH  29  30
ATOM     30  N   UNL     1       0.937  13.918  19.483  0.00  0.00    +0.000 NA
ATOM     31  C   UNL     1       1.862  14.575  20.424  0.00  0.00    +0.000 C 
ATOM     32  C   UNL     1       1.172  14.885  21.756  0.00  0.00    +0.000 C 
ATOM     33  C   UNL     1      -0.071  15.743  21.555  0.00  0.00    +0.000 C 
ATOM     34  C   UNL     1      -0.986  15.108  20.516  0.00  0.00    +0.000 C 
ATOM     35  C   UNL     1      -0.225  14.796  19.228  0.00  0.00    +0.000 C 
ENDBRANCH  29  30
ENDBRANCH  28  29
ENDBRANCH  26  28
ENDBRANCH   4  26
TORSDOF 7
ENDMDL
MODEL 8
REMARK VINA RESULT:      -8.4      0.961      1.615
REMARK  Name = 
REMARK  7 active torsions:
REMARK  status: ('A' for Active; 'I' for Inactive)
REMARK    1  A    between atoms: C_2  and  C_3
REMARK    2  A    between atoms: C_4  and  C_5
REMARK    3  A    between atoms: C_8  and  C_9
REMARK    4  A    between atoms: C_16  and  N_17
REMARK    5  A    between atoms: N_17  and  C_18
REMARK    6  A    between atoms: C_18  and  C_19
REMARK    7  A    between atoms: C_19  and  N_20
REMARK                            x       y       z     vdW  Elec       q    Type
REMARK                         _______ _______ _______ _____ _____    ______ ____
ROOT
ATOM      1  C   UNL     1       2.187   7.234  19.677  0.00  0.00    +0.000 A 
ATOM      2  C   UNL     1       2.670   7.618  18.466  0.00  0.00    +0.000 A 
ATOM      3  C   UNL     1       2.353   8.954  17.956  0.00  0.00    +0.000 A 
ATOM      4  C   UNL     1       1.588   9.819  18.657  0.00  0.00    +0.000 A 
ATOM      5  N   UNL     1       1.130   9.400  19.935  0.00  0.00    +0.000 N 
ATOM      6  C   UNL     1       1.409   8.134  20.462  0.00  0.00    +0.000 A 
ATOM      7  N   UNL     1       0.873   7.964  21.651  0.00  0.00    +0.000 NA
ATOM      8  C   UNL     1       0.222   9.132  21.929  0.00  0.00    +0.000 A 
ATOM      9  C   UNL     1      -0.516   9.467  23.073  0.00  0.00    +0.000 A 
ATOM     10  C   UNL     1      -1.106  10.732  23.156  0.00  0.00    +0.000 A 
ATOM     11  C   UNL     1      -0.961  11.646  22.113  0.00  0.00    +0.000 A 
ATOM     12  C   UNL     1      -0.230  11.328  20.959  0.00  0.00    +0.000 A 
ATOM     13  C   UNL     1       0.357  10.052  20.891  0.00  0.00    +0.000 A 
ENDROOT
BRANCH   2  14
ATOM     14  C   UNL     1       3.473   6.669  17.653  0.00  0.00    +0.000 A 
ATOM     15  C   UNL     1       3.113   5.317  17.592  0.00  0.00    +0.000 A 
ATOM     16  C   UNL     1       3.913   4.399  16.900  0.00  0.00    +0.000 A 
ATOM     17  C   UNL     1       5.086   4.815  16.252  0.00  0.00    +0.000 A 
ATOM     18  C   UNL     1       5.418   6.178  16.276  0.00  0.00    +0.000 A 
ATOM     19  C   UNL     1       4.620   7.097  16.972  0.00  0.00    +0.000 A 
BRANCH  17  20
ATOM     20  C   UNL     1       5.990   3.819  15.563  0.00  0.00    +0.000 C 
ATOM     21  F   UNL     1       5.889   3.840  14.204  0.00  0.00    +0.000 F 
ATOM     22  F   UNL     1       7.308   4.027  15.840  0.00  0.00    +0.000 F 
ATOM     23  F   UNL     1       5.731   2.533  15.933  0.00  0.00    +0.000 F 
ENDBRANCH  17  20
ENDBRANCH   2  14
BRANCH   1  25
ATOM     24  N   UNL     1       2.744   4.696  20.667  0.00  0.00    +0.000 NA
ATOM     25  C   UNL     1       2.491   5.847  20.218  0.00  0.00    +0.000 C 
ENDBRANCH   1  25
BRANCH   4  26
ATOM     26  N   UNL     1       1.189  11.059  18.153  0.00  0.00    +0.000 N 
ATOM     27  H   UNL     1       0.262  11.321  18.507  0.00  0.00    +0.000 HD
BRANCH  26  28
ATOM     28  C   UNL     1       2.084  12.223  18.271  0.00  0.00    +0.000 C 
BRANCH  28  29
ATOM     29  C   UNL     1       1.303  13.550  18.354  0.00  0.00    +0.000 C 
BRANCH  29  30
ATOM     30  N   UNL     1       1.458  14.315  19.615  0.00  0.00    +0.000 NA
ATOM     31  C   UNL     1       2.648  13.904  20.381  0.00  0.00    +0.000 C 
ATOM     32  C   UNL     1       2.773  14.700  21.684  0.00  0.00    +0.000 C 
ATOM     33  C   UNL     1       2.808  16.201  21.420  0.00  0.00    +0.000 C 
ATOM     34  C   UNL     1       1.625  16.611  20.554  0.00  0.00    +0.000 C 
ATOM     35  C   UNL     1       1.543  15.755  19.290  0.00  0.00    +0.000 C 
ENDBRANCH  29  30
ENDBRANCH  28  29
ENDBRANCH  26  28
ENDBRANCH   4  26
TORSDOF 7
ENDMDL
MODEL 9
REMARK VINA RESULT:      -8.4      2.350      3.642
REMARK  Name = 
REMARK  7 active torsions:
REMARK  status: ('A' for Active; 'I' for Inactive)
REMARK    1  A    between atoms: C_2  and  C_3
REMARK    2  A    between atoms: C_4  and  C_5
REMARK    3  A    between atoms: C_8  and  C_9
REMARK    4  A    between atoms: C_16  and  N_17
REMARK    5  A    between atoms: N_17  and  C_18
REMARK    6  A    between atoms: C_18  and  C_19
REMARK    7  A    between atoms: C_19  and  N_20
REMARK                            x       y       z     vdW  Elec       q    Type
REMARK                         _______ _______ _______ _____ _____    ______ ____
ROOT
ATOM      1  C   UNL     1       2.236   7.205  19.762  0.00  0.00    +0.000 A 
ATOM      2  C   UNL     1       2.736   7.598  18.561  0.00  0.00    +0.000 A 
ATOM      3  C   UNL     1       2.418   8.934  18.052  0.00  0.00    +0.000 A 
ATOM      4  C   UNL     1       1.636   9.791  18.745  0.00  0.00    +0.000 A 
ATOM      5  N   UNL     1       1.161   9.363  20.014  0.00  0.00    +0.000 N 
ATOM      6  C   UNL     1       1.440   8.096  20.540  0.00  0.00    +0.000 A 
ATOM      7  N   UNL     1       0.888   7.917  21.719  0.00  0.00    +0.000 NA
ATOM      8  C   UNL     1       0.224   9.080  21.993  0.00  0.00    +0.000 A 
ATOM      9  C   UNL     1      -0.534   9.405  23.126  0.00  0.00    +0.000 A 
ATOM     10  C   UNL     1      -1.133  10.665  23.205  0.00  0.00    +0.000 A 
ATOM     11  C   UNL     1      -0.978  11.585  22.169  0.00  0.00    +0.000 A 
ATOM     12  C   UNL     1      -0.227  11.277  21.025  0.00  0.00    +0.000 A 
ATOM     13  C   UNL     1       0.369  10.006  20.961  0.00  0.00    +0.000 A 
ENDROOT
BRANCH   2  14
ATOM     14  C   UNL     1       3.558   6.658  17.757  0.00  0.00    +0.000 A 
ATOM     15  C   UNL     1       4.740   7.100  17.149  0.00  0.00    +0.000 A 
ATOM     16  C   UNL     1       5.475   6.245  16.319  0.00  0.00    +0.000 A 
ATOM     17  C   UNL     1       5.046   4.931  16.083  0.00  0.00    +0.000 A 
ATOM     18  C   UNL     1       3.887   4.476  16.731  0.00  0.00    +0.000 A 
ATOM     19  C   UNL     1       3.149   5.333  17.559  0.00  0.00    +0.000 A 
BRANCH  17  20
ATOM     20  C   UNL     1       5.797   4.026  15.132  0.00  0.00    +0.000 C 
ATOM     21  F   UNL     1       5.239   3.957  13.890  0.00  0.00    +0.000 F 
ATOM     22  F   UNL     1       7.086   4.422  14.938  0.00  0.00    +0.000 F 
ATOM     23  F   UNL     1       5.865   2.740  15.579  0.00  0.00    +0.000 F 
ENDBRANCH  17  20
ENDBRANCH   2  14
BRANCH   1  25
ATOM     24  N   UNL     1       2.795   4.666  20.750  0.00  0.00    +0.000 NA
ATOM     25  C   UNL     1       2.541   5.818  20.302  0.00  0.00    +0.000 C 
ENDBRANCH   1  25
BRANCH   4  26
ATOM     26  N   UNL     1       1.237  11.031  18.240  0.00  0.00    +0.000 N 
ATOM     27  H   UNL     1       1.776  11.280  17.403  0.00  0.00    +0.000 HD
BRANCH  26  28
ATOM     28  C   UNL     1      -0.188  11.293  17.977  0.00  0.00    +0.000 C 
BRANCH  28  29
ATOM     29  C   UNL     1      -0.949  10.014  17.574  0.00  0.00    +0.000 C 
BRANCH  29  30
ATOM     30  N   UNL     1      -2.408  10.169  17.358  0.00  0.00    +0.000 NA
ATOM     31  C   UNL     1      -3.032  11.064  18.349  0.00  0.00    +0.000 C 
ATOM     32  C   UNL     1      -4.540  11.193  18.109  0.00  0.00    +0.000 C 
ATOM     33  C   UNL     1      -4.841  11.679  16.697  0.00  0.00    +0.000 C 
ATOM     34  C   UNL     1      -4.124  10.807  15.676  0.00  0.00    +0.000 C 
ATOM     35  C   UNL     1      -2.633  10.695  15.995  0.00  0.00    +0.000 C 
ENDBRANCH  29  30
ENDBRANCH  28  29
ENDBRANCH  26  28
ENDBRANCH   4  26
TORSDOF 7
ENDMDL
