MODEL 1
REMARK VINA RESULT:      -7.3      0.000      0.000
REMARK  Name = 
REMARK  8 active torsions:
REMARK  status: ('A' for Active; 'I' for Inactive)
REMARK    1  A    between atoms: C_1  and  O_2
REMARK    2  A    between atoms: O_2  and  C_3
REMARK    3  A    between atoms: C_5  and  N_6
REMARK    4  A    between atoms: C_7  and  C_9
REMARK    5  A    between atoms: C_9  and  N_10
REMARK    6  A    between atoms: N_14  and  C_15
REMARK    7  A    between atoms: C_18  and  C_19
REMARK    8  A    between atoms: C_21  and  N_22
REMARK                            x       y       z     vdW  Elec       q    Type
REMARK                         _______ _______ _______ _____ _____    ______ ____
ROOT
ATOM      1  N   UNL     1       2.803   6.315  19.908  0.00  0.00    +0.000 N 
ATOM      2  C   UNL     1       2.341   5.006  20.036  0.00  0.00    +0.000 C 
ATOM      3  O   UNL     1       1.157   4.671  20.046  0.00  0.00    +0.000 OA
ATOM      4  H   UNL     1       3.771   6.419  19.619  0.00  0.00    +0.000 HD
ENDROOT
BRANCH   1   7
ATOM      5  C   UNL     1       0.359   8.904  21.107  0.00  0.00    +0.000 A 
ATOM      6  C   UNL     1       1.183   7.774  21.053  0.00  0.00    +0.000 A 
ATOM      7  C   UNL     1       1.998   7.485  19.938  0.00  0.00    +0.000 A 
ATOM      8  C   UNL     1       2.013   8.385  18.850  0.00  0.00    +0.000 A 
ATOM      9  C   UNL     1       2.848   8.196  17.612  0.00  0.00    +0.000 C 
ATOM     10  C   UNL     1       1.209   9.538  18.909  0.00  0.00    +0.000 A 
ATOM     11  C   UNL     1       0.386   9.774  20.019  0.00  0.00    +0.000 A 
BRANCH  11  12
ATOM     12  N   UNL     1      -0.451  10.959  20.005  0.00  0.00    +0.000 N 
ATOM     13  O   UNL     1      -0.017  11.979  20.559  0.00  0.00    +0.000 OA
ATOM     14  O   UNL     1      -1.515  10.885  19.372  0.00  0.00    +0.000 OA
ENDBRANCH  11  12
BRANCH   5  16
ATOM     15  C   UNL     1       0.080   9.536  23.390  0.00  0.00    +0.000 C 
ATOM     16  O   UNL     1      -0.498   9.182  22.136  0.00  0.00    +0.000 OA
ENDBRANCH   5  16
ENDBRANCH   1   7
BRANCH   2  17
ATOM     17  C   UNL     1       3.443   3.959  20.075  0.00  0.00    +0.000 C 
BRANCH  17  18
ATOM     18  N   UNL     1       4.229   4.031  18.865  0.00  0.00    +0.000 N 
ATOM     19  C   UNL     1       3.872   3.499  17.659  0.00  0.00    +0.000 C 
ATOM     20  O   UNL     1       2.834   2.911  17.395  0.00  0.00    +0.000 OA
ATOM     21  C   UNL     1       5.009   3.728  16.676  0.00  0.00    +0.000 C 
ATOM     22  N   UNL     1       5.946   4.434  17.517  0.00  0.00    +0.000 N 
ATOM     23  C   UNL     1       7.193   4.961  17.022  0.00  0.00    +0.000 C 
ATOM     24  C   UNL     1       5.442   4.645  18.786  0.00  0.00    +0.000 C 
ATOM     25  O   UNL     1       5.973   5.279  19.687  0.00  0.00    +0.000 OA
ENDBRANCH  17  18
ENDBRANCH   2  17
TORSDOF 5
ENDMDL
MODEL 2
REMARK VINA RESULT:      -7.3      0.602      1.785
REMARK  Name = 
REMARK  8 active torsions:
REMARK  status: ('A' for Active; 'I' for Inactive)
REMARK    1  A    between atoms: C_1  and  O_2
REMARK    2  A    between atoms: O_2  and  C_3
REMARK    3  A    between atoms: C_5  and  N_6
REMARK    4  A    between atoms: C_7  and  C_9
REMARK    5  A    between atoms: C_9  and  N_10
REMARK    6  A    between atoms: N_14  and  C_15
REMARK    7  A    between atoms: C_18  and  C_19
REMARK    8  A    between atoms: C_21  and  N_22
REMARK                            x       y       z     vdW  Elec       q    Type
REMARK                         _______ _______ _______ _____ _____    ______ ____
ROOT
ATOM      1  N   UNL     1       3.031   6.337  19.868  0.00  0.00    +0.000 N 
ATOM      2  C   UNL     1       2.674   5.024  19.567  0.00  0.00    +0.000 C 
ATOM      3  O   UNL     1       1.581   4.672  19.123  0.00  0.00    +0.000 OA
ATOM      4  H   UNL     1       4.027   6.522  19.937  0.00  0.00    +0.000 HD
ENDROOT
BRANCH   1   7
ATOM      5  C   UNL     1       0.429   8.792  21.017  0.00  0.00    +0.000 A 
ATOM      6  C   UNL     1       1.323   7.715  20.985  0.00  0.00    +0.000 A 
ATOM      7  C   UNL     1       2.153   7.455  19.875  0.00  0.00    +0.000 A 
ATOM      8  C   UNL     1       2.111   8.330  18.769  0.00  0.00    +0.000 A 
ATOM      9  C   UNL     1       2.955   8.169  17.533  0.00  0.00    +0.000 C 
ATOM     10  C   UNL     1       1.236   9.432  18.805  0.00  0.00    +0.000 A 
ATOM     11  C   UNL     1       0.400   9.638  19.912  0.00  0.00    +0.000 A 
BRANCH  11  12
ATOM     12  N   UNL     1      -0.509  10.768  19.875  0.00  0.00    +0.000 N 
ATOM     13  O   UNL     1      -1.590  10.621  19.286  0.00  0.00    +0.000 OA
ATOM     14  O   UNL     1      -0.167  11.782  20.502  0.00  0.00    +0.000 OA
ENDBRANCH  11  12
BRANCH   5  16
ATOM     15  C   UNL     1       0.106   9.517  23.266  0.00  0.00    +0.000 C 
ATOM     16  O   UNL     1      -0.443   9.037  22.042  0.00  0.00    +0.000 OA
ENDBRANCH   5  16
ENDBRANCH   1   7
BRANCH   2  17
ATOM     17  C   UNL     1       3.798   4.017  19.744  0.00  0.00    +0.000 C 
BRANCH  17  18
ATOM     18  N   UNL     1       4.781   4.191  18.700  0.00  0.00    +0.000 N 
ATOM     19  C   UNL     1       6.000   4.787  18.855  0.00  0.00    +0.000 C 
ATOM     20  O   UNL     1       6.471   5.235  19.889  0.00  0.00    +0.000 OA
ATOM     21  C   UNL     1       6.688   4.837  17.500  0.00  0.00    +0.000 C 
ATOM     22  N   UNL     1       5.691   4.197  16.675  0.00  0.00    +0.000 N 
ATOM     23  C   UNL     1       5.899   3.919  15.276  0.00  0.00    +0.000 C 
ATOM     24  C   UNL     1       4.600   3.780  17.415  0.00  0.00    +0.000 C 
ATOM     25  O   UNL     1       3.641   3.142  17.005  0.00  0.00    +0.000 OA
ENDBRANCH  17  18
ENDBRANCH   2  17
TORSDOF 5
ENDMDL
MODEL 3
REMARK VINA RESULT:      -6.9      2.155      7.410
REMARK  Name = 
REMARK  8 active torsions:
REMARK  status: ('A' for Active; 'I' for Inactive)
REMARK    1  A    between atoms: C_1  and  O_2
REMARK    2  A    between atoms: O_2  and  C_3
REMARK    3  A    between atoms: C_5  and  N_6
REMARK    4  A    between atoms: C_7  and  C_9
REMARK    5  A    between atoms: C_9  and  N_10
REMARK    6  A    between atoms: N_14  and  C_15
REMARK    7  A    between atoms: C_18  and  C_19
REMARK    8  A    between atoms: C_21  and  N_22
REMARK                            x       y       z     vdW  Elec       q    Type
REMARK                         _______ _______ _______ _____ _____    ______ ____
ROOT
ATOM      1  N   UNL     1       2.040   7.945  20.861  0.00  0.00    +0.000 N 
ATOM      2  C   UNL     1       0.824   8.408  21.360  0.00  0.00    +0.000 C 
ATOM      3  O   UNL     1      -0.241   7.792  21.314  0.00  0.00    +0.000 OA
ATOM      4  H   UNL     1       2.872   8.403  21.221  0.00  0.00    +0.000 HD
ENDROOT
BRANCH   1   7
ATOM      5  C   UNL     1       2.377   4.322  19.925  0.00  0.00    +0.000 A 
ATOM      6  C   UNL     1       2.178   5.494  20.664  0.00  0.00    +0.000 A 
ATOM      7  C   UNL     1       2.222   6.775  20.075  0.00  0.00    +0.000 A 
ATOM      8  C   UNL     1       2.439   6.882  18.684  0.00  0.00    +0.000 A 
ATOM      9  C   UNL     1       2.494   8.188  17.937  0.00  0.00    +0.000 C 
ATOM     10  C   UNL     1       2.612   5.706  17.930  0.00  0.00    +0.000 A 
ATOM     11  C   UNL     1       2.596   4.452  18.556  0.00  0.00    +0.000 A 
BRANCH  11  12
ATOM     12  N   UNL     1       2.820   3.279  17.732  0.00  0.00    +0.000 N 
ATOM     13  O   UNL     1       3.992   2.937  17.519  0.00  0.00    +0.000 OA
ATOM     14  O   UNL     1       1.813   2.658  17.360  0.00  0.00    +0.000 OA
ENDBRANCH  11  12
BRANCH   5  16
ATOM     15  C   UNL     1       1.421   2.747  21.440  0.00  0.00    +0.000 C 
ATOM     16  O   UNL     1       2.413   3.067  20.469  0.00  0.00    +0.000 OA
ENDBRANCH   5  16
ENDBRANCH   1   7
BRANCH   2  17
ATOM     17  C   UNL     1       0.914   9.745  22.078  0.00  0.00    +0.000 C 
BRANCH  17  18
ATOM     18  N   UNL     1       0.057  10.708  21.427  0.00  0.00    +0.000 N 
ATOM     19  C   UNL     1      -1.055  11.275  21.979  0.00  0.00    +0.000 C 
ATOM     20  O   UNL     1      -1.490  11.092  23.107  0.00  0.00    +0.000 OA
ATOM     21  C   UNL     1      -1.709  12.170  20.937  0.00  0.00    +0.000 C 
ATOM     22  N   UNL     1      -0.799  11.992  19.831  0.00  0.00    +0.000 N 
ATOM     23  C   UNL     1      -0.934  12.711  18.589  0.00  0.00    +0.000 C 
ATOM     24  C   UNL     1       0.261  11.169  20.161  0.00  0.00    +0.000 C 
ATOM     25  O   UNL     1       1.224  10.900  19.458  0.00  0.00    +0.000 OA
ENDBRANCH  17  18
ENDBRANCH   2  17
TORSDOF 5
ENDMDL
MODEL 4
REMARK VINA RESULT:      -6.8      2.419      7.689
REMARK  Name = 
REMARK  8 active torsions:
REMARK  status: ('A' for Active; 'I' for Inactive)
REMARK    1  A    between atoms: C_1  and  O_2
REMARK    2  A    between atoms: O_2  and  C_3
REMARK    3  A    between atoms: C_5  and  N_6
REMARK    4  A    between atoms: C_7  and  C_9
REMARK    5  A    between atoms: C_9  and  N_10
REMARK    6  A    between atoms: N_14  and  C_15
REMARK    7  A    between atoms: C_18  and  C_19
REMARK    8  A    between atoms: C_21  and  N_22
REMARK                            x       y       z     vdW  Elec       q    Type
REMARK                         _______ _______ _______ _____ _____    ______ ____
ROOT
ATOM      1  N   UNL     1       1.985   7.847  20.771  0.00  0.00    +0.000 N 
ATOM      2  C   UNL     1       0.867   8.528  21.248  0.00  0.00    +0.000 C 
ATOM      3  O   UNL     1      -0.272   8.066  21.307  0.00  0.00    +0.000 OA
ATOM      4  H   UNL     1       2.887   8.222  21.050  0.00  0.00    +0.000 HD
ENDROOT
BRANCH   1   7
ATOM      5  C   UNL     1       1.545   4.158  20.213  0.00  0.00    +0.000 A 
ATOM      6  C   UNL     1       1.549   5.424  20.810  0.00  0.00    +0.000 A 
ATOM      7  C   UNL     1       1.972   6.582  20.124  0.00  0.00    +0.000 A 
ATOM      8  C   UNL     1       2.373   6.471  18.776  0.00  0.00    +0.000 A 
ATOM      9  C   UNL     1       2.832   7.631  17.934  0.00  0.00    +0.000 C 
ATOM     10  C   UNL     1       2.346   5.206  18.159  0.00  0.00    +0.000 A 
ATOM     11  C   UNL     1       1.952   4.072  18.883  0.00  0.00    +0.000 A 
BRANCH  11  12
ATOM     12  N   UNL     1       1.982   2.789  18.206  0.00  0.00    +0.000 N 
ATOM     13  O   UNL     1       0.903   2.208  18.021  0.00  0.00    +0.000 OA
ATOM     14  O   UNL     1       3.086   2.400  17.794  0.00  0.00    +0.000 OA
ENDBRANCH  11  12
BRANCH   5  16
ATOM     15  C   UNL     1       2.131   2.508  21.832  0.00  0.00    +0.000 C 
ATOM     16  O   UNL     1       1.211   3.002  20.863  0.00  0.00    +0.000 OA
ENDBRANCH   5  16
ENDBRANCH   1   7
BRANCH   2  17
ATOM     17  C   UNL     1       1.169   9.913  21.799  0.00  0.00    +0.000 C 
BRANCH  17  18
ATOM     18  N   UNL     1       0.087  10.814  21.478  0.00  0.00    +0.000 N 
ATOM     19  C   UNL     1      -0.103  11.419  20.269  0.00  0.00    +0.000 C 
ATOM     20  O   UNL     1       0.577  11.279  19.263  0.00  0.00    +0.000 OA
ATOM     21  C   UNL     1      -1.306  12.344  20.376  0.00  0.00    +0.000 C 
ATOM     22  N   UNL     1      -1.688  12.119  21.750  0.00  0.00    +0.000 N 
ATOM     23  C   UNL     1      -2.857  12.721  22.341  0.00  0.00    +0.000 C 
ATOM     24  C   UNL     1      -0.884  11.175  22.361  0.00  0.00    +0.000 C 
ATOM     25  O   UNL     1      -1.015  10.725  23.491  0.00  0.00    +0.000 OA
ENDBRANCH  17  18
ENDBRANCH   2  17
TORSDOF 5
ENDMDL
MODEL 5
REMARK VINA RESULT:      -6.6      1.680      3.021
REMARK  Name = 
REMARK  8 active torsions:
REMARK  status: ('A' for Active; 'I' for Inactive)
REMARK    1  A    between atoms: C_1  and  O_2
REMARK    2  A    between atoms: O_2  and  C_3
REMARK    3  A    between atoms: C_5  and  N_6
REMARK    4  A    between atoms: C_7  and  C_9
REMARK    5  A    between atoms: C_9  and  N_10
REMARK    6  A    between atoms: N_14  and  C_15
REMARK    7  A    between atoms: C_18  and  C_19
REMARK    8  A    between atoms: C_21  and  N_22
REMARK                            x       y       z     vdW  Elec       q    Type
REMARK                         _______ _______ _______ _____ _____    ______ ____
ROOT
ATOM      1  N   UNL     1       2.800   6.334  18.170  0.00  0.00    +0.000 N 
ATOM      2  C   UNL     1       4.052   6.342  17.559  0.00  0.00    +0.000 C 
ATOM      3  O   UNL     1       4.865   7.264  17.624  0.00  0.00    +0.000 OA
ATOM      4  H   UNL     1       2.367   5.422  18.286  0.00  0.00    +0.000 HD
ENDROOT
BRANCH   1   7
ATOM      5  C   UNL     1       1.421   9.778  18.763  0.00  0.00    +0.000 A 
ATOM      6  C   UNL     1       1.998   8.662  18.146  0.00  0.00    +0.000 A 
ATOM      7  C   UNL     1       2.188   7.438  18.822  0.00  0.00    +0.000 A 
ATOM      8  C   UNL     1       1.748   7.318  20.158  0.00  0.00    +0.000 A 
ATOM      9  C   UNL     1       1.881   6.065  20.980  0.00  0.00    +0.000 C 
ATOM     10  C   UNL     1       1.141   8.428  20.776  0.00  0.00    +0.000 A 
ATOM     11  C   UNL     1       1.001   9.638  20.084  0.00  0.00    +0.000 A 
BRANCH  11  12
ATOM     12  N   UNL     1       0.403  10.758  20.787  0.00  0.00    +0.000 N 
ATOM     13  O   UNL     1       1.156  11.509  21.423  0.00  0.00    +0.000 OA
ATOM     14  O   UNL     1      -0.817  10.923  20.640  0.00  0.00    +0.000 OA
ENDBRANCH  11  12
BRANCH   5  16
ATOM     15  C   UNL     1       2.451  11.812  18.066  0.00  0.00    +0.000 C 
ATOM     16  O   UNL     1       1.284  11.001  18.167  0.00  0.00    +0.000 OA
ENDBRANCH   5  16
ENDBRANCH   1   7
BRANCH   2  17
ATOM     17  C   UNL     1       4.406   5.046  16.846  0.00  0.00    +0.000 C 
BRANCH  17  18
ATOM     18  N   UNL     1       4.111   3.921  17.703  0.00  0.00    +0.000 N 
ATOM     19  C   UNL     1       3.043   3.082  17.564  0.00  0.00    +0.000 C 
ATOM     20  O   UNL     1       2.189   3.120  16.690  0.00  0.00    +0.000 OA
ATOM     21  C   UNL     1       3.060   2.085  18.712  0.00  0.00    +0.000 C 
ATOM     22  N   UNL     1       4.246   2.514  19.414  0.00  0.00    +0.000 N 
ATOM     23  C   UNL     1       4.760   1.820  20.568  0.00  0.00    +0.000 C 
ATOM     24  C   UNL     1       4.875   3.562  18.771  0.00  0.00    +0.000 C 
ATOM     25  O   UNL     1       5.937   4.080  19.086  0.00  0.00    +0.000 OA
ENDBRANCH  17  18
ENDBRANCH   2  17
TORSDOF 5
ENDMDL
MODEL 6
REMARK VINA RESULT:      -6.6      2.137      7.443
REMARK  Name = 
REMARK  8 active torsions:
REMARK  status: ('A' for Active; 'I' for Inactive)
REMARK    1  A    between atoms: C_1  and  O_2
REMARK    2  A    between atoms: O_2  and  C_3
REMARK    3  A    between atoms: C_5  and  N_6
REMARK    4  A    between atoms: C_7  and  C_9
REMARK    5  A    between atoms: C_9  and  N_10
REMARK    6  A    between atoms: N_14  and  C_15
REMARK    7  A    between atoms: C_18  and  C_19
REMARK    8  A    between atoms: C_21  and  N_22
REMARK                            x       y       z     vdW  Elec       q    Type
REMARK                         _______ _______ _______ _____ _____    ______ ____
ROOT
ATOM      1  N   UNL     1       2.681   7.812  17.865  0.00  0.00    +0.000 N 
ATOM      2  C   UNL     1       1.951   8.655  18.700  0.00  0.00    +0.000 C 
ATOM      3  O   UNL     1       1.615   8.391  19.854  0.00  0.00    +0.000 OA
ATOM      4  H   UNL     1       3.137   8.256  17.073  0.00  0.00    +0.000 HD
ENDROOT
BRANCH   1   7
ATOM      5  C   UNL     1       2.500   4.337  19.283  0.00  0.00    +0.000 A 
ATOM      6  C   UNL     1       2.193   5.668  18.972  0.00  0.00    +0.000 A 
ATOM      7  C   UNL     1       3.012   6.457  18.138  0.00  0.00    +0.000 A 
ATOM      8  C   UNL     1       4.164   5.879  17.563  0.00  0.00    +0.000 A 
ATOM      9  C   UNL     1       5.108   6.611  16.648  0.00  0.00    +0.000 C 
ATOM     10  C   UNL     1       4.464   4.533  17.848  0.00  0.00    +0.000 A 
ATOM     11  C   UNL     1       3.646   3.790  18.709  0.00  0.00    +0.000 A 
BRANCH  11  12
ATOM     12  N   UNL     1       4.028   2.420  18.996  0.00  0.00    +0.000 N 
ATOM     13  O   UNL     1       3.590   1.530  18.252  0.00  0.00    +0.000 OA
ATOM     14  O   UNL     1       4.829   2.247  19.927  0.00  0.00    +0.000 OA
ENDBRANCH  11  12
BRANCH   5  16
ATOM     15  C   UNL     1       2.040   3.702  21.535  0.00  0.00    +0.000 C 
ATOM     16  O   UNL     1       1.773   3.561  20.142  0.00  0.00    +0.000 OA
ENDBRANCH   5  16
ENDBRANCH   1   7
BRANCH   2  17
ATOM     17  C   UNL     1       1.657  10.022  18.102  0.00  0.00    +0.000 C 
BRANCH  17  18
ATOM     18  N   UNL     1       0.440  10.553  18.670  0.00  0.00    +0.000 N 
ATOM     19  C   UNL     1      -0.820  10.312  18.202  0.00  0.00    +0.000 C 
ATOM     20  O   UNL     1      -1.129   9.596  17.261  0.00  0.00    +0.000 OA
ATOM     21  C   UNL     1      -1.806  11.118  19.033  0.00  0.00    +0.000 C 
ATOM     22  N   UNL     1      -0.904  11.763  19.958  0.00  0.00    +0.000 N 
ATOM     23  C   UNL     1      -1.363  12.601  21.037  0.00  0.00    +0.000 C 
ATOM     24  C   UNL     1       0.407  11.373  19.756  0.00  0.00    +0.000 C 
ATOM     25  O   UNL     1       1.375  11.690  20.432  0.00  0.00    +0.000 OA
ENDBRANCH  17  18
ENDBRANCH   2  17
TORSDOF 5
ENDMDL
MODEL 7
REMARK VINA RESULT:      -6.6      2.288      7.831
REMARK  Name = 
REMARK  8 active torsions:
REMARK  status: ('A' for Active; 'I' for Inactive)
REMARK    1  A    between atoms: C_1  and  O_2
REMARK    2  A    between atoms: O_2  and  C_3
REMARK    3  A    between atoms: C_5  and  N_6
REMARK    4  A    between atoms: C_7  and  C_9
REMARK    5  A    between atoms: C_9  and  N_10
REMARK    6  A    between atoms: N_14  and  C_15
REMARK    7  A    between atoms: C_18  and  C_19
REMARK    8  A    between atoms: C_21  and  N_22
REMARK                            x       y       z     vdW  Elec       q    Type
REMARK                         _______ _______ _______ _____ _____    ______ ____
ROOT
ATOM      1  N   UNL     1       1.988   8.233  20.598  0.00  0.00    +0.000 N 
ATOM      2  C   UNL     1       0.899   9.102  20.609  0.00  0.00    +0.000 C 
ATOM      3  O   UNL     1      -0.239   8.816  20.237  0.00  0.00    +0.000 OA
ATOM      4  H   UNL     1       2.769   8.492  21.194  0.00  0.00    +0.000 HD
ENDROOT
BRANCH   1   7
ATOM      5  C   UNL     1       1.594   4.520  20.184  0.00  0.00    +0.000 A 
ATOM      6  C   UNL     1       1.562   5.811  20.724  0.00  0.00    +0.000 A 
ATOM      7  C   UNL     1       2.012   6.941  20.008  0.00  0.00    +0.000 A 
ATOM      8  C   UNL     1       2.477   6.773  18.687  0.00  0.00    +0.000 A 
ATOM      9  C   UNL     1       2.969   7.899  17.817  0.00  0.00    +0.000 C 
ATOM     10  C   UNL     1       2.485   5.482  18.126  0.00  0.00    +0.000 A 
ATOM     11  C   UNL     1       2.063   4.378  18.880  0.00  0.00    +0.000 A 
BRANCH  11  12
ATOM     12  N   UNL     1       2.132   3.067  18.262  0.00  0.00    +0.000 N 
ATOM     13  O   UNL     1       1.064   2.495  18.000  0.00  0.00    +0.000 OA
ATOM     14  O   UNL     1       3.262   2.645  17.973  0.00  0.00    +0.000 OA
ENDBRANCH  11  12
BRANCH   5  16
ATOM     15  C   UNL     1       2.210   2.814  21.733  0.00  0.00    +0.000 C 
ATOM     16  O   UNL     1       1.235   3.391  20.868  0.00  0.00    +0.000 OA
ENDBRANCH   5  16
ENDBRANCH   1   7
BRANCH   2  17
ATOM     17  C   UNL     1       1.194  10.463  21.219  0.00  0.00    +0.000 C 
BRANCH  17  18
ATOM     18  N   UNL     1      -0.017  11.025  21.771  0.00  0.00    +0.000 N 
ATOM     19  C   UNL     1      -0.558  10.697  22.982  0.00  0.00    +0.000 C 
ATOM     20  O   UNL     1      -0.102   9.913  23.801  0.00  0.00    +0.000 OA
ATOM     21  C   UNL     1      -1.867  11.454  23.146  0.00  0.00    +0.000 C 
ATOM     22  N   UNL     1      -1.902  12.190  21.904  0.00  0.00    +0.000 N 
ATOM     23  C   UNL     1      -2.935  13.146  21.596  0.00  0.00    +0.000 C 
ATOM     24  C   UNL     1      -0.776  11.959  21.136  0.00  0.00    +0.000 C 
ATOM     25  O   UNL     1      -0.492  12.500  20.077  0.00  0.00    +0.000 OA
ENDBRANCH  17  18
ENDBRANCH   2  17
TORSDOF 5
ENDMDL
MODEL 8
REMARK VINA RESULT:      -6.5      1.685      2.867
REMARK  Name = 
REMARK  8 active torsions:
REMARK  status: ('A' for Active; 'I' for Inactive)
REMARK    1  A    between atoms: C_1  and  O_2
REMARK    2  A    between atoms: O_2  and  C_3
REMARK    3  A    between atoms: C_5  and  N_6
REMARK    4  A    between atoms: C_7  and  C_9
REMARK    5  A    between atoms: C_9  and  N_10
REMARK    6  A    between atoms: N_14  and  C_15
REMARK    7  A    between atoms: C_18  and  C_19
REMARK    8  A    between atoms: C_21  and  N_22
REMARK                            x       y       z     vdW  Elec       q    Type
REMARK                         _______ _______ _______ _____ _____    ______ ____
ROOT
ATOM      1  N   UNL     1       3.182   5.471  18.265  0.00  0.00    +0.000 N 
ATOM      2  C   UNL     1       2.570   4.411  17.599  0.00  0.00    +0.000 C 
ATOM      3  O   UNL     1       1.356   4.269  17.459  0.00  0.00    +0.000 OA
ATOM      4  H   UNL     1       4.164   5.622  18.054  0.00  0.00    +0.000 HD
ENDROOT
BRANCH   1   7
ATOM      5  C   UNL     1       1.640   8.760  19.227  0.00  0.00    +0.000 A 
ATOM      6  C   UNL     1       2.273   7.748  18.494  0.00  0.00    +0.000 A 
ATOM      7  C   UNL     1       2.515   6.466  19.030  0.00  0.00    +0.000 A 
ATOM      8  C   UNL     1       2.072   6.176  20.338  0.00  0.00    +0.000 A 
ATOM      9  C   UNL     1       2.257   4.844  21.015  0.00  0.00    +0.000 C 
ATOM     10  C   UNL     1       1.410   7.178  21.071  0.00  0.00    +0.000 A 
ATOM     11  C   UNL     1       1.218   8.452  20.518  0.00  0.00    +0.000 A 
BRANCH  11  12
ATOM     12  N   UNL     1       0.565   9.457  21.336  0.00  0.00    +0.000 N 
ATOM     13  O   UNL     1      -0.671   9.533  21.280  0.00  0.00    +0.000 OA
ATOM     14  O   UNL     1       1.290  10.121  22.092  0.00  0.00    +0.000 OA
ENDBRANCH  11  12
BRANCH   5  16
ATOM     15  C   UNL     1       0.280  10.287  18.001  0.00  0.00    +0.000 C 
ATOM     16  O   UNL     1       1.451  10.036  18.772  0.00  0.00    +0.000 OA
ENDBRANCH   5  16
ENDBRANCH   1   7
BRANCH   2  17
ATOM     17  C   UNL     1       3.543   3.440  16.949  0.00  0.00    +0.000 C 
BRANCH  17  18
ATOM     18  N   UNL     1       4.867   4.018  16.924  0.00  0.00    +0.000 N 
ATOM     19  C   UNL     1       5.488   4.520  15.816  0.00  0.00    +0.000 C 
ATOM     20  O   UNL     1       5.027   4.593  14.686  0.00  0.00    +0.000 OA
ATOM     21  C   UNL     1       6.891   4.956  16.205  0.00  0.00    +0.000 C 
ATOM     22  N   UNL     1       6.887   4.629  17.612  0.00  0.00    +0.000 N 
ATOM     23  C   UNL     1       7.994   4.932  18.484  0.00  0.00    +0.000 C 
ATOM     24  C   UNL     1       5.666   4.127  18.021  0.00  0.00    +0.000 C 
ATOM     25  O   UNL     1       5.342   3.838  19.164  0.00  0.00    +0.000 OA
ENDBRANCH  17  18
ENDBRANCH   2  17
TORSDOF 5
ENDMDL
MODEL 9
REMARK VINA RESULT:      -6.5      2.599      7.864
REMARK  Name = 
REMARK  8 active torsions:
REMARK  status: ('A' for Active; 'I' for Inactive)
REMARK    1  A    between atoms: C_1  and  O_2
REMARK    2  A    between atoms: O_2  and  C_3
REMARK    3  A    between atoms: C_5  and  N_6
REMARK    4  A    between atoms: C_7  and  C_9
REMARK    5  A    between atoms: C_9  and  N_10
REMARK    6  A    between atoms: N_14  and  C_15
REMARK    7  A    between atoms: C_18  and  C_19
REMARK    8  A    between atoms: C_21  and  N_22
REMARK                            x       y       z     vdW  Elec       q    Type
REMARK                         _______ _______ _______ _____ _____    ______ ____
ROOT
ATOM      1  N   UNL     1       2.382   7.486  18.848  0.00  0.00    +0.000 N 
ATOM      2  C   UNL     1       1.834   8.724  18.516  0.00  0.00    +0.000 C 
ATOM      3  O   UNL     1       2.021   9.319  17.455  0.00  0.00    +0.000 OA
ATOM      4  H   UNL     1       1.922   6.984  19.602  0.00  0.00    +0.000 HD
ENDROOT
BRANCH   1   7
ATOM      5  C   UNL     1       5.571   6.765  16.997  0.00  0.00    +0.000 A 
ATOM      6  C   UNL     1       4.586   7.412  17.752  0.00  0.00    +0.000 A 
ATOM      7  C   UNL     1       3.369   6.789  18.101  0.00  0.00    +0.000 A 
ATOM      8  C   UNL     1       3.147   5.452  17.707  0.00  0.00    +0.000 A 
ATOM      9  C   UNL     1       1.899   4.674  18.028  0.00  0.00    +0.000 C 
ATOM     10  C   UNL     1       4.145   4.784  16.972  0.00  0.00    +0.000 A 
ATOM     11  C   UNL     1       5.327   5.448  16.614  0.00  0.00    +0.000 A 
BRANCH  11  12
ATOM     12  N   UNL     1       6.301   4.720  15.822  0.00  0.00    +0.000 N 
ATOM     13  O   UNL     1       7.389   4.449  16.350  0.00  0.00    +0.000 OA
ATOM     14  O   UNL     1       5.942   4.357  14.691  0.00  0.00    +0.000 OA
ENDBRANCH  11  12
BRANCH   5  16
ATOM     15  C   UNL     1       7.642   7.792  17.582  0.00  0.00    +0.000 C 
ATOM     16  O   UNL     1       6.731   7.355  16.578  0.00  0.00    +0.000 OA
ENDBRANCH   5  16
ENDBRANCH   1   7
BRANCH   2  17
ATOM     17  C   UNL     1       0.876   9.280  19.557  0.00  0.00    +0.000 C 
BRANCH  17  18
ATOM     18  N   UNL     1       0.284  10.505  19.072  0.00  0.00    +0.000 N 
ATOM     19  C   UNL     1      -0.821  10.584  18.272  0.00  0.00    +0.000 C 
ATOM     20  O   UNL     1      -1.501   9.654  17.865  0.00  0.00    +0.000 OA
ATOM     21  C   UNL     1      -1.064  12.046  17.929  0.00  0.00    +0.000 C 
ATOM     22  N   UNL     1       0.022  12.668  18.650  0.00  0.00    +0.000 N 
ATOM     23  C   UNL     1       0.194  14.098  18.714  0.00  0.00    +0.000 C 
ATOM     24  C   UNL     1       0.769  11.745  19.356  0.00  0.00    +0.000 C 
ATOM     25  O   UNL     1       1.696  11.984  20.116  0.00  0.00    +0.000 OA
ENDBRANCH  17  18
ENDBRANCH   2  17
TORSDOF 5
ENDMDL
