MODEL 1
REMARK VINA RESULT:      -7.7      0.000      0.000
REMARK  Name = 
REMARK  15 active torsions:
REMARK  status: ('A' for Active; 'I' for Inactive)
REMARK    1  A    between atoms: C_1  and  C_2
REMARK    2  A    between atoms: C_2  and  C_24
REMARK    3  A    between atoms: C_3  and  C_4
REMARK    4  A    between atoms: C_4  and  C_5
REMARK    5  A    between atoms: C_6  and  O_7
REMARK    6  A    between atoms: C_10  and  C_11
REMARK    7  A    between atoms: C_11  and  C_13
REMARK    8  A    between atoms: C_14  and  C_15
REMARK    9  A    between atoms: C_18  and  O_19
REMARK   10  A    between atoms: C_22  and  O_23
REMARK   11  A    between atoms: C_24  and  C_25
REMARK   12  A    between atoms: C_26  and  C_27
REMARK   13  A    between atoms: C_27  and  C_28
REMARK   14  A    between atoms: C_27  and  C_29
REMARK   15  A    between atoms: C_27  and  O_30
REMARK                            x       y       z     vdW  Elec       q    Type
REMARK                         _______ _______ _______ _____ _____    ______ ____
ROOT
ATOM      1  C   UNL     1       6.661   5.791  17.413  0.00  0.00    +0.000 A 
ATOM      2  C   UNL     1       6.527   5.342  16.099  0.00  0.00    +0.000 A 
ATOM      3  C   UNL     1       5.411   4.607  15.700  0.00  0.00    +0.000 A 
ATOM      4  C   UNL     1       4.406   4.290  16.615  0.00  0.00    +0.000 A 
ATOM      5  C   UNL     1       4.501   4.707  17.948  0.00  0.00    +0.000 A 
ATOM      6  C   UNL     1       5.637   5.461  18.329  0.00  0.00    +0.000 A 
ENDROOT
BRANCH   2   7
ATOM      7  O   UNL     1       7.444   5.561  15.111  0.00  0.00    +0.000 OA
ATOM      8  H   UNL     1       8.312   5.226  15.376  0.00  0.00    +0.000 HD
ENDBRANCH   2   7
BRANCH   5   9
ATOM      9  C   UNL     1       3.450   4.381  18.969  0.00  0.00    +0.000 C 
ATOM     10  O   UNL     1       3.299   3.207  19.312  0.00  0.00    +0.000 OA
BRANCH   9  11
ATOM     11  C   UNL     1       2.606   5.460  19.531  0.00  0.00    +0.000 C 
ATOM     12  C   UNL     1       2.677   6.710  19.029  0.00  0.00    +0.000 C 
BRANCH  12  13
ATOM     13  C   UNL     1       1.853   7.770  19.609  0.00  0.00    +0.000 A 
ATOM     14  C   UNL     1       1.371   7.649  20.919  0.00  0.00    +0.000 A 
ATOM     15  C   UNL     1       0.528   8.626  21.454  0.00  0.00    +0.000 A 
ATOM     16  C   UNL     1       0.171   9.722  20.674  0.00  0.00    +0.000 A 
ATOM     17  C   UNL     1       0.650   9.859  19.376  0.00  0.00    +0.000 A 
ATOM     18  C   UNL     1       1.489   8.881  18.840  0.00  0.00    +0.000 A 
BRANCH  16  19
ATOM     19  O   UNL     1      -0.661  10.691  21.149  0.00  0.00    +0.000 OA
ATOM     20  H   UNL     1      -0.121  11.415  21.507  0.00  0.00    +0.000 HD
ENDBRANCH  16  19
ENDBRANCH  12  13
ENDBRANCH   9  11
ENDBRANCH   5   9
BRANCH   6  21
ATOM     21  O   UNL     1       5.801   5.903  19.623  0.00  0.00    +0.000 OA
ATOM     22  H   UNL     1       5.987   6.869  19.608  0.00  0.00    +0.000 HD
ENDBRANCH   6  21
BRANCH   1  23
ATOM     23  C   UNL     1       7.831   6.639  17.883  0.00  0.00    +0.000 C 
BRANCH  23  26
ATOM     24  C   UNL     1       9.048   9.008  19.403  0.00  0.00    +0.000 C 
ATOM     25  C   UNL     1       8.311   9.136  18.099  0.00  0.00    +0.000 C 
ATOM     26  C   UNL     1       7.716   8.092  17.480  0.00  0.00    +0.000 C 
BRANCH  25  27
ATOM     27  C   UNL     1       8.213  10.559  17.569  0.00  0.00    +0.000 C 
BRANCH  27  28
ATOM     28  C   UNL     1       9.210  11.479  18.223  0.00  0.00    +0.000 C 
ATOM     29  C   UNL     1      10.251  12.099  17.631  0.00  0.00    +0.000 C 
BRANCH  29  30
ATOM     30  C   UNL     1      11.249  12.971  18.373  0.00  0.00    +0.000 C 
ATOM     31  C   UNL     1      11.886  12.252  19.567  0.00  0.00    +0.000 C 
ATOM     32  C   UNL     1      12.332  13.487  17.427  0.00  0.00    +0.000 C 
BRANCH  30  33
ATOM     33  O   UNL     1      10.562  14.111  18.899  0.00  0.00    +0.000 OA
ATOM     34  H   UNL     1      10.276  13.872  19.797  0.00  0.00    +0.000 HD
ENDBRANCH  30  33
ENDBRANCH  29  30
ENDBRANCH  27  28
ENDBRANCH  25  27
ENDBRANCH  23  26
ENDBRANCH   1  23
TORSDOF 12
ENDMDL
MODEL 2
REMARK VINA RESULT:      -7.6      6.012     11.454
REMARK  Name = 
REMARK  15 active torsions:
REMARK  status: ('A' for Active; 'I' for Inactive)
REMARK    1  A    between atoms: C_1  and  C_2
REMARK    2  A    between atoms: C_2  and  C_24
REMARK    3  A    between atoms: C_3  and  C_4
REMARK    4  A    between atoms: C_4  and  C_5
REMARK    5  A    between atoms: C_6  and  O_7
REMARK    6  A    between atoms: C_10  and  C_11
REMARK    7  A    between atoms: C_11  and  C_13
REMARK    8  A    between atoms: C_14  and  C_15
REMARK    9  A    between atoms: C_18  and  O_19
REMARK   10  A    between atoms: C_22  and  O_23
REMARK   11  A    between atoms: C_24  and  C_25
REMARK   12  A    between atoms: C_26  and  C_27
REMARK   13  A    between atoms: C_27  and  C_28
REMARK   14  A    between atoms: C_27  and  C_29
REMARK   15  A    between atoms: C_27  and  O_30
REMARK                            x       y       z     vdW  Elec       q    Type
REMARK                         _______ _______ _______ _____ _____    ______ ____
ROOT
ATOM      1  C   UNL     1      -1.141  12.494  21.060  0.00  0.00    +0.000 A 
ATOM      2  C   UNL     1      -0.985  12.659  19.683  0.00  0.00    +0.000 A 
ATOM      3  C   UNL     1      -0.240  11.754  18.930  0.00  0.00    +0.000 A 
ATOM      4  C   UNL     1       0.383  10.664  19.542  0.00  0.00    +0.000 A 
ATOM      5  C   UNL     1       0.267  10.463  20.922  0.00  0.00    +0.000 A 
ATOM      6  C   UNL     1      -0.503  11.388  21.666  0.00  0.00    +0.000 A 
ENDROOT
BRANCH   2   7
ATOM      7  O   UNL     1      -1.519  13.690  18.964  0.00  0.00    +0.000 OA
ATOM      8  H   UNL     1      -2.221  14.125  19.468  0.00  0.00    +0.000 HD
ENDBRANCH   2   7
BRANCH   5   9
ATOM      9  C   UNL     1       0.927   9.311  21.624  0.00  0.00    +0.000 C 
ATOM     10  O   UNL     1       1.509   9.520  22.690  0.00  0.00    +0.000 OA
BRANCH   9  11
ATOM     11  C   UNL     1       0.884   7.958  21.024  0.00  0.00    +0.000 C 
ATOM     12  C   UNL     1       1.968   7.457  20.398  0.00  0.00    +0.000 C 
BRANCH  12  13
ATOM     13  C   UNL     1       1.904   6.128  19.792  0.00  0.00    +0.000 A 
ATOM     14  C   UNL     1       2.473   5.901  18.531  0.00  0.00    +0.000 A 
ATOM     15  C   UNL     1       2.355   4.651  17.919  0.00  0.00    +0.000 A 
ATOM     16  C   UNL     1       1.667   3.632  18.571  0.00  0.00    +0.000 A 
ATOM     17  C   UNL     1       1.107   3.841  19.826  0.00  0.00    +0.000 A 
ATOM     18  C   UNL     1       1.221   5.091  20.437  0.00  0.00    +0.000 A 
BRANCH  16  19
ATOM     19  O   UNL     1       1.515   2.402  18.005  0.00  0.00    +0.000 OA
ATOM     20  H   UNL     1       2.256   2.245  17.397  0.00  0.00    +0.000 HD
ENDBRANCH  16  19
ENDBRANCH  12  13
ENDBRANCH   9  11
ENDBRANCH   5   9
BRANCH   6  21
ATOM     21  O   UNL     1      -0.659  11.257  23.028  0.00  0.00    +0.000 OA
ATOM     22  H   UNL     1       0.213  11.399  23.463  0.00  0.00    +0.000 HD
ENDBRANCH   6  21
BRANCH   1  23
ATOM     23  C   UNL     1      -1.985  13.424  21.916  0.00  0.00    +0.000 C 
BRANCH  23  26
ATOM     24  C   UNL     1      -3.957  12.707  24.152  0.00  0.00    +0.000 C 
ATOM     25  C   UNL     1      -4.361  12.971  22.728  0.00  0.00    +0.000 C 
ATOM     26  C   UNL     1      -3.471  13.212  21.740  0.00  0.00    +0.000 C 
BRANCH  25  27
ATOM     27  C   UNL     1      -5.857  12.861  22.468  0.00  0.00    +0.000 C 
BRANCH  27  28
ATOM     28  C   UNL     1      -6.168  12.682  21.006  0.00  0.00    +0.000 C 
ATOM     29  C   UNL     1      -6.234  11.519  20.327  0.00  0.00    +0.000 C 
BRANCH  29  30
ATOM     30  C   UNL     1      -6.500  11.426  18.834  0.00  0.00    +0.000 C 
ATOM     31  C   UNL     1      -7.370  12.577  18.318  0.00  0.00    +0.000 C 
ATOM     32  C   UNL     1      -5.190  11.359  18.050  0.00  0.00    +0.000 C 
BRANCH  30  33
ATOM     33  O   UNL     1      -7.220  10.218  18.569  0.00  0.00    +0.000 OA
ATOM     34  H   UNL     1      -8.114  10.342  18.931  0.00  0.00    +0.000 HD
ENDBRANCH  30  33
ENDBRANCH  29  30
ENDBRANCH  27  28
ENDBRANCH  25  27
ENDBRANCH  23  26
ENDBRANCH   1  23
TORSDOF 12
ENDMDL
MODEL 3
REMARK VINA RESULT:      -7.6      4.859      8.517
REMARK  Name = 
REMARK  15 active torsions:
REMARK  status: ('A' for Active; 'I' for Inactive)
REMARK    1  A    between atoms: C_1  and  C_2
REMARK    2  A    between atoms: C_2  and  C_24
REMARK    3  A    between atoms: C_3  and  C_4
REMARK    4  A    between atoms: C_4  and  C_5
REMARK    5  A    between atoms: C_6  and  O_7
REMARK    6  A    between atoms: C_10  and  C_11
REMARK    7  A    between atoms: C_11  and  C_13
REMARK    8  A    between atoms: C_14  and  C_15
REMARK    9  A    between atoms: C_18  and  O_19
REMARK   10  A    between atoms: C_22  and  O_23
REMARK   11  A    between atoms: C_24  and  C_25
REMARK   12  A    between atoms: C_26  and  C_27
REMARK   13  A    between atoms: C_27  and  C_28
REMARK   14  A    between atoms: C_27  and  C_29
REMARK   15  A    between atoms: C_27  and  O_30
REMARK                            x       y       z     vdW  Elec       q    Type
REMARK                         _______ _______ _______ _____ _____    ______ ____
ROOT
ATOM      1  C   UNL     1       2.315   8.155  18.691  0.00  0.00    +0.000 A 
ATOM      2  C   UNL     1       2.139   7.416  19.861  0.00  0.00    +0.000 A 
ATOM      3  C   UNL     1       1.326   7.883  20.893  0.00  0.00    +0.000 A 
ATOM      4  C   UNL     1       0.678   9.115  20.782  0.00  0.00    +0.000 A 
ATOM      5  C   UNL     1       0.833   9.899  19.633  0.00  0.00    +0.000 A 
ATOM      6  C   UNL     1       1.654   9.401  18.594  0.00  0.00    +0.000 A 
ENDROOT
BRANCH   2   7
ATOM      7  O   UNL     1       2.730   6.210  20.109  0.00  0.00    +0.000 OA
ATOM      8  H   UNL     1       3.237   6.245  20.933  0.00  0.00    +0.000 HD
ENDBRANCH   2   7
BRANCH   5   9
ATOM      9  C   UNL     1       0.164  11.234  19.476  0.00  0.00    +0.000 C 
ATOM     10  O   UNL     1       0.865  12.238  19.345  0.00  0.00    +0.000 OA
BRANCH   9  11
ATOM     11  C   UNL     1      -1.315  11.326  19.496  0.00  0.00    +0.000 C 
ATOM     12  C   UNL     1      -1.988  11.680  18.383  0.00  0.00    +0.000 C 
BRANCH  12  13
ATOM     13  C   UNL     1      -3.447  11.787  18.424  0.00  0.00    +0.000 A 
ATOM     14  C   UNL     1      -4.206  11.484  17.285  0.00  0.00    +0.000 A 
ATOM     15  C   UNL     1      -5.593  11.649  17.299  0.00  0.00    +0.000 A 
ATOM     16  C   UNL     1      -6.215  12.117  18.452  0.00  0.00    +0.000 A 
ATOM     17  C   UNL     1      -5.474  12.412  19.591  0.00  0.00    +0.000 A 
ATOM     18  C   UNL     1      -4.088  12.250  19.577  0.00  0.00    +0.000 A 
BRANCH  16  19
ATOM     19  O   UNL     1      -7.563  12.308  18.506  0.00  0.00    +0.000 OA
ATOM     20  H   UNL     1      -7.768  13.184  18.141  0.00  0.00    +0.000 HD
ENDBRANCH  16  19
ENDBRANCH  12  13
ENDBRANCH   9  11
ENDBRANCH   5   9
BRANCH   6  21
ATOM     21  O   UNL     1       1.858  10.117  17.436  0.00  0.00    +0.000 OA
ATOM     22  H   UNL     1       0.989  10.261  16.995  0.00  0.00    +0.000 HD
ENDBRANCH   6  21
BRANCH   1  23
ATOM     23  C   UNL     1       3.148   7.665  17.519  0.00  0.00    +0.000 C 
BRANCH  23  26
ATOM     24  C   UNL     1       5.203   6.241  15.743  0.00  0.00    +0.000 C 
ATOM     25  C   UNL     1       4.519   5.598  16.918  0.00  0.00    +0.000 C 
ATOM     26  C   UNL     1       3.561   6.216  17.644  0.00  0.00    +0.000 C 
BRANCH  25  27
ATOM     27  C   UNL     1       4.933   4.157  17.174  0.00  0.00    +0.000 C 
BRANCH  27  28
ATOM     28  C   UNL     1       4.132   3.524  18.282  0.00  0.00    +0.000 C 
ATOM     29  C   UNL     1       2.822   3.202  18.254  0.00  0.00    +0.000 C 
BRANCH  29  30
ATOM     30  C   UNL     1       2.071   2.615  19.436  0.00  0.00    +0.000 C 
ATOM     31  C   UNL     1       2.890   2.648  20.730  0.00  0.00    +0.000 C 
ATOM     32  C   UNL     1       0.733   3.325  19.638  0.00  0.00    +0.000 C 
BRANCH  30  33
ATOM     33  O   UNL     1       1.788   1.239  19.164  0.00  0.00    +0.000 OA
ATOM     34  H   UNL     1       2.624   0.756  19.281  0.00  0.00    +0.000 HD
ENDBRANCH  30  33
ENDBRANCH  29  30
ENDBRANCH  27  28
ENDBRANCH  25  27
ENDBRANCH  23  26
ENDBRANCH   1  23
TORSDOF 12
ENDMDL
MODEL 4
REMARK VINA RESULT:      -7.6      1.906      8.179
REMARK  Name = 
REMARK  15 active torsions:
REMARK  status: ('A' for Active; 'I' for Inactive)
REMARK    1  A    between atoms: C_1  and  C_2
REMARK    2  A    between atoms: C_2  and  C_24
REMARK    3  A    between atoms: C_3  and  C_4
REMARK    4  A    between atoms: C_4  and  C_5
REMARK    5  A    between atoms: C_6  and  O_7
REMARK    6  A    between atoms: C_10  and  C_11
REMARK    7  A    between atoms: C_11  and  C_13
REMARK    8  A    between atoms: C_14  and  C_15
REMARK    9  A    between atoms: C_18  and  O_19
REMARK   10  A    between atoms: C_22  and  O_23
REMARK   11  A    between atoms: C_24  and  C_25
REMARK   12  A    between atoms: C_26  and  C_27
REMARK   13  A    between atoms: C_27  and  C_28
REMARK   14  A    between atoms: C_27  and  C_29
REMARK   15  A    between atoms: C_27  and  O_30
REMARK                            x       y       z     vdW  Elec       q    Type
REMARK                         _______ _______ _______ _____ _____    ______ ____
ROOT
ATOM      1  C   UNL     1       3.871   5.969  18.396  0.00  0.00    +0.000 A 
ATOM      2  C   UNL     1       4.124   4.841  19.179  0.00  0.00    +0.000 A 
ATOM      3  C   UNL     1       5.425   4.389  19.390  0.00  0.00    +0.000 A 
ATOM      4  C   UNL     1       6.509   5.049  18.807  0.00  0.00    +0.000 A 
ATOM      5  C   UNL     1       6.306   6.176  18.004  0.00  0.00    +0.000 A 
ATOM      6  C   UNL     1       4.977   6.625  17.812  0.00  0.00    +0.000 A 
ENDROOT
BRANCH   2   7
ATOM      7  O   UNL     1       3.158   4.091  19.787  0.00  0.00    +0.000 OA
ATOM      8  H   UNL     1       2.309   4.556  19.771  0.00  0.00    +0.000 HD
ENDBRANCH   2   7
BRANCH   5   9
ATOM      9  C   UNL     1       7.440   6.911  17.349  0.00  0.00    +0.000 C 
ATOM     10  O   UNL     1       7.781   6.585  16.211  0.00  0.00    +0.000 OA
BRANCH   9  11
ATOM     11  C   UNL     1       8.137   7.995  18.080  0.00  0.00    +0.000 C 
ATOM     12  C   UNL     1       8.041   9.272  17.655  0.00  0.00    +0.000 C 
BRANCH  12  13
ATOM     13  C   UNL     1       8.751  10.328  18.374  0.00  0.00    +0.000 A 
ATOM     14  C   UNL     1       9.292  10.075  19.642  0.00  0.00    +0.000 A 
ATOM     15  C   UNL     1       9.912  11.099  20.362  0.00  0.00    +0.000 A 
ATOM     16  C   UNL     1       9.989  12.373  19.809  0.00  0.00    +0.000 A 
ATOM     17  C   UNL     1       9.465  12.636  18.548  0.00  0.00    +0.000 A 
ATOM     18  C   UNL     1       8.842  11.614  17.830  0.00  0.00    +0.000 A 
BRANCH  16  19
ATOM     19  O   UNL     1      10.571  13.406  20.482  0.00  0.00    +0.000 OA
ATOM     20  H   UNL     1       9.962  14.163  20.477  0.00  0.00    +0.000 HD
ENDBRANCH  16  19
ENDBRANCH  12  13
ENDBRANCH   9  11
ENDBRANCH   5   9
BRANCH   6  21
ATOM     21  O   UNL     1       4.699   7.725  17.031  0.00  0.00    +0.000 OA
ATOM     22  H   UNL     1       4.556   7.427  16.104  0.00  0.00    +0.000 HD
ENDBRANCH   6  21
BRANCH   1  23
ATOM     23  C   UNL     1       2.476   6.531  18.180  0.00  0.00    +0.000 C 
BRANCH  23  26
ATOM     24  C   UNL     1       1.487   9.403  17.758  0.00  0.00    +0.000 C 
ATOM     25  C   UNL     1       1.528   8.716  19.095  0.00  0.00    +0.000 C 
ATOM     26  C   UNL     1       2.037   7.476  19.274  0.00  0.00    +0.000 C 
BRANCH  25  27
ATOM     27  C   UNL     1       1.026   9.565  20.254  0.00  0.00    +0.000 C 
BRANCH  27  28
ATOM     28  C   UNL     1      -0.123  10.452  19.852  0.00  0.00    +0.000 C 
ATOM     29  C   UNL     1      -0.128  11.799  19.797  0.00  0.00    +0.000 C 
BRANCH  29  30
ATOM     30  C   UNL     1      -1.349  12.626  19.435  0.00  0.00    +0.000 C 
ATOM     31  C   UNL     1      -2.460  11.788  18.795  0.00  0.00    +0.000 C 
ATOM     32  C   UNL     1      -1.885  13.371  20.657  0.00  0.00    +0.000 C 
BRANCH  30  33
ATOM     33  O   UNL     1      -0.968  13.610  18.468  0.00  0.00    +0.000 OA
ATOM     34  H   UNL     1      -0.102  13.337  18.121  0.00  0.00    +0.000 HD
ENDBRANCH  30  33
ENDBRANCH  29  30
ENDBRANCH  27  28
ENDBRANCH  25  27
ENDBRANCH  23  26
ENDBRANCH   1  23
TORSDOF 12
ENDMDL
MODEL 5
REMARK VINA RESULT:      -7.6      1.644      2.405
REMARK  Name = 
REMARK  15 active torsions:
REMARK  status: ('A' for Active; 'I' for Inactive)
REMARK    1  A    between atoms: C_1  and  C_2
REMARK    2  A    between atoms: C_2  and  C_24
REMARK    3  A    between atoms: C_3  and  C_4
REMARK    4  A    between atoms: C_4  and  C_5
REMARK    5  A    between atoms: C_6  and  O_7
REMARK    6  A    between atoms: C_10  and  C_11
REMARK    7  A    between atoms: C_11  and  C_13
REMARK    8  A    between atoms: C_14  and  C_15
REMARK    9  A    between atoms: C_18  and  O_19
REMARK   10  A    between atoms: C_22  and  O_23
REMARK   11  A    between atoms: C_24  and  C_25
REMARK   12  A    between atoms: C_26  and  C_27
REMARK   13  A    between atoms: C_27  and  C_28
REMARK   14  A    between atoms: C_27  and  C_29
REMARK   15  A    between atoms: C_27  and  O_30
REMARK                            x       y       z     vdW  Elec       q    Type
REMARK                         _______ _______ _______ _____ _____    ______ ____
ROOT
ATOM      1  C   UNL     1       4.938   4.670  17.713  0.00  0.00    +0.000 A 
ATOM      2  C   UNL     1       4.177   4.059  16.716  0.00  0.00    +0.000 A 
ATOM      3  C   UNL     1       2.802   3.881  16.867  0.00  0.00    +0.000 A 
ATOM      4  C   UNL     1       2.156   4.299  18.032  0.00  0.00    +0.000 A 
ATOM      5  C   UNL     1       2.878   4.906  19.066  0.00  0.00    +0.000 A 
ATOM      6  C   UNL     1       4.271   5.087  18.887  0.00  0.00    +0.000 A 
ENDROOT
BRANCH   2   7
ATOM      7  O   UNL     1       4.684   3.583  15.540  0.00  0.00    +0.000 OA
ATOM      8  H   UNL     1       5.649   3.533  15.585  0.00  0.00    +0.000 HD
ENDBRANCH   2   7
BRANCH   5   9
ATOM      9  C   UNL     1       2.227   5.363  20.340  0.00  0.00    +0.000 C 
ATOM     10  O   UNL     1       1.931   4.522  21.189  0.00  0.00    +0.000 OA
BRANCH   9  11
ATOM     11  C   UNL     1       1.939   6.801  20.548  0.00  0.00    +0.000 C 
ATOM     12  C   UNL     1       0.802   7.183  21.164  0.00  0.00    +0.000 C 
BRANCH  12  13
ATOM     13  C   UNL     1       0.522   8.608  21.343  0.00  0.00    +0.000 A 
ATOM     14  C   UNL     1      -0.086   9.061  22.521  0.00  0.00    +0.000 A 
ATOM     15  C   UNL     1      -0.418  10.411  22.670  0.00  0.00    +0.000 A 
ATOM     16  C   UNL     1      -0.138  11.301  21.637  0.00  0.00    +0.000 A 
ATOM     17  C   UNL     1       0.474  10.865  20.467  0.00  0.00    +0.000 A 
ATOM     18  C   UNL     1       0.802   9.516  20.317  0.00  0.00    +0.000 A 
BRANCH  16  19
ATOM     19  O   UNL     1      -0.457  12.622  21.732  0.00  0.00    +0.000 OA
ATOM     20  H   UNL     1      -0.759  12.932  20.862  0.00  0.00    +0.000 HD
ENDBRANCH  16  19
ENDBRANCH  12  13
ENDBRANCH   9  11
ENDBRANCH   5   9
BRANCH   6  21
ATOM     21  O   UNL     1       5.047   5.672  19.862  0.00  0.00    +0.000 OA
ATOM     22  H   UNL     1       4.802   6.622  19.935  0.00  0.00    +0.000 HD
ENDBRANCH   6  21
BRANCH   1  23
ATOM     23  C   UNL     1       6.428   4.933  17.574  0.00  0.00    +0.000 C 
BRANCH  23  26
ATOM     24  C   UNL     1       8.319   6.720  19.197  0.00  0.00    +0.000 C 
ATOM     25  C   UNL     1       7.642   7.150  17.926  0.00  0.00    +0.000 C 
ATOM     26  C   UNL     1       6.753   6.376  17.263  0.00  0.00    +0.000 C 
BRANCH  25  27
ATOM     27  C   UNL     1       7.973   8.568  17.486  0.00  0.00    +0.000 C 
BRANCH  27  28
ATOM     28  C   UNL     1       8.608   9.373  18.589  0.00  0.00    +0.000 C 
ATOM     29  C   UNL     1       9.160  10.598  18.485  0.00  0.00    +0.000 C 
BRANCH  29  30
ATOM     30  C   UNL     1       9.833  11.323  19.638  0.00  0.00    +0.000 C 
ATOM     31  C   UNL     1      11.336  11.515  19.416  0.00  0.00    +0.000 C 
ATOM     32  C   UNL     1       9.160  12.669  19.902  0.00  0.00    +0.000 C 
BRANCH  30  33
ATOM     33  O   UNL     1       9.691  10.533  20.823  0.00  0.00    +0.000 OA
ATOM     34  H   UNL     1      10.588  10.265  21.086  0.00  0.00    +0.000 HD
ENDBRANCH  30  33
ENDBRANCH  29  30
ENDBRANCH  27  28
ENDBRANCH  25  27
ENDBRANCH  23  26
ENDBRANCH   1  23
TORSDOF 12
ENDMDL
MODEL 6
REMARK VINA RESULT:      -7.5      6.151     11.140
REMARK  Name = 
REMARK  15 active torsions:
REMARK  status: ('A' for Active; 'I' for Inactive)
REMARK    1  A    between atoms: C_1  and  C_2
REMARK    2  A    between atoms: C_2  and  C_24
REMARK    3  A    between atoms: C_3  and  C_4
REMARK    4  A    between atoms: C_4  and  C_5
REMARK    5  A    between atoms: C_6  and  O_7
REMARK    6  A    between atoms: C_10  and  C_11
REMARK    7  A    between atoms: C_11  and  C_13
REMARK    8  A    between atoms: C_14  and  C_15
REMARK    9  A    between atoms: C_18  and  O_19
REMARK   10  A    between atoms: C_22  and  O_23
REMARK   11  A    between atoms: C_24  and  C_25
REMARK   12  A    between atoms: C_26  and  C_27
REMARK   13  A    between atoms: C_27  and  C_28
REMARK   14  A    between atoms: C_27  and  C_29
REMARK   15  A    between atoms: C_27  and  O_30
REMARK                            x       y       z     vdW  Elec       q    Type
REMARK                         _______ _______ _______ _____ _____    ______ ____
ROOT
ATOM      1  C   UNL     1      -0.613  12.263  20.289  0.00  0.00    +0.000 A 
ATOM      2  C   UNL     1      -0.714  12.072  18.910  0.00  0.00    +0.000 A 
ATOM      3  C   UNL     1      -0.249  10.903  18.309  0.00  0.00    +0.000 A 
ATOM      4  C   UNL     1       0.343   9.898  19.076  0.00  0.00    +0.000 A 
ATOM      5  C   UNL     1       0.478  10.048  20.461  0.00  0.00    +0.000 A 
ATOM      6  C   UNL     1      -0.010  11.238  21.052  0.00  0.00    +0.000 A 
ENDROOT
BRANCH   2   7
ATOM      7  O   UNL     1      -1.248  12.981  18.042  0.00  0.00    +0.000 OA
ATOM      8  H   UNL     1      -2.124  12.694  17.749  0.00  0.00    +0.000 HD
ENDBRANCH   2   7
BRANCH   5   9
ATOM      9  C   UNL     1       1.117   8.998  21.324  0.00  0.00    +0.000 C 
ATOM     10  O   UNL     1       1.713   9.349  22.343  0.00  0.00    +0.000 OA
BRANCH   9  11
ATOM     11  C   UNL     1       1.037   7.571  20.933  0.00  0.00    +0.000 C 
ATOM     12  C   UNL     1       2.011   7.017  20.184  0.00  0.00    +0.000 C 
BRANCH  12  13
ATOM     13  C   UNL     1       1.907   5.612  19.788  0.00  0.00    +0.000 A 
ATOM     14  C   UNL     1       2.215   5.227  18.477  0.00  0.00    +0.000 A 
ATOM     15  C   UNL     1       2.053   3.898  18.076  0.00  0.00    +0.000 A 
ATOM     16  C   UNL     1       1.583   2.960  18.990  0.00  0.00    +0.000 A 
ATOM     17  C   UNL     1       1.283   3.328  20.297  0.00  0.00    +0.000 A 
ATOM     18  C   UNL     1       1.442   4.656  20.698  0.00  0.00    +0.000 A 
BRANCH  16  19
ATOM     19  O   UNL     1       1.395   1.657  18.639  0.00  0.00    +0.000 OA
ATOM     20  H   UNL     1       0.459   1.431  18.772  0.00  0.00    +0.000 HD
ENDBRANCH  16  19
ENDBRANCH  12  13
ENDBRANCH   9  11
ENDBRANCH   5   9
BRANCH   6  21
ATOM     21  O   UNL     1       0.092  11.458  22.408  0.00  0.00    +0.000 OA
ATOM     22  H   UNL     1      -0.757  11.202  22.835  0.00  0.00    +0.000 HD
ENDBRANCH   6  21
BRANCH   1  23
ATOM     23  C   UNL     1      -1.151  13.495  20.996  0.00  0.00    +0.000 C 
BRANCH  23  26
ATOM     24  C   UNL     1      -3.116  12.473  23.117  0.00  0.00    +0.000 C 
ATOM     25  C   UNL     1      -3.527  13.236  21.889  0.00  0.00    +0.000 C 
ATOM     26  C   UNL     1      -2.656  13.615  20.927  0.00  0.00    +0.000 C 
BRANCH  25  27
ATOM     27  C   UNL     1      -5.025  13.478  21.771  0.00  0.00    +0.000 C 
BRANCH  27  28
ATOM     28  C   UNL     1      -5.603  12.871  20.520  0.00  0.00    +0.000 C 
ATOM     29  C   UNL     1      -6.043  11.606  20.360  0.00  0.00    +0.000 C 
BRANCH  29  30
ATOM     30  C   UNL     1      -6.562  11.052  19.045  0.00  0.00    +0.000 C 
ATOM     31  C   UNL     1      -5.545  11.184  17.907  0.00  0.00    +0.000 C 
ATOM     32  C   UNL     1      -6.996   9.595  19.201  0.00  0.00    +0.000 C 
BRANCH  30  33
ATOM     33  O   UNL     1      -7.716  11.802  18.653  0.00  0.00    +0.000 OA
ATOM     34  H   UNL     1      -8.351  11.163  18.287  0.00  0.00    +0.000 HD
ENDBRANCH  30  33
ENDBRANCH  29  30
ENDBRANCH  27  28
ENDBRANCH  25  27
ENDBRANCH  23  26
ENDBRANCH   1  23
TORSDOF 12
ENDMDL
MODEL 7
REMARK VINA RESULT:      -7.5      4.757      7.776
REMARK  Name = 
REMARK  15 active torsions:
REMARK  status: ('A' for Active; 'I' for Inactive)
REMARK    1  A    between atoms: C_1  and  C_2
REMARK    2  A    between atoms: C_2  and  C_24
REMARK    3  A    between atoms: C_3  and  C_4
REMARK    4  A    between atoms: C_4  and  C_5
REMARK    5  A    between atoms: C_6  and  O_7
REMARK    6  A    between atoms: C_10  and  C_11
REMARK    7  A    between atoms: C_11  and  C_13
REMARK    8  A    between atoms: C_14  and  C_15
REMARK    9  A    between atoms: C_18  and  O_19
REMARK   10  A    between atoms: C_22  and  O_23
REMARK   11  A    between atoms: C_24  and  C_25
REMARK   12  A    between atoms: C_26  and  C_27
REMARK   13  A    between atoms: C_27  and  C_28
REMARK   14  A    between atoms: C_27  and  C_29
REMARK   15  A    between atoms: C_27  and  O_30
REMARK                            x       y       z     vdW  Elec       q    Type
REMARK                         _______ _______ _______ _____ _____    ______ ____
ROOT
ATOM      1  C   UNL     1       1.953   8.002  19.548  0.00  0.00    +0.000 A 
ATOM      2  C   UNL     1       2.508   8.393  18.329  0.00  0.00    +0.000 A 
ATOM      3  C   UNL     1       2.281   9.667  17.810  0.00  0.00    +0.000 A 
ATOM      4  C   UNL     1       1.477  10.580  18.496  0.00  0.00    +0.000 A 
ATOM      5  C   UNL     1       0.888  10.230  19.717  0.00  0.00    +0.000 A 
ATOM      6  C   UNL     1       1.140   8.936  20.230  0.00  0.00    +0.000 A 
ENDROOT
BRANCH   2   7
ATOM      7  O   UNL     1       3.291   7.594  17.546  0.00  0.00    +0.000 OA
ATOM      8  H   UNL     1       3.114   6.661  17.732  0.00  0.00    +0.000 HD
ENDBRANCH   2   7
BRANCH   5   9
ATOM      9  C   UNL     1       0.009  11.176  20.484  0.00  0.00    +0.000 C 
ATOM     10  O   UNL     1       0.433  11.662  21.533  0.00  0.00    +0.000 OA
BRANCH   9  11
ATOM     11  C   UNL     1      -1.348  11.494  19.982  0.00  0.00    +0.000 C 
ATOM     12  C   UNL     1      -1.791  10.950  18.830  0.00  0.00    +0.000 C 
BRANCH  12  13
ATOM     13  C   UNL     1      -3.126  11.291  18.337  0.00  0.00    +0.000 A 
ATOM     14  C   UNL     1      -3.489  10.980  17.019  0.00  0.00    +0.000 A 
ATOM     15  C   UNL     1      -4.737  11.363  16.523  0.00  0.00    +0.000 A 
ATOM     16  C   UNL     1      -5.618  12.055  17.348  0.00  0.00    +0.000 A 
ATOM     17  C   UNL     1      -5.274  12.360  18.660  0.00  0.00    +0.000 A 
ATOM     18  C   UNL     1      -4.025  11.981  19.156  0.00  0.00    +0.000 A 
BRANCH  16  19
ATOM     19  O   UNL     1      -6.840  12.462  16.902  0.00  0.00    +0.000 OA
ATOM     20  H   UNL     1      -7.526  11.970  17.384  0.00  0.00    +0.000 HD
ENDBRANCH  16  19
ENDBRANCH  12  13
ENDBRANCH   9  11
ENDBRANCH   5   9
BRANCH   6  21
ATOM     21  O   UNL     1       0.591   8.520  21.423  0.00  0.00    +0.000 OA
ATOM     22  H   UNL     1      -0.312   8.166  21.251  0.00  0.00    +0.000 HD
ENDBRANCH   6  21
BRANCH   1  23
ATOM     23  C   UNL     1       2.212   6.645  20.180  0.00  0.00    +0.000 C 
BRANCH  23  26
ATOM     24  C   UNL     1       1.019   3.830  19.944  0.00  0.00    +0.000 C 
ATOM     25  C   UNL     1       2.068   4.378  19.017  0.00  0.00    +0.000 C 
ATOM     26  C   UNL     1       2.637   5.593  19.180  0.00  0.00    +0.000 C 
BRANCH  25  27
ATOM     27  C   UNL     1       2.504   3.415  17.922  0.00  0.00    +0.000 C 
BRANCH  27  28
ATOM     28  C   UNL     1       3.461   4.055  16.950  0.00  0.00    +0.000 C 
ATOM     29  C   UNL     1       4.801   3.916  16.921  0.00  0.00    +0.000 C 
BRANCH  29  30
ATOM     30  C   UNL     1       5.705   4.641  15.940  0.00  0.00    +0.000 C 
ATOM     31  C   UNL     1       7.172   4.645  16.382  0.00  0.00    +0.000 C 
ATOM     32  C   UNL     1       5.577   4.047  14.538  0.00  0.00    +0.000 C 
BRANCH  30  33
ATOM     33  O   UNL     1       5.297   6.011  15.864  0.00  0.00    +0.000 OA
ATOM     34  H   UNL     1       6.101   6.546  15.969  0.00  0.00    +0.000 HD
ENDBRANCH  30  33
ENDBRANCH  29  30
ENDBRANCH  27  28
ENDBRANCH  25  27
ENDBRANCH  23  26
ENDBRANCH   1  23
TORSDOF 12
ENDMDL
MODEL 8
REMARK VINA RESULT:      -7.5      4.631      8.798
REMARK  Name = 
REMARK  15 active torsions:
REMARK  status: ('A' for Active; 'I' for Inactive)
REMARK    1  A    between atoms: C_1  and  C_2
REMARK    2  A    between atoms: C_2  and  C_24
REMARK    3  A    between atoms: C_3  and  C_4
REMARK    4  A    between atoms: C_4  and  C_5
REMARK    5  A    between atoms: C_6  and  O_7
REMARK    6  A    between atoms: C_10  and  C_11
REMARK    7  A    between atoms: C_11  and  C_13
REMARK    8  A    between atoms: C_14  and  C_15
REMARK    9  A    between atoms: C_18  and  O_19
REMARK   10  A    between atoms: C_22  and  O_23
REMARK   11  A    between atoms: C_24  and  C_25
REMARK   12  A    between atoms: C_26  and  C_27
REMARK   13  A    between atoms: C_27  and  C_28
REMARK   14  A    between atoms: C_27  and  C_29
REMARK   15  A    between atoms: C_27  and  O_30
REMARK                            x       y       z     vdW  Elec       q    Type
REMARK                         _______ _______ _______ _____ _____    ______ ____
ROOT
ATOM      1  C   UNL     1       1.851   8.536  19.025  0.00  0.00    +0.000 A 
ATOM      2  C   UNL     1       1.767   7.815  20.217  0.00  0.00    +0.000 A 
ATOM      3  C   UNL     1       0.837   8.153  21.199  0.00  0.00    +0.000 A 
ATOM      4  C   UNL     1      -0.026   9.235  21.016  0.00  0.00    +0.000 A 
ATOM      5  C   UNL     1       0.028   9.997  19.843  0.00  0.00    +0.000 A 
ATOM      6  C   UNL     1       0.972   9.630  18.855  0.00  0.00    +0.000 A 
ENDROOT
BRANCH   2   7
ATOM      7  O   UNL     1       2.564   6.752  20.533  0.00  0.00    +0.000 OA
ATOM      8  H   UNL     1       2.219   6.291  21.311  0.00  0.00    +0.000 HD
ENDBRANCH   2   7
BRANCH   5   9
ATOM      9  C   UNL     1      -0.874  11.174  19.608  0.00  0.00    +0.000 C 
ATOM     10  O   UNL     1      -1.221  11.436  18.456  0.00  0.00    +0.000 OA
BRANCH   9  11
ATOM     11  C   UNL     1      -1.315  12.006  20.752  0.00  0.00    +0.000 C 
ATOM     12  C   UNL     1      -2.587  12.448  20.820  0.00  0.00    +0.000 C 
BRANCH  12  13
ATOM     13  C   UNL     1      -3.003  13.286  21.945  0.00  0.00    +0.000 A 
ATOM     14  C   UNL     1      -2.788  14.670  21.907  0.00  0.00    +0.000 A 
ATOM     15  C   UNL     1      -3.121  15.465  23.006  0.00  0.00    +0.000 A 
ATOM     16  C   UNL     1      -3.668  14.871  24.139  0.00  0.00    +0.000 A 
ATOM     17  C   UNL     1      -3.895  13.501  24.186  0.00  0.00    +0.000 A 
ATOM     18  C   UNL     1      -3.559  12.705  23.089  0.00  0.00    +0.000 A 
BRANCH  16  19
ATOM     19  O   UNL     1      -3.993  15.606  25.240  0.00  0.00    +0.000 OA
ATOM     20  H   UNL     1      -4.711  16.217  25.004  0.00  0.00    +0.000 HD
ENDBRANCH  16  19
ENDBRANCH  12  13
ENDBRANCH   9  11
ENDBRANCH   5   9
BRANCH   6  21
ATOM     21  O   UNL     1       1.086  10.334  17.677  0.00  0.00    +0.000 OA
ATOM     22  H   UNL     1       0.185  10.505  17.321  0.00  0.00    +0.000 HD
ENDBRANCH   6  21
BRANCH   1  23
ATOM     23  C   UNL     1       2.811   8.175  17.904  0.00  0.00    +0.000 C 
BRANCH  23  26
ATOM     24  C   UNL     1       5.255   6.797  16.666  0.00  0.00    +0.000 C 
ATOM     25  C   UNL     1       4.076   6.061  17.240  0.00  0.00    +0.000 C 
ATOM     26  C   UNL     1       2.974   6.684  17.714  0.00  0.00    +0.000 C 
BRANCH  25  27
ATOM     27  C   UNL     1       4.186   4.545  17.168  0.00  0.00    +0.000 C 
BRANCH  27  28
ATOM     28  C   UNL     1       3.107   3.858  17.963  0.00  0.00    +0.000 C 
ATOM     29  C   UNL     1       3.149   3.524  19.269  0.00  0.00    +0.000 C 
BRANCH  29  30
ATOM     30  C   UNL     1       2.037   2.780  19.987  0.00  0.00    +0.000 C 
ATOM     31  C   UNL     1       2.376   2.483  21.451  0.00  0.00    +0.000 C 
ATOM     32  C   UNL     1       0.719   3.548  19.894  0.00  0.00    +0.000 C 
BRANCH  30  33
ATOM     33  O   UNL     1       1.841   1.515  19.346  0.00  0.00    +0.000 OA
ATOM     34  H   UNL     1       2.638   0.988  19.524  0.00  0.00    +0.000 HD
ENDBRANCH  30  33
ENDBRANCH  29  30
ENDBRANCH  27  28
ENDBRANCH  25  27
ENDBRANCH  23  26
ENDBRANCH   1  23
TORSDOF 12
ENDMDL
MODEL 9
REMARK VINA RESULT:      -7.4      4.698     11.150
REMARK  Name = 
REMARK  15 active torsions:
REMARK  status: ('A' for Active; 'I' for Inactive)
REMARK    1  A    between atoms: C_1  and  C_2
REMARK    2  A    between atoms: C_2  and  C_24
REMARK    3  A    between atoms: C_3  and  C_4
REMARK    4  A    between atoms: C_4  and  C_5
REMARK    5  A    between atoms: C_6  and  O_7
REMARK    6  A    between atoms: C_10  and  C_11
REMARK    7  A    between atoms: C_11  and  C_13
REMARK    8  A    between atoms: C_14  and  C_15
REMARK    9  A    between atoms: C_18  and  O_19
REMARK   10  A    between atoms: C_22  and  O_23
REMARK   11  A    between atoms: C_24  and  C_25
REMARK   12  A    between atoms: C_26  and  C_27
REMARK   13  A    between atoms: C_27  and  C_28
REMARK   14  A    between atoms: C_27  and  C_29
REMARK   15  A    between atoms: C_27  and  O_30
REMARK                            x       y       z     vdW  Elec       q    Type
REMARK                         _______ _______ _______ _____ _____    ______ ____
ROOT
ATOM      1  C   UNL     1      -0.345  11.160  21.215  0.00  0.00    +0.000 A 
ATOM      2  C   UNL     1      -0.266  10.168  22.193  0.00  0.00    +0.000 A 
ATOM      3  C   UNL     1       0.370   8.954  21.937  0.00  0.00    +0.000 A 
ATOM      4  C   UNL     1       0.932   8.698  20.685  0.00  0.00    +0.000 A 
ATOM      5  C   UNL     1       0.867   9.657  19.667  0.00  0.00    +0.000 A 
ATOM      6  C   UNL     1       0.226  10.886  19.952  0.00  0.00    +0.000 A 
ENDROOT
BRANCH   2   7
ATOM      7  O   UNL     1      -0.792  10.278  23.449  0.00  0.00    +0.000 OA
ATOM      8  H   UNL     1      -1.713   9.983  23.456  0.00  0.00    +0.000 HD
ENDBRANCH   2   7
BRANCH   5   9
ATOM      9  C   UNL     1       1.448   9.421  18.303  0.00  0.00    +0.000 C 
ATOM     10  O   UNL     1       1.397  10.327  17.471  0.00  0.00    +0.000 OA
BRANCH   9  11
ATOM     11  C   UNL     1       2.054   8.109  17.975  0.00  0.00    +0.000 C 
ATOM     12  C   UNL     1       3.392   7.990  17.854  0.00  0.00    +0.000 C 
BRANCH  12  13
ATOM     13  C   UNL     1       3.974   6.693  17.510  0.00  0.00    +0.000 A 
ATOM     14  C   UNL     1       4.897   6.593  16.460  0.00  0.00    +0.000 A 
ATOM     15  C   UNL     1       5.404   5.347  16.083  0.00  0.00    +0.000 A 
ATOM     16  C   UNL     1       4.985   4.206  16.759  0.00  0.00    +0.000 A 
ATOM     17  C   UNL     1       4.077   4.292  17.809  0.00  0.00    +0.000 A 
ATOM     18  C   UNL     1       3.567   5.537  18.183  0.00  0.00    +0.000 A 
BRANCH  16  19
ATOM     19  O   UNL     1       5.442   2.968  16.416  0.00  0.00    +0.000 OA
ATOM     20  H   UNL     1       6.410   2.963  16.489  0.00  0.00    +0.000 HD
ENDBRANCH  16  19
ENDBRANCH  12  13
ENDBRANCH   9  11
ENDBRANCH   5   9
BRANCH   6  21
ATOM     21  O   UNL     1       0.119  11.875  19.000  0.00  0.00    +0.000 OA
ATOM     22  H   UNL     1       0.939  11.881  18.455  0.00  0.00    +0.000 HD
ENDBRANCH   6  21
BRANCH   1  23
ATOM     23  C   UNL     1      -0.982  12.518  21.462  0.00  0.00    +0.000 C 
BRANCH  23  26
ATOM     24  C   UNL     1      -2.996  13.001  23.723  0.00  0.00    +0.000 C 
ATOM     25  C   UNL     1      -3.382  12.794  22.285  0.00  0.00    +0.000 C 
ATOM     26  C   UNL     1      -2.486  12.508  21.313  0.00  0.00    +0.000 C 
BRANCH  25  27
ATOM     27  C   UNL     1      -4.879  12.849  22.021  0.00  0.00    +0.000 C 
BRANCH  27  28
ATOM     28  C   UNL     1      -5.219  12.496  20.597  0.00  0.00    +0.000 C 
ATOM     29  C   UNL     1      -6.106  11.570  20.180  0.00  0.00    +0.000 C 
BRANCH  29  30
ATOM     30  C   UNL     1      -6.353  11.234  18.720  0.00  0.00    +0.000 C 
ATOM     31  C   UNL     1      -7.056  12.366  17.964  0.00  0.00    +0.000 C 
ATOM     32  C   UNL     1      -5.048  10.860  18.018  0.00  0.00    +0.000 C 
BRANCH  30  33
ATOM     33  O   UNL     1      -7.218  10.095  18.650  0.00  0.00    +0.000 OA
ATOM     34  H   UNL     1      -8.091  10.391  18.957  0.00  0.00    +0.000 HD
ENDBRANCH  30  33
ENDBRANCH  29  30
ENDBRANCH  27  28
ENDBRANCH  25  27
ENDBRANCH  23  26
ENDBRANCH   1  23
TORSDOF 12
ENDMDL
