MODEL 1
REMARK VINA RESULT:      -8.3      0.000      0.000
REMARK  Name = 
REMARK  2 active torsions:
REMARK  status: ('A' for Active; 'I' for Inactive)
REMARK    1  A    between atoms: C_5  and  N_6
REMARK    2  A    between atoms: N_6  and  C_7
REMARK                            x       y       z     vdW  Elec       q    Type
REMARK                         _______ _______ _______ _____ _____    ______ ____
ROOT
ATOM      1  C   UNL     1       6.341   4.638  18.056  0.00  0.00    +0.000 A 
ATOM      2  N   UNL     1       6.969   5.729  18.569  0.00  0.00    +0.000 NA
ATOM      3  C   UNL     1       7.525   6.620  17.731  0.00  0.00    +0.000 A 
ATOM      4 CL   UNL     1       8.280   7.958  18.482  0.00  0.00    +0.000 Cl
ATOM      5  N   UNL     1       7.559   6.609  16.386  0.00  0.00    +0.000 NA
ATOM      6  C   UNL     1       6.937   5.518  15.921  0.00  0.00    +0.000 A 
ATOM      7  N   UNL     1       6.757   5.175  14.614  0.00  0.00    +0.000 N 
ATOM      8  C   UNL     1       6.068   3.993  14.590  0.00  0.00    +0.000 A 
ATOM      9  N   UNL     1       5.789   3.561  15.804  0.00  0.00    +0.000 NA
ATOM     10  C   UNL     1       6.329   4.509  16.651  0.00  0.00    +0.000 A 
ATOM     11  H   UNL     1       7.071   5.716  13.820  0.00  0.00    +0.000 HD
ENDROOT
BRANCH   1  12
ATOM     12  N   UNL     1       5.692   3.693  18.870  0.00  0.00    +0.000 N 
ATOM     13  H   UNL     1       6.295   2.899  19.068  0.00  0.00    +0.000 HD
BRANCH  12  18
ATOM     14  F   UNL     1       0.252   2.855  19.613  0.00  0.00    +0.000 F 
ATOM     15  C   UNL     1       1.570   3.055  19.475  0.00  0.00    +0.000 A 
ATOM     16  C   UNL     1       2.374   2.033  18.994  0.00  0.00    +0.000 A 
ATOM     17  C   UNL     1       3.746   2.253  18.827  0.00  0.00    +0.000 A 
ATOM     18  C   UNL     1       4.324   3.499  19.127  0.00  0.00    +0.000 A 
ATOM     19  C   UNL     1       3.486   4.494  19.649  0.00  0.00    +0.000 A 
ATOM     20  C   UNL     1       2.114   4.282  19.816  0.00  0.00    +0.000 A 
ENDBRANCH  12  18
ENDBRANCH   1  12
TORSDOF 2
ENDMDL
MODEL 2
REMARK VINA RESULT:      -8.3      0.103      1.135
REMARK  Name = 
REMARK  2 active torsions:
REMARK  status: ('A' for Active; 'I' for Inactive)
REMARK    1  A    between atoms: C_5  and  N_6
REMARK    2  A    between atoms: N_6  and  C_7
REMARK                            x       y       z     vdW  Elec       q    Type
REMARK                         _______ _______ _______ _____ _____    ______ ____
ROOT
ATOM      1  C   UNL     1       6.312   4.652  18.036  0.00  0.00    +0.000 A 
ATOM      2  N   UNL     1       6.937   5.744  18.553  0.00  0.00    +0.000 NA
ATOM      3  C   UNL     1       7.521   6.620  17.718  0.00  0.00    +0.000 A 
ATOM      4 CL   UNL     1       8.270   7.960  18.473  0.00  0.00    +0.000 Cl
ATOM      5  N   UNL     1       7.587   6.593  16.375  0.00  0.00    +0.000 NA
ATOM      6  C   UNL     1       6.967   5.503  15.907  0.00  0.00    +0.000 A 
ATOM      7  N   UNL     1       6.816   5.147  14.600  0.00  0.00    +0.000 N 
ATOM      8  C   UNL     1       6.117   3.971  14.572  0.00  0.00    +0.000 A 
ATOM      9  N   UNL     1       5.805   3.555  15.784  0.00  0.00    +0.000 NA
ATOM     10  C   UNL     1       6.333   4.507  16.633  0.00  0.00    +0.000 A 
ATOM     11  H   UNL     1       7.153   5.676  13.808  0.00  0.00    +0.000 HD
ENDROOT
BRANCH   1  12
ATOM     12  N   UNL     1       5.636   3.722  18.845  0.00  0.00    +0.000 N 
ATOM     13  H   UNL     1       6.252   2.969  19.138  0.00  0.00    +0.000 HD
BRANCH  12  18
ATOM     14  F   UNL     1       0.230   2.793  19.719  0.00  0.00    +0.000 F 
ATOM     15  C   UNL     1       1.526   3.024  19.468  0.00  0.00    +0.000 A 
ATOM     16  C   UNL     1       2.101   4.222  19.865  0.00  0.00    +0.000 A 
ATOM     17  C   UNL     1       3.461   4.450  19.623  0.00  0.00    +0.000 A 
ATOM     18  C   UNL     1       4.260   3.477  18.996  0.00  0.00    +0.000 A 
ATOM     19  C   UNL     1       3.634   2.296  18.574  0.00  0.00    +0.000 A 
ATOM     20  C   UNL     1       2.277   2.061  18.814  0.00  0.00    +0.000 A 
ENDBRANCH  12  18
ENDBRANCH   1  12
TORSDOF 2
ENDMDL
MODEL 3
REMARK VINA RESULT:      -8.0      2.008      2.961
REMARK  Name = 
REMARK  2 active torsions:
REMARK  status: ('A' for Active; 'I' for Inactive)
REMARK    1  A    between atoms: C_5  and  N_6
REMARK    2  A    between atoms: N_6  and  C_7
REMARK                            x       y       z     vdW  Elec       q    Type
REMARK                         _______ _______ _______ _____ _____    ______ ____
ROOT
ATOM      1  C   UNL     1       5.655   3.854  16.429  0.00  0.00    +0.000 A 
ATOM      2  N   UNL     1       5.769   3.538  15.112  0.00  0.00    +0.000 NA
ATOM      3  C   UNL     1       6.535   4.307  14.318  0.00  0.00    +0.000 A 
ATOM      4 CL   UNL     1       6.615   3.814  12.682  0.00  0.00    +0.000 Cl
ATOM      5  N   UNL     1       7.251   5.399  14.636  0.00  0.00    +0.000 NA
ATOM      6  C   UNL     1       7.107   5.680  15.937  0.00  0.00    +0.000 A 
ATOM      7  N   UNL     1       7.694   6.702  16.622  0.00  0.00    +0.000 N 
ATOM      8  C   UNL     1       7.281   6.615  17.924  0.00  0.00    +0.000 A 
ATOM      9  N   UNL     1       6.470   5.594  18.116  0.00  0.00    +0.000 NA
ATOM     10  C   UNL     1       6.350   4.997  16.876  0.00  0.00    +0.000 A 
ATOM     11  H   UNL     1       8.328   7.382  16.226  0.00  0.00    +0.000 HD
ENDROOT
BRANCH   1  12
ATOM     12  N   UNL     1       4.915   3.066  17.328  0.00  0.00    +0.000 N 
ATOM     13  H   UNL     1       5.116   2.077  17.207  0.00  0.00    +0.000 HD
BRANCH  12  18
ATOM     14  F   UNL     1       0.342   4.002  20.337  0.00  0.00    +0.000 F 
ATOM     15  C   UNL     1       1.447   3.817  19.603  0.00  0.00    +0.000 A 
ATOM     16  C   UNL     1       2.660   3.581  20.232  0.00  0.00    +0.000 A 
ATOM     17  C   UNL     1       3.808   3.363  19.461  0.00  0.00    +0.000 A 
ATOM     18  C   UNL     1       3.751   3.366  18.056  0.00  0.00    +0.000 A 
ATOM     19  C   UNL     1       2.515   3.647  17.457  0.00  0.00    +0.000 A 
ATOM     20  C   UNL     1       1.364   3.863  18.221  0.00  0.00    +0.000 A 
ENDBRANCH  12  18
ENDBRANCH   1  12
TORSDOF 2
ENDMDL
MODEL 4
REMARK VINA RESULT:      -7.9      2.023      2.954
REMARK  Name = 
REMARK  2 active torsions:
REMARK  status: ('A' for Active; 'I' for Inactive)
REMARK    1  A    between atoms: C_5  and  N_6
REMARK    2  A    between atoms: N_6  and  C_7
REMARK                            x       y       z     vdW  Elec       q    Type
REMARK                         _______ _______ _______ _____ _____    ______ ____
ROOT
ATOM      1  C   UNL     1       5.609   3.798  16.379  0.00  0.00    +0.000 A 
ATOM      2  N   UNL     1       5.746   3.537  15.052  0.00  0.00    +0.000 NA
ATOM      3  C   UNL     1       6.517   4.345  14.303  0.00  0.00    +0.000 A 
ATOM      4 CL   UNL     1       6.627   3.921  12.649  0.00  0.00    +0.000 Cl
ATOM      5  N   UNL     1       7.219   5.429  14.676  0.00  0.00    +0.000 NA
ATOM      6  C   UNL     1       7.051   5.655  15.985  0.00  0.00    +0.000 A 
ATOM      7  N   UNL     1       7.619   6.652  16.721  0.00  0.00    +0.000 N 
ATOM      8  C   UNL     1       7.187   6.508  18.012  0.00  0.00    +0.000 A 
ATOM      9  N   UNL     1       6.382   5.473  18.149  0.00  0.00    +0.000 NA
ATOM     10  C   UNL     1       6.287   4.927  16.883  0.00  0.00    +0.000 A 
ATOM     11  H   UNL     1       8.253   7.353  16.364  0.00  0.00    +0.000 HD
ENDROOT
BRANCH   1  12
ATOM     12  N   UNL     1       4.862   2.967  17.233  0.00  0.00    +0.000 N 
ATOM     13  H   UNL     1       5.003   1.985  17.011  0.00  0.00    +0.000 HD
BRANCH  12  18
ATOM     14  F   UNL     1       0.437   4.362  20.286  0.00  0.00    +0.000 F 
ATOM     15  C   UNL     1       1.498   3.986  19.559  0.00  0.00    +0.000 A 
ATOM     16  C   UNL     1       1.418   3.985  18.174  0.00  0.00    +0.000 A 
ATOM     17  C   UNL     1       2.536   3.615  17.418  0.00  0.00    +0.000 A 
ATOM     18  C   UNL     1       3.746   3.256  18.037  0.00  0.00    +0.000 A 
ATOM     19  C   UNL     1       3.776   3.231  19.439  0.00  0.00    +0.000 A 
ATOM     20  C   UNL     1       2.663   3.601  20.200  0.00  0.00    +0.000 A 
ENDBRANCH  12  18
ENDBRANCH   1  12
TORSDOF 2
ENDMDL
MODEL 5
REMARK VINA RESULT:      -7.8      1.231      1.430
REMARK  Name = 
REMARK  2 active torsions:
REMARK  status: ('A' for Active; 'I' for Inactive)
REMARK    1  A    between atoms: C_5  and  N_6
REMARK    2  A    between atoms: N_6  and  C_7
REMARK                            x       y       z     vdW  Elec       q    Type
REMARK                         _______ _______ _______ _____ _____    ______ ____
ROOT
ATOM      1  C   UNL     1       5.783   4.061  16.779  0.00  0.00    +0.000 A 
ATOM      2  N   UNL     1       6.345   4.902  17.687  0.00  0.00    +0.000 NA
ATOM      3  C   UNL     1       7.216   5.836  17.265  0.00  0.00    +0.000 A 
ATOM      4 CL   UNL     1       7.855   6.845  18.489  0.00  0.00    +0.000 Cl
ATOM      5  N   UNL     1       7.643   6.090  16.016  0.00  0.00    +0.000 NA
ATOM      6  C   UNL     1       7.073   5.238  15.154  0.00  0.00    +0.000 A 
ATOM      7  N   UNL     1       7.251   5.202  13.803  0.00  0.00    +0.000 N 
ATOM      8  C   UNL     1       6.477   4.185  13.313  0.00  0.00    +0.000 A 
ATOM      9  N   UNL     1       5.808   3.571  14.269  0.00  0.00    +0.000 NA
ATOM     10  C   UNL     1       6.173   4.222  15.432  0.00  0.00    +0.000 A 
ATOM     11  H   UNL     1       7.840   5.830  13.275  0.00  0.00    +0.000 HD
ENDROOT
BRANCH   1  12
ATOM     12  N   UNL     1       4.827   3.097  17.140  0.00  0.00    +0.000 N 
ATOM     13  H   UNL     1       4.789   2.340  16.462  0.00  0.00    +0.000 HD
BRANCH  12  18
ATOM     14  F   UNL     1       0.481   3.717  20.542  0.00  0.00    +0.000 F 
ATOM     15  C   UNL     1       1.523   3.526  19.722  0.00  0.00    +0.000 A 
ATOM     16  C   UNL     1       1.407   3.842  18.376  0.00  0.00    +0.000 A 
ATOM     17  C   UNL     1       2.505   3.664  17.527  0.00  0.00    +0.000 A 
ATOM     18  C   UNL     1       3.732   3.184  18.017  0.00  0.00    +0.000 A 
ATOM     19  C   UNL     1       3.799   2.838  19.374  0.00  0.00    +0.000 A 
ATOM     20  C   UNL     1       2.706   3.015  20.228  0.00  0.00    +0.000 A 
ENDBRANCH  12  18
ENDBRANCH   1  12
TORSDOF 2
ENDMDL
MODEL 6
REMARK VINA RESULT:      -7.8      2.167      3.219
REMARK  Name = 
REMARK  2 active torsions:
REMARK  status: ('A' for Active; 'I' for Inactive)
REMARK    1  A    between atoms: C_5  and  N_6
REMARK    2  A    between atoms: N_6  and  C_7
REMARK                            x       y       z     vdW  Elec       q    Type
REMARK                         _______ _______ _______ _____ _____    ______ ____
ROOT
ATOM      1  C   UNL     1       4.877   5.118  17.085  0.00  0.00    +0.000 A 
ATOM      2  N   UNL     1       5.039   4.685  15.806  0.00  0.00    +0.000 NA
ATOM      3  C   UNL     1       6.265   4.329  15.386  0.00  0.00    +0.000 A 
ATOM      4 CL   UNL     1       6.354   3.792  13.764  0.00  0.00    +0.000 Cl
ATOM      5  N   UNL     1       7.425   4.328  16.066  0.00  0.00    +0.000 NA
ATOM      6  C   UNL     1       7.224   4.767  17.315  0.00  0.00    +0.000 A 
ATOM      7  N   UNL     1       8.161   4.886  18.299  0.00  0.00    +0.000 N 
ATOM      8  C   UNL     1       7.526   5.363  19.414  0.00  0.00    +0.000 A 
ATOM      9  N   UNL     1       6.237   5.548  19.206  0.00  0.00    +0.000 NA
ATOM     10  C   UNL     1       6.033   5.178  17.891  0.00  0.00    +0.000 A 
ATOM     11  H   UNL     1       9.138   4.649  18.207  0.00  0.00    +0.000 HD
ENDROOT
BRANCH   1  12
ATOM     12  N   UNL     1       3.617   5.457  17.608  0.00  0.00    +0.000 N 
ATOM     13  H   UNL     1       3.419   6.446  17.487  0.00  0.00    +0.000 HD
BRANCH  12  18
ATOM     14  F   UNL     1       0.643   2.750  21.439  0.00  0.00    +0.000 F 
ATOM     15  C   UNL     1       1.325   3.419  20.500  0.00  0.00    +0.000 A 
ATOM     16  C   UNL     1       2.055   4.546  20.850  0.00  0.00    +0.000 A 
ATOM     17  C   UNL     1       2.786   5.228  19.871  0.00  0.00    +0.000 A 
ATOM     18  C   UNL     1       2.806   4.783  18.538  0.00  0.00    +0.000 A 
ATOM     19  C   UNL     1       2.025   3.664  18.215  0.00  0.00    +0.000 A 
ATOM     20  C   UNL     1       1.294   2.977  19.188  0.00  0.00    +0.000 A 
ENDBRANCH  12  18
ENDBRANCH   1  12
TORSDOF 2
ENDMDL
MODEL 7
REMARK VINA RESULT:      -7.8      2.115      3.035
REMARK  Name = 
REMARK  2 active torsions:
REMARK  status: ('A' for Active; 'I' for Inactive)
REMARK    1  A    between atoms: C_5  and  N_6
REMARK    2  A    between atoms: N_6  and  C_7
REMARK                            x       y       z     vdW  Elec       q    Type
REMARK                         _______ _______ _______ _____ _____    ______ ____
ROOT
ATOM      1  C   UNL     1       4.667   4.796  17.089  0.00  0.00    +0.000 A 
ATOM      2  N   UNL     1       4.932   4.431  15.806  0.00  0.00    +0.000 NA
ATOM      3  C   UNL     1       6.211   4.294  15.415  0.00  0.00    +0.000 A 
ATOM      4 CL   UNL     1       6.430   3.824  13.786  0.00  0.00    +0.000 Cl
ATOM      5  N   UNL     1       7.336   4.466  16.131  0.00  0.00    +0.000 NA
ATOM      6  C   UNL     1       7.033   4.830  17.383  0.00  0.00    +0.000 A 
ATOM      7  N   UNL     1       7.910   5.075  18.398  0.00  0.00    +0.000 N 
ATOM      8  C   UNL     1       7.176   5.410  19.503  0.00  0.00    +0.000 A 
ATOM      9  N   UNL     1       5.881   5.385  19.260  0.00  0.00    +0.000 NA
ATOM     10  C   UNL     1       5.775   5.023  17.931  0.00  0.00    +0.000 A 
ATOM     11  H   UNL     1       8.915   5.005  18.330  0.00  0.00    +0.000 HD
ENDROOT
BRANCH   1  12
ATOM     12  N   UNL     1       3.355   4.907  17.581  0.00  0.00    +0.000 N 
ATOM     13  H   UNL     1       2.882   5.721  17.197  0.00  0.00    +0.000 HD
BRANCH  12  18
ATOM     14  F   UNL     1       0.801   2.541  21.909  0.00  0.00    +0.000 F 
ATOM     15  C   UNL     1       1.451   3.117  20.889  0.00  0.00    +0.000 A 
ATOM     16  C   UNL     1       1.923   2.336  19.844  0.00  0.00    +0.000 A 
ATOM     17  C   UNL     1       2.580   2.944  18.768  0.00  0.00    +0.000 A 
ATOM     18  C   UNL     1       2.758   4.338  18.719  0.00  0.00    +0.000 A 
ATOM     19  C   UNL     1       2.303   5.089  19.812  0.00  0.00    +0.000 A 
ATOM     20  C   UNL     1       1.644   4.489  20.889  0.00  0.00    +0.000 A 
ENDBRANCH  12  18
ENDBRANCH   1  12
TORSDOF 2
ENDMDL
MODEL 8
REMARK VINA RESULT:      -7.8      1.217      1.307
REMARK  Name = 
REMARK  2 active torsions:
REMARK  status: ('A' for Active; 'I' for Inactive)
REMARK    1  A    between atoms: C_5  and  N_6
REMARK    2  A    between atoms: N_6  and  C_7
REMARK                            x       y       z     vdW  Elec       q    Type
REMARK                         _______ _______ _______ _____ _____    ______ ____
ROOT
ATOM      1  C   UNL     1       5.733   4.072  16.885  0.00  0.00    +0.000 A 
ATOM      2  N   UNL     1       6.320   4.907  17.783  0.00  0.00    +0.000 NA
ATOM      3  C   UNL     1       7.212   5.813  17.348  0.00  0.00    +0.000 A 
ATOM      4 CL   UNL     1       7.883   6.818  18.559  0.00  0.00    +0.000 Cl
ATOM      5  N   UNL     1       7.640   6.044  16.094  0.00  0.00    +0.000 NA
ATOM      6  C   UNL     1       7.045   5.199  15.243  0.00  0.00    +0.000 A 
ATOM      7  N   UNL     1       7.215   5.146  13.891  0.00  0.00    +0.000 N 
ATOM      8  C   UNL     1       6.413   4.144  13.415  0.00  0.00    +0.000 A 
ATOM      9  N   UNL     1       5.733   3.557  14.380  0.00  0.00    +0.000 NA
ATOM     10  C   UNL     1       6.120   4.209  15.535  0.00  0.00    +0.000 A 
ATOM     11  H   UNL     1       7.818   5.753  13.355  0.00  0.00    +0.000 HD
ENDROOT
BRANCH   1  12
ATOM     12  N   UNL     1       4.754   3.136  17.260  0.00  0.00    +0.000 N 
ATOM     13  H   UNL     1       4.636   2.418  16.550  0.00  0.00    +0.000 HD
BRANCH  12  18
ATOM     14  F   UNL     1       0.693   3.225  21.048  0.00  0.00    +0.000 F 
ATOM     15  C   UNL     1       1.677   3.244  20.139  0.00  0.00    +0.000 A 
ATOM     16  C   UNL     1       2.932   2.755  20.472  0.00  0.00    +0.000 A 
ATOM     17  C   UNL     1       3.950   2.754  19.512  0.00  0.00    +0.000 A 
ATOM     18  C   UNL     1       3.721   3.229  18.209  0.00  0.00    +0.000 A 
ATOM     19  C   UNL     1       2.452   3.752  17.922  0.00  0.00    +0.000 A 
ATOM     20  C   UNL     1       1.430   3.754  18.875  0.00  0.00    +0.000 A 
ENDBRANCH  12  18
ENDBRANCH   1  12
TORSDOF 2
ENDMDL
MODEL 9
REMARK VINA RESULT:      -7.7      1.645      1.720
REMARK  Name = 
REMARK  2 active torsions:
REMARK  status: ('A' for Active; 'I' for Inactive)
REMARK    1  A    between atoms: C_5  and  N_6
REMARK    2  A    between atoms: N_6  and  C_7
REMARK                            x       y       z     vdW  Elec       q    Type
REMARK                         _______ _______ _______ _____ _____    ______ ____
ROOT
ATOM      1  C   UNL     1       4.974   6.348  17.192  0.00  0.00    +0.000 A 
ATOM      2  N   UNL     1       5.776   7.347  17.648  0.00  0.00    +0.000 NA
ATOM      3  C   UNL     1       7.065   7.376  17.268  0.00  0.00    +0.000 A 
ATOM      4 CL   UNL     1       7.981   8.678  17.893  0.00  0.00    +0.000 Cl
ATOM      5  N   UNL     1       7.728   6.530  16.460  0.00  0.00    +0.000 NA
ATOM      6  C   UNL     1       6.906   5.560  16.039  0.00  0.00    +0.000 A 
ATOM      7  N   UNL     1       7.217   4.536  15.195  0.00  0.00    +0.000 N 
ATOM      8  C   UNL     1       6.085   3.784  15.026  0.00  0.00    +0.000 A 
ATOM      9  N   UNL     1       5.066   4.271  15.705  0.00  0.00    +0.000 NA
ATOM     10  C   UNL     1       5.566   5.387  16.347  0.00  0.00    +0.000 A 
ATOM     11  H   UNL     1       8.120   4.383  14.770  0.00  0.00    +0.000 HD
ENDROOT
BRANCH   1  12
ATOM     12  N   UNL     1       3.605   6.284  17.505  0.00  0.00    +0.000 N 
ATOM     13  H   UNL     1       3.121   7.134  17.228  0.00  0.00    +0.000 HD
BRANCH  12  18
ATOM     14  F   UNL     1       0.638   3.097  20.952  0.00  0.00    +0.000 F 
ATOM     15  C   UNL     1       1.388   3.844  20.131  0.00  0.00    +0.000 A 
ATOM     16  C   UNL     1       1.307   3.652  18.760  0.00  0.00    +0.000 A 
ATOM     17  C   UNL     1       2.073   4.452  17.904  0.00  0.00    +0.000 A 
ATOM     18  C   UNL     1       2.915   5.458  18.409  0.00  0.00    +0.000 A 
ATOM     19  C   UNL     1       3.001   5.594  19.802  0.00  0.00    +0.000 A 
ATOM     20  C   UNL     1       2.236   4.801  20.662  0.00  0.00    +0.000 A 
ENDBRANCH  12  18
ENDBRANCH   1  12
TORSDOF 2
ENDMDL
