MODEL 1
REMARK VINA RESULT:      -8.4      0.000      0.000
REMARK  Name = 
REMARK  5 active torsions:
REMARK  status: ('A' for Active; 'I' for Inactive)
REMARK    1  A    between atoms: C_1  and  N_2
REMARK    2  A    between atoms: N_5  and  C_6
REMARK    3  A    between atoms: C_6  and  C_7
REMARK    4  A    between atoms: N_15  and  S_16
REMARK    5  A    between atoms: S_16  and  C_19
REMARK                            x       y       z     vdW  Elec       q    Type
REMARK                         _______ _______ _______ _____ _____    ______ ____
ROOT
ATOM      1  C   UNL     1       1.874   7.831  20.089  0.00  0.00    +0.000 A 
ATOM      2  C   UNL     1       2.196   8.566  18.929  0.00  0.00    +0.000 A 
ATOM      3  C   UNL     1       2.542   7.932  17.741  0.00  0.00    +0.000 A 
ATOM      4  C   UNL     1       2.634   6.543  17.671  0.00  0.00    +0.000 A 
ATOM      5  C   UNL     1       2.457   5.799  18.850  0.00  0.00    +0.000 A 
ATOM      6  C   UNL     1       2.064   6.423  20.051  0.00  0.00    +0.000 A 
ATOM      7  C   UNL     1       1.923   5.390  21.026  0.00  0.00    +0.000 A 
ATOM      8  C   UNL     1       2.276   4.200  20.447  0.00  0.00    +0.000 A 
ATOM      9  N   UNL     1       2.569   4.452  19.129  0.00  0.00    +0.000 N 
ENDROOT
BRANCH   9  10
ATOM     10  S   UNL     1       3.227   3.246  18.100  0.00  0.00    +0.000 S 
ATOM     11  O   UNL     1       3.464   2.107  18.972  0.00  0.00    +0.000 OA
ATOM     12  O   UNL     1       2.364   3.149  16.942  0.00  0.00    +0.000 OA
BRANCH  10  13
ATOM     13  C   UNL     1       4.798   3.879  17.574  0.00  0.00    +0.000 A 
ATOM     14  C   UNL     1       5.155   3.819  16.220  0.00  0.00    +0.000 A 
ATOM     15  C   UNL     1       6.404   4.292  15.809  0.00  0.00    +0.000 A 
ATOM     16  C   UNL     1       7.289   4.829  16.743  0.00  0.00    +0.000 A 
ATOM     17  C   UNL     1       6.908   4.924  18.084  0.00  0.00    +0.000 A 
ATOM     18 CL   UNL     1       7.992   5.613  19.229  0.00  0.00    +0.000 Cl
ATOM     19  C   UNL     1       5.662   4.459  18.507  0.00  0.00    +0.000 A 
ENDBRANCH  10  13
ENDBRANCH   9  10
BRANCH   1  20
ATOM     20  C   UNL     1       1.308   8.577  21.293  0.00  0.00    +0.000 C 
BRANCH  20  25
ATOM     21  C   UNL     1      -0.575  12.870  22.279  0.00  0.00    +0.000 C 
ATOM     22  N   UNL     1      -0.913  11.496  21.927  0.00  0.00    +0.000 NA
ATOM     23  C   UNL     1      -0.474  10.554  22.974  0.00  0.00    +0.000 C 
ATOM     24  C   UNL     1      -0.726   9.076  22.591  0.00  0.00    +0.000 C 
ATOM     25  N   UNL     1      -0.166   8.669  21.281  0.00  0.00    +0.000 NA
ATOM     26  C   UNL     1      -0.646   9.642  20.274  0.00  0.00    +0.000 C 
ATOM     27  C   UNL     1      -0.346  11.121  20.620  0.00  0.00    +0.000 C 
ENDBRANCH  20  25
ENDBRANCH   1  20
TORSDOF 4
ENDMDL
MODEL 2
REMARK VINA RESULT:      -8.4      1.036      1.392
REMARK  Name = 
REMARK  5 active torsions:
REMARK  status: ('A' for Active; 'I' for Inactive)
REMARK    1  A    between atoms: C_1  and  N_2
REMARK    2  A    between atoms: N_5  and  C_6
REMARK    3  A    between atoms: C_6  and  C_7
REMARK    4  A    between atoms: N_15  and  S_16
REMARK    5  A    between atoms: S_16  and  C_19
REMARK                            x       y       z     vdW  Elec       q    Type
REMARK                         _______ _______ _______ _____ _____    ______ ____
ROOT
ATOM      1  C   UNL     1       1.872   7.887  20.070  0.00  0.00    +0.000 A 
ATOM      2  C   UNL     1       2.234   8.616  18.917  0.00  0.00    +0.000 A 
ATOM      3  C   UNL     1       2.589   7.976  17.736  0.00  0.00    +0.000 A 
ATOM      4  C   UNL     1       2.649   6.585  17.664  0.00  0.00    +0.000 A 
ATOM      5  C   UNL     1       2.430   5.843  18.837  0.00  0.00    +0.000 A 
ATOM      6  C   UNL     1       2.028   6.475  20.032  0.00  0.00    +0.000 A 
ATOM      7  C   UNL     1       1.842   5.443  21.001  0.00  0.00    +0.000 A 
ATOM      8  C   UNL     1       2.179   4.246  20.427  0.00  0.00    +0.000 A 
ATOM      9  N   UNL     1       2.504   4.494  19.116  0.00  0.00    +0.000 N 
ENDROOT
BRANCH   9  10
ATOM     10  S   UNL     1       3.153   3.274  18.098  0.00  0.00    +0.000 S 
ATOM     11  O   UNL     1       3.369   2.136  18.977  0.00  0.00    +0.000 OA
ATOM     12  O   UNL     1       2.298   3.182  16.934  0.00  0.00    +0.000 OA
BRANCH  10  13
ATOM     13  C   UNL     1       4.737   3.883  17.580  0.00  0.00    +0.000 A 
ATOM     14  C   UNL     1       5.658   4.331  18.538  0.00  0.00    +0.000 A 
ATOM     15  C   UNL     1       6.894   4.837  18.128  0.00  0.00    +0.000 A 
ATOM     16  C   UNL     1       7.214   4.888  16.772  0.00  0.00    +0.000 A 
ATOM     17  C   UNL     1       6.307   4.399  15.828  0.00  0.00    +0.000 A 
ATOM     18 CL   UNL     1       6.717   4.438  14.157  0.00  0.00    +0.000 Cl
ATOM     19  C   UNL     1       5.070   3.888  16.223  0.00  0.00    +0.000 A 
ENDBRANCH  10  13
ENDBRANCH   9  10
BRANCH   1  20
ATOM     20  C   UNL     1       1.300   8.644  21.263  0.00  0.00    +0.000 C 
BRANCH  20  25
ATOM     21  C   UNL     1      -0.676  12.838  22.470  0.00  0.00    +0.000 C 
ATOM     22  N   UNL     1      -0.985  11.475  22.052  0.00  0.00    +0.000 NA
ATOM     23  C   UNL     1      -0.517  10.493  23.049  0.00  0.00    +0.000 C 
ATOM     24  C   UNL     1      -0.737   9.031  22.595  0.00  0.00    +0.000 C 
ATOM     25  N   UNL     1      -0.177   8.702  21.264  0.00  0.00    +0.000 NA
ATOM     26  C   UNL     1      -0.685   9.712  20.308  0.00  0.00    +0.000 C 
ATOM     27  C   UNL     1      -0.417  11.178  20.725  0.00  0.00    +0.000 C 
ENDBRANCH  20  25
ENDBRANCH   1  20
TORSDOF 4
ENDMDL
MODEL 3
REMARK VINA RESULT:      -8.3      1.365      1.911
REMARK  Name = 
REMARK  5 active torsions:
REMARK  status: ('A' for Active; 'I' for Inactive)
REMARK    1  A    between atoms: C_1  and  N_2
REMARK    2  A    between atoms: N_5  and  C_6
REMARK    3  A    between atoms: C_6  and  C_7
REMARK    4  A    between atoms: N_15  and  S_16
REMARK    5  A    between atoms: S_16  and  C_19
REMARK                            x       y       z     vdW  Elec       q    Type
REMARK                         _______ _______ _______ _____ _____    ______ ____
ROOT
ATOM      1  C   UNL     1       1.545   8.121  19.650  0.00  0.00    +0.000 A 
ATOM      2  C   UNL     1       2.099   8.719  18.499  0.00  0.00    +0.000 A 
ATOM      3  C   UNL     1       2.826   7.977  17.575  0.00  0.00    +0.000 A 
ATOM      4  C   UNL     1       3.077   6.622  17.783  0.00  0.00    +0.000 A 
ATOM      5  C   UNL     1       2.656   6.039  18.990  0.00  0.00    +0.000 A 
ATOM      6  C   UNL     1       1.882   6.767  19.917  0.00  0.00    +0.000 A 
ATOM      7  C   UNL     1       1.582   5.877  20.992  0.00  0.00    +0.000 A 
ATOM      8  C   UNL     1       2.204   4.682  20.749  0.00  0.00    +0.000 A 
ATOM      9  N   UNL     1       2.825   4.779  19.527  0.00  0.00    +0.000 N 
ENDROOT
BRANCH   9  10
ATOM     10  S   UNL     1       3.865   3.548  18.938  0.00  0.00    +0.000 S 
ATOM     11  O   UNL     1       4.246   2.791  20.119  0.00  0.00    +0.000 OA
ATOM     12  O   UNL     1       3.198   2.920  17.817  0.00  0.00    +0.000 OA
BRANCH  10  13
ATOM     13  C   UNL     1       5.302   4.392  18.332  0.00  0.00    +0.000 A 
ATOM     14  C   UNL     1       6.108   5.120  19.218  0.00  0.00    +0.000 A 
ATOM     15  C   UNL     1       7.225   5.808  18.736  0.00  0.00    +0.000 A 
ATOM     16  C   UNL     1       7.540   5.763  17.379  0.00  0.00    +0.000 A 
ATOM     17  C   UNL     1       6.756   4.999  16.510  0.00  0.00    +0.000 A 
ATOM     18 CL   UNL     1       7.166   4.923  14.840  0.00  0.00    +0.000 Cl
ATOM     19  C   UNL     1       5.641   4.304  16.979  0.00  0.00    +0.000 A 
ENDBRANCH  10  13
ENDBRANCH   9  10
BRANCH   1  20
ATOM     20  C   UNL     1       0.592   8.942  20.512  0.00  0.00    +0.000 C 
BRANCH  20  25
ATOM     21  C   UNL     1      -2.172  11.774  23.214  0.00  0.00    +0.000 C 
ATOM     22  N   UNL     1      -0.792  11.365  22.976  0.00  0.00    +0.000 NA
ATOM     23  C   UNL     1      -0.352  11.734  21.618  0.00  0.00    +0.000 C 
ATOM     24  C   UNL     1       1.074  11.229  21.294  0.00  0.00    +0.000 C 
ATOM     25  N   UNL     1       1.284   9.779  21.513  0.00  0.00    +0.000 NA
ATOM     26  C   UNL     1       0.835   9.471  22.890  0.00  0.00    +0.000 C 
ATOM     27  C   UNL     1      -0.613   9.921  23.205  0.00  0.00    +0.000 C 
ENDBRANCH  20  25
ENDBRANCH   1  20
TORSDOF 4
ENDMDL
MODEL 4
REMARK VINA RESULT:      -8.2      1.027      1.407
REMARK  Name = 
REMARK  5 active torsions:
REMARK  status: ('A' for Active; 'I' for Inactive)
REMARK    1  A    between atoms: C_1  and  N_2
REMARK    2  A    between atoms: N_5  and  C_6
REMARK    3  A    between atoms: C_6  and  C_7
REMARK    4  A    between atoms: N_15  and  S_16
REMARK    5  A    between atoms: S_16  and  C_19
REMARK                            x       y       z     vdW  Elec       q    Type
REMARK                         _______ _______ _______ _____ _____    ______ ____
ROOT
ATOM      1  C   UNL     1       1.662   7.755  19.815  0.00  0.00    +0.000 A 
ATOM      2  C   UNL     1       2.127   8.433  18.668  0.00  0.00    +0.000 A 
ATOM      3  C   UNL     1       2.827   7.769  17.667  0.00  0.00    +0.000 A 
ATOM      4  C   UNL     1       3.139   6.415  17.787  0.00  0.00    +0.000 A 
ATOM      5  C   UNL     1       2.809   5.755  18.983  0.00  0.00    +0.000 A 
ATOM      6  C   UNL     1       2.062   6.403  19.989  0.00  0.00    +0.000 A 
ATOM      7  C   UNL     1       1.857   5.448  21.030  0.00  0.00    +0.000 A 
ATOM      8  C   UNL     1       2.507   4.292  20.689  0.00  0.00    +0.000 A 
ATOM      9  N   UNL     1       3.053   4.477  19.442  0.00  0.00    +0.000 N 
ENDROOT
BRANCH   9  10
ATOM     10  S   UNL     1       4.102   3.319  18.731  0.00  0.00    +0.000 S 
ATOM     11  O   UNL     1       4.755   2.673  19.857  0.00  0.00    +0.000 OA
ATOM     12  O   UNL     1       3.324   2.566  17.770  0.00  0.00    +0.000 OA
BRANCH  10  13
ATOM     13  C   UNL     1       5.319   4.261  17.849  0.00  0.00    +0.000 A 
ATOM     14  C   UNL     1       5.419   4.139  16.456  0.00  0.00    +0.000 A 
ATOM     15  C   UNL     1       6.396   4.859  15.764  0.00  0.00    +0.000 A 
ATOM     16  C   UNL     1       7.263   5.704  16.457  0.00  0.00    +0.000 A 
ATOM     17  C   UNL     1       7.127   5.852  17.840  0.00  0.00    +0.000 A 
ATOM     18 CL   UNL     1       8.181   6.917  18.687  0.00  0.00    +0.000 Cl
ATOM     19  C   UNL     1       6.153   5.142  18.542  0.00  0.00    +0.000 A 
ENDBRANCH  10  13
ENDBRANCH   9  10
BRANCH   1  20
ATOM     20  C   UNL     1       0.730   8.492  20.771  0.00  0.00    +0.000 C 
BRANCH  20  25
ATOM     21  C   UNL     1      -2.048  11.607  23.124  0.00  0.00    +0.000 C 
ATOM     22  N   UNL     1      -0.662  11.216  22.893  0.00  0.00    +0.000 NA
ATOM     23  C   UNL     1      -0.288  11.386  21.476  0.00  0.00    +0.000 C 
ATOM     24  C   UNL     1       1.145  10.888  21.173  0.00  0.00    +0.000 C 
ATOM     25  N   UNL     1       1.423   9.498  21.602  0.00  0.00    +0.000 NA
ATOM     26  C   UNL     1       1.038   9.390  23.027  0.00  0.00    +0.000 C 
ATOM     27  C   UNL     1      -0.414   9.831  23.332  0.00  0.00    +0.000 C 
ENDBRANCH  20  25
ENDBRANCH   1  20
TORSDOF 4
ENDMDL
MODEL 5
REMARK VINA RESULT:      -8.1      4.913      8.382
REMARK  Name = 
REMARK  5 active torsions:
REMARK  status: ('A' for Active; 'I' for Inactive)
REMARK    1  A    between atoms: C_1  and  N_2
REMARK    2  A    between atoms: N_5  and  C_6
REMARK    3  A    between atoms: C_6  and  C_7
REMARK    4  A    between atoms: N_15  and  S_16
REMARK    5  A    between atoms: S_16  and  C_19
REMARK                            x       y       z     vdW  Elec       q    Type
REMARK                         _______ _______ _______ _____ _____    ______ ____
ROOT
ATOM      1  C   UNL     1       2.274   6.918  19.630  0.00  0.00    +0.000 A 
ATOM      2  C   UNL     1       2.743   7.007  18.303  0.00  0.00    +0.000 A 
ATOM      3  C   UNL     1       2.636   8.185  17.573  0.00  0.00    +0.000 A 
ATOM      4  C   UNL     1       2.012   9.309  18.113  0.00  0.00    +0.000 A 
ATOM      5  C   UNL     1       1.413   9.199  19.379  0.00  0.00    +0.000 A 
ATOM      6  C   UNL     1       1.550   8.025  20.149  0.00  0.00    +0.000 A 
ATOM      7  C   UNL     1       0.878   8.263  21.386  0.00  0.00    +0.000 A 
ATOM      8  C   UNL     1       0.308   9.507  21.335  0.00  0.00    +0.000 A 
ATOM      9  N   UNL     1       0.660  10.075  20.134  0.00  0.00    +0.000 N 
ENDROOT
BRANCH   9  10
ATOM     10  S   UNL     1      -0.002  11.569  19.610  0.00  0.00    +0.000 S 
ATOM     11  O   UNL     1      -0.406  12.243  20.833  0.00  0.00    +0.000 OA
ATOM     12  O   UNL     1       0.948  12.163  18.693  0.00  0.00    +0.000 OA
BRANCH  10  13
ATOM     13  C   UNL     1      -1.465  11.145  18.701  0.00  0.00    +0.000 A 
ATOM     14  C   UNL     1      -1.411  10.145  17.720  0.00  0.00    +0.000 A 
ATOM     15  C   UNL     1      -2.556   9.831  16.985  0.00  0.00    +0.000 A 
ATOM     16  C   UNL     1      -3.752  10.504  17.232  0.00  0.00    +0.000 A 
ATOM     17  C   UNL     1      -3.807  11.469  18.241  0.00  0.00    +0.000 A 
ATOM     18 CL   UNL     1      -5.292  12.278  18.562  0.00  0.00    +0.000 Cl
ATOM     19  C   UNL     1      -2.672  11.790  18.986  0.00  0.00    +0.000 A 
ENDBRANCH  10  13
ENDBRANCH   9  10
BRANCH   1  20
ATOM     20  C   UNL     1       2.605   5.669  20.440  0.00  0.00    +0.000 C 
BRANCH  20  25
ATOM     21  C   UNL     1       3.723   1.354  18.682  0.00  0.00    +0.000 C 
ATOM     22  N   UNL     1       2.642   2.134  19.275  0.00  0.00    +0.000 NA
ATOM     23  C   UNL     1       2.277   3.278  18.418  0.00  0.00    +0.000 C 
ATOM     24  C   UNL     1       1.201   4.185  19.060  0.00  0.00    +0.000 C 
ATOM     25  N   UNL     1       1.524   4.662  20.426  0.00  0.00    +0.000 NA
ATOM     26  C   UNL     1       1.872   3.474  21.237  0.00  0.00    +0.000 C 
ATOM     27  C   UNL     1       2.990   2.591  20.631  0.00  0.00    +0.000 C 
ENDBRANCH  20  25
ENDBRANCH   1  20
TORSDOF 4
ENDMDL
MODEL 6
REMARK VINA RESULT:      -7.8      4.631      8.351
REMARK  Name = 
REMARK  5 active torsions:
REMARK  status: ('A' for Active; 'I' for Inactive)
REMARK    1  A    between atoms: C_1  and  N_2
REMARK    2  A    between atoms: N_5  and  C_6
REMARK    3  A    between atoms: C_6  and  C_7
REMARK    4  A    between atoms: N_15  and  S_16
REMARK    5  A    between atoms: S_16  and  C_19
REMARK                            x       y       z     vdW  Elec       q    Type
REMARK                         _______ _______ _______ _____ _____    ______ ____
ROOT
ATOM      1  C   UNL     1       2.201   7.016  19.512  0.00  0.00    +0.000 A 
ATOM      2  C   UNL     1       2.671   7.147  18.188  0.00  0.00    +0.000 A 
ATOM      3  C   UNL     1       2.614   8.362  17.515  0.00  0.00    +0.000 A 
ATOM      4  C   UNL     1       2.041   9.485  18.110  0.00  0.00    +0.000 A 
ATOM      5  C   UNL     1       1.440   9.342  19.372  0.00  0.00    +0.000 A 
ATOM      6  C   UNL     1       1.527   8.128  20.085  0.00  0.00    +0.000 A 
ATOM      7  C   UNL     1       0.868   8.336  21.334  0.00  0.00    +0.000 A 
ATOM      8  C   UNL     1       0.353   9.605  21.345  0.00  0.00    +0.000 A 
ATOM      9  N   UNL     1       0.728  10.213  20.170  0.00  0.00    +0.000 N 
ENDROOT
BRANCH   9  10
ATOM     10  S   UNL     1       0.131  11.757  19.720  0.00  0.00    +0.000 S 
ATOM     11  O   UNL     1      -0.131  12.434  20.980  0.00  0.00    +0.000 OA
ATOM     12  O   UNL     1       1.046  12.304  18.740  0.00  0.00    +0.000 OA
BRANCH  10  13
ATOM     13  C   UNL     1      -1.423  11.450  18.922  0.00  0.00    +0.000 A 
ATOM     14  C   UNL     1      -2.599  12.001  19.451  0.00  0.00    +0.000 A 
ATOM     15  C   UNL     1      -3.826  11.737  18.839  0.00  0.00    +0.000 A 
ATOM     16  C   UNL     1      -3.881  10.932  17.701  0.00  0.00    +0.000 A 
ATOM     17  C   UNL     1      -2.699  10.423  17.156  0.00  0.00    +0.000 A 
ATOM     18 CL   UNL     1      -2.768   9.454  15.736  0.00  0.00    +0.000 Cl
ATOM     19  C   UNL     1      -1.466  10.682  17.755  0.00  0.00    +0.000 A 
ENDBRANCH  10  13
ENDBRANCH   9  10
BRANCH   1  20
ATOM     20  C   UNL     1       2.478   5.717  20.260  0.00  0.00    +0.000 C 
BRANCH  20  25
ATOM     21  C   UNL     1       3.722   1.362  18.695  0.00  0.00    +0.000 C 
ATOM     22  N   UNL     1       2.592   2.166  19.148  0.00  0.00    +0.000 NA
ATOM     23  C   UNL     1       2.349   3.304  18.242  0.00  0.00    +0.000 C 
ATOM     24  C   UNL     1       1.221   4.236  18.743  0.00  0.00    +0.000 C 
ATOM     25  N   UNL     1       1.389   4.726  20.131  0.00  0.00    +0.000 NA
ATOM     26  C   UNL     1       1.620   3.544  20.992  0.00  0.00    +0.000 C 
ATOM     27  C   UNL     1       2.787   2.636  20.531  0.00  0.00    +0.000 C 
ENDBRANCH  20  25
ENDBRANCH   1  20
TORSDOF 4
ENDMDL
MODEL 7
REMARK VINA RESULT:      -7.7      1.545      2.103
REMARK  Name = 
REMARK  5 active torsions:
REMARK  status: ('A' for Active; 'I' for Inactive)
REMARK    1  A    between atoms: C_1  and  N_2
REMARK    2  A    between atoms: N_5  and  C_6
REMARK    3  A    between atoms: C_6  and  C_7
REMARK    4  A    between atoms: N_15  and  S_16
REMARK    5  A    between atoms: S_16  and  C_19
REMARK                            x       y       z     vdW  Elec       q    Type
REMARK                         _______ _______ _______ _____ _____    ______ ____
ROOT
ATOM      1  C   UNL     1       1.674   8.563  19.393  0.00  0.00    +0.000 A 
ATOM      2  C   UNL     1       2.290   9.023  18.210  0.00  0.00    +0.000 A 
ATOM      3  C   UNL     1       2.948   8.152  17.350  0.00  0.00    +0.000 A 
ATOM      4  C   UNL     1       3.067   6.796  17.654  0.00  0.00    +0.000 A 
ATOM      5  C   UNL     1       2.584   6.343  18.894  0.00  0.00    +0.000 A 
ATOM      6  C   UNL     1       1.878   7.205  19.758  0.00  0.00    +0.000 A 
ATOM      7  C   UNL     1       1.487   6.426  20.888  0.00  0.00    +0.000 A 
ATOM      8  C   UNL     1       1.993   5.162  20.737  0.00  0.00    +0.000 A 
ATOM      9  N   UNL     1       2.628   5.114  19.519  0.00  0.00    +0.000 N 
ENDROOT
BRANCH   9  10
ATOM     10  S   UNL     1       3.548   3.750  19.031  0.00  0.00    +0.000 S 
ATOM     11  O   UNL     1       3.802   3.017  20.260  0.00  0.00    +0.000 OA
ATOM     12  O   UNL     1       2.857   3.142  17.913  0.00  0.00    +0.000 OA
BRANCH  10  13
ATOM     13  C   UNL     1       5.089   4.404  18.445  0.00  0.00    +0.000 A 
ATOM     14  C   UNL     1       5.944   5.073  19.333  0.00  0.00    +0.000 A 
ATOM     15  C   UNL     1       7.145   5.612  18.866  0.00  0.00    +0.000 A 
ATOM     16  C   UNL     1       7.496   5.479  17.523  0.00  0.00    +0.000 A 
ATOM     17  C   UNL     1       6.658   4.774  16.655  0.00  0.00    +0.000 A 
ATOM     18 CL   UNL     1       7.108   4.588  15.005  0.00  0.00    +0.000 Cl
ATOM     19  C   UNL     1       5.457   4.227  17.109  0.00  0.00    +0.000 A 
ENDBRANCH  10  13
ENDBRANCH   9  10
BRANCH   1  20
ATOM     20  C   UNL     1       0.799   9.530  20.183  0.00  0.00    +0.000 C 
BRANCH  20  25
ATOM     21  C   UNL     1      -2.561  12.544  21.792  0.00  0.00    +0.000 C 
ATOM     22  N   UNL     1      -1.384  12.450  20.935  0.00  0.00    +0.000 NA
ATOM     23  C   UNL     1      -1.613  11.519  19.814  0.00  0.00    +0.000 C 
ATOM     24  C   UNL     1      -0.354  11.318  18.938  0.00  0.00    +0.000 C 
ATOM     25  N   UNL     1       0.863  10.918  19.683  0.00  0.00    +0.000 NA
ATOM     26  C   UNL     1       1.046  11.890  20.785  0.00  0.00    +0.000 C 
ATOM     27  C   UNL     1      -0.190  12.055  21.702  0.00  0.00    +0.000 C 
ENDBRANCH  20  25
ENDBRANCH   1  20
TORSDOF 4
ENDMDL
MODEL 8
REMARK VINA RESULT:      -7.7      2.609      3.654
REMARK  Name = 
REMARK  5 active torsions:
REMARK  status: ('A' for Active; 'I' for Inactive)
REMARK    1  A    between atoms: C_1  and  N_2
REMARK    2  A    between atoms: N_5  and  C_6
REMARK    3  A    between atoms: C_6  and  C_7
REMARK    4  A    between atoms: N_15  and  S_16
REMARK    5  A    between atoms: S_16  and  C_19
REMARK                            x       y       z     vdW  Elec       q    Type
REMARK                         _______ _______ _______ _____ _____    ______ ____
ROOT
ATOM      1  C   UNL     1       0.922   9.987  19.664  0.00  0.00    +0.000 A 
ATOM      2  C   UNL     1       0.260   9.644  20.861  0.00  0.00    +0.000 A 
ATOM      3  C   UNL     1       0.471   8.419  21.483  0.00  0.00    +0.000 A 
ATOM      4  C   UNL     1       1.309   7.461  20.913  0.00  0.00    +0.000 A 
ATOM      5  C   UNL     1       1.868   7.726  19.651  0.00  0.00    +0.000 A 
ATOM      6  C   UNL     1       1.697   8.980  19.028  0.00  0.00    +0.000 A 
ATOM      7  C   UNL     1       2.427   8.934  17.802  0.00  0.00    +0.000 A 
ATOM      8  C   UNL     1       2.964   7.681  17.666  0.00  0.00    +0.000 A 
ATOM      9  N   UNL     1       2.645   6.970  18.798  0.00  0.00    +0.000 N 
ENDROOT
BRANCH   9  10
ATOM     10  S   UNL     1       2.984   5.294  18.939  0.00  0.00    +0.000 S 
ATOM     11  O   UNL     1       3.085   5.056  20.369  0.00  0.00    +0.000 OA
ATOM     12  O   UNL     1       2.023   4.588  18.118  0.00  0.00    +0.000 OA
BRANCH  10  13
ATOM     13  C   UNL     1       4.594   5.075  18.226  0.00  0.00    +0.000 A 
ATOM     14  C   UNL     1       5.736   5.407  18.968  0.00  0.00    +0.000 A 
ATOM     15  C   UNL     1       7.002   5.261  18.397  0.00  0.00    +0.000 A 
ATOM     16  C   UNL     1       7.130   4.778  17.095  0.00  0.00    +0.000 A 
ATOM     17  C   UNL     1       5.989   4.409  16.379  0.00  0.00    +0.000 A 
ATOM     18 CL   UNL     1       6.153   3.788  14.782  0.00  0.00    +0.000 Cl
ATOM     19  C   UNL     1       4.718   4.546  16.938  0.00  0.00    +0.000 A 
ENDBRANCH  10  13
ENDBRANCH   9  10
BRANCH   1  20
ATOM     20  C   UNL     1       0.804  11.417  19.147  0.00  0.00    +0.000 C 
BRANCH  20  25
ATOM     21  C   UNL     1       2.486  15.814  18.258  0.00  0.00    +0.000 C 
ATOM     22  N   UNL     1       1.804  15.001  19.258  0.00  0.00    +0.000 NA
ATOM     23  C   UNL     1       2.661  13.893  19.721  0.00  0.00    +0.000 C 
ATOM     24  C   UNL     1       1.937  12.950  20.710  0.00  0.00    +0.000 C 
ATOM     25  N   UNL     1       0.643  12.415  20.224  0.00  0.00    +0.000 NA
ATOM     26  C   UNL     1      -0.174  13.568  19.784  0.00  0.00    +0.000 C 
ATOM     27  C   UNL     1       0.521  14.486  18.749  0.00  0.00    +0.000 C 
ENDBRANCH  20  25
ENDBRANCH   1  20
TORSDOF 4
ENDMDL
MODEL 9
REMARK VINA RESULT:      -7.7      1.252      1.599
REMARK  Name = 
REMARK  5 active torsions:
REMARK  status: ('A' for Active; 'I' for Inactive)
REMARK    1  A    between atoms: C_1  and  N_2
REMARK    2  A    between atoms: N_5  and  C_6
REMARK    3  A    between atoms: C_6  and  C_7
REMARK    4  A    between atoms: N_15  and  S_16
REMARK    5  A    between atoms: S_16  and  C_19
REMARK                            x       y       z     vdW  Elec       q    Type
REMARK                         _______ _______ _______ _____ _____    ______ ____
ROOT
ATOM      1  C   UNL     1       1.778   8.402  19.377  0.00  0.00    +0.000 A 
ATOM      2  C   UNL     1       2.397   8.814  18.178  0.00  0.00    +0.000 A 
ATOM      3  C   UNL     1       2.984   7.898  17.313  0.00  0.00    +0.000 A 
ATOM      4  C   UNL     1       3.027   6.540  17.628  0.00  0.00    +0.000 A 
ATOM      5  C   UNL     1       2.542   6.127  18.881  0.00  0.00    +0.000 A 
ATOM      6  C   UNL     1       1.906   7.037  19.750  0.00  0.00    +0.000 A 
ATOM      7  C   UNL     1       1.491   6.292  20.895  0.00  0.00    +0.000 A 
ATOM      8  C   UNL     1       1.916   4.999  20.746  0.00  0.00    +0.000 A 
ATOM      9  N   UNL     1       2.523   4.903  19.516  0.00  0.00    +0.000 N 
ENDROOT
BRANCH   9  10
ATOM     10  S   UNL     1       3.349   3.482  19.023  0.00  0.00    +0.000 S 
ATOM     11  O   UNL     1       3.728   2.825  20.264  0.00  0.00    +0.000 OA
ATOM     12  O   UNL     1       2.520   2.821  18.037  0.00  0.00    +0.000 OA
BRANCH  10  13
ATOM     13  C   UNL     1       4.827   4.047  18.221  0.00  0.00    +0.000 A 
ATOM     14  C   UNL     1       5.019   3.794  16.856  0.00  0.00    +0.000 A 
ATOM     15  C   UNL     1       6.195   4.215  16.230  0.00  0.00    +0.000 A 
ATOM     16  C   UNL     1       7.171   4.892  16.960  0.00  0.00    +0.000 A 
ATOM     17  C   UNL     1       6.951   5.178  18.310  0.00  0.00    +0.000 A 
ATOM     18 CL   UNL     1       8.146   6.039  19.201  0.00  0.00    +0.000 Cl
ATOM     19  C   UNL     1       5.780   4.767  18.946  0.00  0.00    +0.000 A 
ENDBRANCH  10  13
ENDBRANCH   9  10
BRANCH   1  20
ATOM     20  C   UNL     1       0.979   9.426  20.175  0.00  0.00    +0.000 C 
BRANCH  20  25
ATOM     21  C   UNL     1      -2.418  12.478  21.627  0.00  0.00    +0.000 C 
ATOM     22  N   UNL     1      -1.249  12.350  20.764  0.00  0.00    +0.000 NA
ATOM     23  C   UNL     1      -1.473  11.345  19.707  0.00  0.00    +0.000 C 
ATOM     24  C   UNL     1      -0.219  11.111  18.832  0.00  0.00    +0.000 C 
ATOM     25  N   UNL     1       1.013  10.781  19.587  0.00  0.00    +0.000 NA
ATOM     26  C   UNL     1       1.189  11.824  20.622  0.00  0.00    +0.000 C 
ATOM     27  C   UNL     1      -0.040  12.026  21.541  0.00  0.00    +0.000 C 
ENDBRANCH  20  25
ENDBRANCH   1  20
TORSDOF 4
ENDMDL
