MODEL 1
REMARK VINA RESULT:      -8.2      0.000      0.000
REMARK  Name = 
REMARK  8 active torsions:
REMARK  status: ('A' for Active; 'I' for Inactive)
REMARK    1  A    between atoms: C_1  and  C_2
REMARK    2  A    between atoms: C_7  and  C_8
REMARK    3  A    between atoms: N_10  and  C_11
REMARK    4  A    between atoms: C_11  and  C_12
REMARK    5  A    between atoms: C_17  and  C_19
REMARK    6  A    between atoms: C_19  and  C_20
REMARK    7  A    between atoms: C_19  and  C_21
REMARK    8  A    between atoms: N_23  and  C_24
REMARK                            x       y       z     vdW  Elec       q    Type
REMARK                         _______ _______ _______ _____ _____    ______ ____
ROOT
ATOM      1  C   UNL     1       0.207   9.902  19.077  0.00  0.00    +0.000 C 
ATOM      2  O   UNL     1      -0.395  10.088  18.023  0.00  0.00    +0.000 OA
ATOM      3  N   UNL     1       1.348   9.140  19.145  0.00  0.00    +0.000 N 
ATOM      4  H   UNL     1       1.789   8.997  20.042  0.00  0.00    +0.000 HD
ENDROOT
BRANCH   1  11
ATOM      5  C   UNL     1      -2.609  12.997  22.087  0.00  0.00    +0.000 C 
ATOM      6  C   UNL     1      -1.621  11.872  21.865  0.00  0.00    +0.000 A 
ATOM      7  C   UNL     1      -1.117  11.265  22.955  0.00  0.00    +0.000 A 
ATOM      8  C   UNL     1      -0.154  10.161  22.794  0.00  0.00    +0.000 A 
ATOM      9  O   UNL     1       0.320   9.594  23.773  0.00  0.00    +0.000 OA
ATOM     10  C   UNL     1       0.222   9.782  21.431  0.00  0.00    +0.000 A 
ATOM     11  C   UNL     1      -0.320  10.440  20.391  0.00  0.00    +0.000 A 
ATOM     12  N   UNL     1      -1.264  11.490  20.545  0.00  0.00    +0.000 N 
ATOM     13  C   UNL     1      -2.008  12.070  19.417  0.00  0.00    +0.000 C 
ENDBRANCH   1  11
BRANCH   3  14
ATOM     14  C   UNL     1       2.026   8.677  17.948  0.00  0.00    +0.000 C 
BRANCH  14  15
ATOM     15  C   UNL     1       2.602   7.262  18.068  0.00  0.00    +0.000 C 
ATOM     16  C   UNL     1       4.036   7.087  17.534  0.00  0.00    +0.000 C 
ATOM     17  C   UNL     1       4.551   5.657  17.796  0.00  0.00    +0.000 C 
ATOM     18  C   UNL     1       4.350   5.197  19.249  0.00  0.00    +0.000 C 
ATOM     19  N   UNL     1       2.987   5.480  19.701  0.00  0.00    +0.000 N 
ATOM     20  C   UNL     1       2.066   4.611  20.268  0.00  0.00    +0.000 C 
ATOM     21  O   UNL     1       0.927   4.990  20.548  0.00  0.00    +0.000 OA
ATOM     22  C   UNL     1       2.591   6.871  19.548  0.00  0.00    +0.000 C 
BRANCH  20  23
ATOM     23  C   UNL     1       2.445   3.153  20.504  0.00  0.00    +0.000 C 
ATOM     24  C   UNL     1       1.690   2.633  21.733  0.00  0.00    +0.000 C 
ATOM     25  C   UNL     1       2.075   2.317  19.281  0.00  0.00    +0.000 C 
ENDBRANCH  20  23
ENDBRANCH  14  15
ENDBRANCH   3  14
TORSDOF 4
ENDMDL
MODEL 2
REMARK VINA RESULT:      -7.4      2.216      3.703
REMARK  Name = 
REMARK  8 active torsions:
REMARK  status: ('A' for Active; 'I' for Inactive)
REMARK    1  A    between atoms: C_1  and  C_2
REMARK    2  A    between atoms: C_7  and  C_8
REMARK    3  A    between atoms: N_10  and  C_11
REMARK    4  A    between atoms: C_11  and  C_12
REMARK    5  A    between atoms: C_17  and  C_19
REMARK    6  A    between atoms: C_19  and  C_20
REMARK    7  A    between atoms: C_19  and  C_21
REMARK    8  A    between atoms: N_23  and  C_24
REMARK                            x       y       z     vdW  Elec       q    Type
REMARK                         _______ _______ _______ _____ _____    ______ ____
ROOT
ATOM      1  C   UNL     1      -0.867  10.429  18.858  0.00  0.00    +0.000 C 
ATOM      2  O   UNL     1      -0.850  10.774  20.037  0.00  0.00    +0.000 OA
ATOM      3  N   UNL     1       0.219   9.850  18.247  0.00  0.00    +0.000 N 
ATOM      4  H   UNL     1       0.161   9.611  17.268  0.00  0.00    +0.000 HD
ENDROOT
BRANCH   1  11
ATOM      5  C   UNL     1      -5.545  12.282  17.738  0.00  0.00    +0.000 C 
ATOM      6  C   UNL     1      -4.273  11.541  17.386  0.00  0.00    +0.000 A 
ATOM      7  C   UNL     1      -4.174  11.029  16.147  0.00  0.00    +0.000 A 
ATOM      8  C   UNL     1      -2.954  10.303  15.753  0.00  0.00    +0.000 A 
ATOM      9  O   UNL     1      -2.844   9.825  14.628  0.00  0.00    +0.000 OA
ATOM     10  C   UNL     1      -1.896  10.161  16.754  0.00  0.00    +0.000 A 
ATOM     11  C   UNL     1      -2.069  10.695  17.976  0.00  0.00    +0.000 A 
ATOM     12  N   UNL     1      -3.236  11.415  18.349  0.00  0.00    +0.000 N 
ATOM     13  C   UNL     1      -3.343  12.171  19.605  0.00  0.00    +0.000 C 
ENDBRANCH   1  11
BRANCH   3  14
ATOM     14  C   UNL     1       1.381   9.425  19.007  0.00  0.00    +0.000 C 
BRANCH  14  15
ATOM     15  C   UNL     1       1.922   8.051  18.598  0.00  0.00    +0.000 C 
ATOM     16  C   UNL     1       3.190   8.074  17.724  0.00  0.00    +0.000 C 
ATOM     17  C   UNL     1       3.703   6.644  17.459  0.00  0.00    +0.000 C 
ATOM     18  C   UNL     1       3.823   5.795  18.735  0.00  0.00    +0.000 C 
ATOM     19  N   UNL     1       2.609   5.901  19.546  0.00  0.00    +0.000 N 
ATOM     20  C   UNL     1       1.812   4.880  20.046  0.00  0.00    +0.000 C 
ATOM     21  O   UNL     1       0.780   5.132  20.671  0.00  0.00    +0.000 OA
ATOM     22  C   UNL     1       2.235   7.267  19.876  0.00  0.00    +0.000 C 
BRANCH  20  23
ATOM     23  C   UNL     1       2.186   3.427  19.779  0.00  0.00    +0.000 C 
ATOM     24  C   UNL     1       2.609   2.770  21.099  0.00  0.00    +0.000 C 
ATOM     25  C   UNL     1       0.988   2.683  19.194  0.00  0.00    +0.000 C 
ENDBRANCH  20  23
ENDBRANCH  14  15
ENDBRANCH   3  14
TORSDOF 4
ENDMDL
MODEL 3
REMARK VINA RESULT:      -7.4      1.929      2.749
REMARK  Name = 
REMARK  8 active torsions:
REMARK  status: ('A' for Active; 'I' for Inactive)
REMARK    1  A    between atoms: C_1  and  C_2
REMARK    2  A    between atoms: C_7  and  C_8
REMARK    3  A    between atoms: N_10  and  C_11
REMARK    4  A    between atoms: C_11  and  C_12
REMARK    5  A    between atoms: C_17  and  C_19
REMARK    6  A    between atoms: C_19  and  C_20
REMARK    7  A    between atoms: C_19  and  C_21
REMARK    8  A    between atoms: N_23  and  C_24
REMARK                            x       y       z     vdW  Elec       q    Type
REMARK                         _______ _______ _______ _____ _____    ______ ____
ROOT
ATOM      1  C   UNL     1       1.006  10.359  18.381  0.00  0.00    +0.000 C 
ATOM      2  O   UNL     1       1.857  11.211  18.620  0.00  0.00    +0.000 OA
ATOM      3  N   UNL     1       1.333   9.082  17.994  0.00  0.00    +0.000 N 
ATOM      4  H   UNL     1       0.593   8.428  17.783  0.00  0.00    +0.000 HD
ENDROOT
BRANCH   1  11
ATOM      5  C   UNL     1      -3.238  12.663  20.186  0.00  0.00    +0.000 C 
ATOM      6  C   UNL     1      -2.511  11.742  19.229  0.00  0.00    +0.000 A 
ATOM      7  C   UNL     1      -3.246  11.110  18.297  0.00  0.00    +0.000 A 
ATOM      8  C   UNL     1      -2.587  10.205  17.339  0.00  0.00    +0.000 A 
ATOM      9  O   UNL     1      -3.238   9.616  16.481  0.00  0.00    +0.000 OA
ATOM     10  C   UNL     1      -1.139  10.027  17.461  0.00  0.00    +0.000 A 
ATOM     11  C   UNL     1      -0.472  10.689  18.423  0.00  0.00    +0.000 A 
ATOM     12  N   UNL     1      -1.104  11.577  19.332  0.00  0.00    +0.000 N 
ATOM     13  C   UNL     1      -0.357  12.453  20.247  0.00  0.00    +0.000 C 
ENDBRANCH   1  11
BRANCH   3  14
ATOM     14  C   UNL     1       2.702   8.602  18.040  0.00  0.00    +0.000 C 
BRANCH  14  15
ATOM     15  C   UNL     1       2.828   7.076  17.977  0.00  0.00    +0.000 C 
ATOM     16  C   UNL     1       4.026   6.545  17.167  0.00  0.00    +0.000 C 
ATOM     17  C   UNL     1       4.114   5.009  17.255  0.00  0.00    +0.000 C 
ATOM     18  C   UNL     1       4.033   4.478  18.696  0.00  0.00    +0.000 C 
ATOM     19  N   UNL     1       2.921   5.099  19.418  0.00  0.00    +0.000 N 
ATOM     20  C   UNL     1       1.888   4.482  20.111  0.00  0.00    +0.000 C 
ATOM     21  O   UNL     1       0.987   5.147  20.624  0.00  0.00    +0.000 OA
ATOM     22  C   UNL     1       2.951   6.552  19.411  0.00  0.00    +0.000 C 
BRANCH  20  23
ATOM     23  C   UNL     1       1.836   2.961  20.198  0.00  0.00    +0.000 C 
ATOM     24  C   UNL     1       1.481   2.556  21.634  0.00  0.00    +0.000 C 
ATOM     25  C   UNL     1       0.780   2.423  19.235  0.00  0.00    +0.000 C 
ENDBRANCH  20  23
ENDBRANCH  14  15
ENDBRANCH   3  14
TORSDOF 4
ENDMDL
MODEL 4
REMARK VINA RESULT:      -7.3      1.525      1.946
REMARK  Name = 
REMARK  8 active torsions:
REMARK  status: ('A' for Active; 'I' for Inactive)
REMARK    1  A    between atoms: C_1  and  C_2
REMARK    2  A    between atoms: C_7  and  C_8
REMARK    3  A    between atoms: N_10  and  C_11
REMARK    4  A    between atoms: C_11  and  C_12
REMARK    5  A    between atoms: C_17  and  C_19
REMARK    6  A    between atoms: C_19  and  C_20
REMARK    7  A    between atoms: C_19  and  C_21
REMARK    8  A    between atoms: N_23  and  C_24
REMARK                            x       y       z     vdW  Elec       q    Type
REMARK                         _______ _______ _______ _____ _____    ______ ____
ROOT
ATOM      1  C   UNL     1       0.750   9.760  18.613  0.00  0.00    +0.000 C 
ATOM      2  O   UNL     1       0.019   9.711  17.627  0.00  0.00    +0.000 OA
ATOM      3  N   UNL     1       1.921   9.047  18.695  0.00  0.00    +0.000 N 
ATOM      4  H   UNL     1       2.471   9.103  19.541  0.00  0.00    +0.000 HD
ENDROOT
BRANCH   1  11
ATOM      5  C   UNL     1      -1.080  10.430  23.387  0.00  0.00    +0.000 C 
ATOM      6  C   UNL     1      -0.494  10.940  22.087  0.00  0.00    +0.000 A 
ATOM      7  C   UNL     1      -0.295  12.265  21.973  0.00  0.00    +0.000 A 
ATOM      8  C   UNL     1       0.276  12.812  20.730  0.00  0.00    +0.000 A 
ATOM      9  O   UNL     1       0.464  14.018  20.603  0.00  0.00    +0.000 OA
ATOM     10  C   UNL     1       0.594  11.869  19.656  0.00  0.00    +0.000 A 
ATOM     11  C   UNL     1       0.362  10.557  19.842  0.00  0.00    +0.000 A 
ATOM     12  N   UNL     1      -0.169  10.027  21.048  0.00  0.00    +0.000 N 
ATOM     13  C   UNL     1      -0.232   8.586  21.330  0.00  0.00    +0.000 C 
ENDBRANCH   1  11
BRANCH   3  14
ATOM     14  C   UNL     1       2.468   8.351  17.546  0.00  0.00    +0.000 C 
BRANCH  14  15
ATOM     15  C   UNL     1       2.982   6.942  17.859  0.00  0.00    +0.000 C 
ATOM     16  C   UNL     1       4.460   6.685  17.509  0.00  0.00    +0.000 C 
ATOM     17  C   UNL     1       4.895   5.275  17.958  0.00  0.00    +0.000 C 
ATOM     18  C   UNL     1       4.520   4.959  19.415  0.00  0.00    +0.000 C 
ATOM     19  N   UNL     1       3.125   5.314  19.682  0.00  0.00    +0.000 N 
ATOM     20  C   UNL     1       2.119   4.522  20.218  0.00  0.00    +0.000 C 
ATOM     21  O   UNL     1       0.969   4.952  20.331  0.00  0.00    +0.000 OA
ATOM     22  C   UNL     1       2.794   6.692  19.359  0.00  0.00    +0.000 C 
BRANCH  20  23
ATOM     23  C   UNL     1       2.422   3.086  20.628  0.00  0.00    +0.000 C 
ATOM     24  C   UNL     1       1.576   2.727  21.855  0.00  0.00    +0.000 C 
ATOM     25  C   UNL     1       2.088   2.138  19.478  0.00  0.00    +0.000 C 
ENDBRANCH  20  23
ENDBRANCH  14  15
ENDBRANCH   3  14
TORSDOF 4
ENDMDL
MODEL 5
REMARK VINA RESULT:      -7.3      1.621      2.248
REMARK  Name = 
REMARK  8 active torsions:
REMARK  status: ('A' for Active; 'I' for Inactive)
REMARK    1  A    between atoms: C_1  and  C_2
REMARK    2  A    between atoms: C_7  and  C_8
REMARK    3  A    between atoms: N_10  and  C_11
REMARK    4  A    between atoms: C_11  and  C_12
REMARK    5  A    between atoms: C_17  and  C_19
REMARK    6  A    between atoms: C_19  and  C_20
REMARK    7  A    between atoms: C_19  and  C_21
REMARK    8  A    between atoms: N_23  and  C_24
REMARK                            x       y       z     vdW  Elec       q    Type
REMARK                         _______ _______ _______ _____ _____    ______ ____
ROOT
ATOM      1  C   UNL     1       1.655  10.178  18.698  0.00  0.00    +0.000 C 
ATOM      2  O   UNL     1       2.243  11.004  18.005  0.00  0.00    +0.000 OA
ATOM      3  N   UNL     1       1.820   8.825  18.524  0.00  0.00    +0.000 N 
ATOM      4  H   UNL     1       1.291   8.188  19.103  0.00  0.00    +0.000 HD
ENDROOT
BRANCH   1  11
ATOM      5  C   UNL     1      -0.746   9.980  23.255  0.00  0.00    +0.000 C 
ATOM      6  C   UNL     1      -0.531  10.557  21.872  0.00  0.00    +0.000 A 
ATOM      7  C   UNL     1      -1.335  11.564  21.488  0.00  0.00    +0.000 A 
ATOM      8  C   UNL     1      -1.165  12.164  20.153  0.00  0.00    +0.000 A 
ATOM      9  O   UNL     1      -1.888  13.083  19.781  0.00  0.00    +0.000 OA
ATOM     10  C   UNL     1      -0.118  11.614  19.291  0.00  0.00    +0.000 A 
ATOM     11  C   UNL     1       0.644  10.602  19.742  0.00  0.00    +0.000 A 
ATOM     12  N   UNL     1       0.494  10.038  21.037  0.00  0.00    +0.000 N 
ATOM     13  C   UNL     1       1.450   9.077  21.608  0.00  0.00    +0.000 C 
ENDBRANCH   1  11
BRANCH   3  14
ATOM     14  C   UNL     1       2.848   8.291  17.651  0.00  0.00    +0.000 C 
BRANCH  14  15
ATOM     15  C   UNL     1       3.065   6.781  17.797  0.00  0.00    +0.000 C 
ATOM     16  C   UNL     1       4.355   6.234  17.157  0.00  0.00    +0.000 C 
ATOM     17  C   UNL     1       4.521   4.730  17.451  0.00  0.00    +0.000 C 
ATOM     18  C   UNL     1       4.347   4.378  18.937  0.00  0.00    +0.000 C 
ATOM     19  N   UNL     1       3.145   5.009  19.484  0.00  0.00    +0.000 N 
ATOM     20  C   UNL     1       2.093   4.416  20.169  0.00  0.00    +0.000 C 
ATOM     21  O   UNL     1       1.115   5.078  20.520  0.00  0.00    +0.000 OA
ATOM     22  C   UNL     1       3.094   6.449  19.292  0.00  0.00    +0.000 C 
BRANCH  20  23
ATOM     23  C   UNL     1       2.119   2.918  20.448  0.00  0.00    +0.000 C 
ATOM     24  C   UNL     1       1.429   2.648  21.791  0.00  0.00    +0.000 C 
ATOM     25  C   UNL     1       1.387   2.171  19.335  0.00  0.00    +0.000 C 
ENDBRANCH  20  23
ENDBRANCH  14  15
ENDBRANCH   3  14
TORSDOF 4
ENDMDL
MODEL 6
REMARK VINA RESULT:      -7.2      2.075      3.223
REMARK  Name = 
REMARK  8 active torsions:
REMARK  status: ('A' for Active; 'I' for Inactive)
REMARK    1  A    between atoms: C_1  and  C_2
REMARK    2  A    between atoms: C_7  and  C_8
REMARK    3  A    between atoms: N_10  and  C_11
REMARK    4  A    between atoms: C_11  and  C_12
REMARK    5  A    between atoms: C_17  and  C_19
REMARK    6  A    between atoms: C_19  and  C_20
REMARK    7  A    between atoms: C_19  and  C_21
REMARK    8  A    between atoms: N_23  and  C_24
REMARK                            x       y       z     vdW  Elec       q    Type
REMARK                         _______ _______ _______ _____ _____    ______ ____
ROOT
ATOM      1  C   UNL     1       1.056  10.647  19.197  0.00  0.00    +0.000 C 
ATOM      2  O   UNL     1       1.656  11.522  18.578  0.00  0.00    +0.000 OA
ATOM      3  N   UNL     1       1.127   9.321  18.847  0.00  0.00    +0.000 N 
ATOM      4  H   UNL     1       0.592   8.645  19.374  0.00  0.00    +0.000 HD
ENDROOT
BRANCH   1  11
ATOM      5  C   UNL     1      -2.868  13.067  21.504  0.00  0.00    +0.000 C 
ATOM      6  C   UNL     1      -1.703  12.100  21.495  0.00  0.00    +0.000 A 
ATOM      7  C   UNL     1      -1.418  11.460  22.643  0.00  0.00    +0.000 A 
ATOM      8  C   UNL     1      -0.296  10.505  22.685  0.00  0.00    +0.000 A 
ATOM      9  O   UNL     1      -0.017   9.911  23.722  0.00  0.00    +0.000 OA
ATOM     10  C   UNL     1       0.474  10.308  21.456  0.00  0.00    +0.000 A 
ATOM     11  C   UNL     1       0.132  10.988  20.348  0.00  0.00    +0.000 A 
ATOM     12  N   UNL     1      -0.962  11.892  20.300  0.00  0.00    +0.000 N 
ATOM     13  C   UNL     1      -1.463  12.479  19.049  0.00  0.00    +0.000 C 
ENDBRANCH   1  11
BRANCH   3  14
ATOM     14  C   UNL     1       2.071   8.847  17.852  0.00  0.00    +0.000 C 
BRANCH  14  15
ATOM     15  C   UNL     1       2.791   7.552  18.244  0.00  0.00    +0.000 C 
ATOM     16  C   UNL     1       1.880   6.329  18.456  0.00  0.00    +0.000 C 
ATOM     17  C   UNL     1       2.713   5.064  18.745  0.00  0.00    +0.000 C 
ATOM     18  C   UNL     1       3.853   4.845  17.736  0.00  0.00    +0.000 C 
ATOM     19  N   UNL     1       4.611   6.079  17.531  0.00  0.00    +0.000 N 
ATOM     20  C   UNL     1       5.981   6.280  17.638  0.00  0.00    +0.000 C 
ATOM     21  O   UNL     1       6.468   7.402  17.488  0.00  0.00    +0.000 OA
ATOM     22  C   UNL     1       3.795   7.216  17.138  0.00  0.00    +0.000 C 
BRANCH  20  23
ATOM     23  C   UNL     1       6.893   5.112  17.993  0.00  0.00    +0.000 C 
ATOM     24  C   UNL     1       7.524   4.562  16.708  0.00  0.00    +0.000 C 
ATOM     25  C   UNL     1       7.991   5.583  18.945  0.00  0.00    +0.000 C 
ENDBRANCH  20  23
ENDBRANCH  14  15
ENDBRANCH   3  14
TORSDOF 4
ENDMDL
MODEL 7
REMARK VINA RESULT:      -7.1      1.912      3.152
REMARK  Name = 
REMARK  8 active torsions:
REMARK  status: ('A' for Active; 'I' for Inactive)
REMARK    1  A    between atoms: C_1  and  C_2
REMARK    2  A    between atoms: C_7  and  C_8
REMARK    3  A    between atoms: N_10  and  C_11
REMARK    4  A    between atoms: C_11  and  C_12
REMARK    5  A    between atoms: C_17  and  C_19
REMARK    6  A    between atoms: C_19  and  C_20
REMARK    7  A    between atoms: C_19  and  C_21
REMARK    8  A    between atoms: N_23  and  C_24
REMARK                            x       y       z     vdW  Elec       q    Type
REMARK                         _______ _______ _______ _____ _____    ______ ____
ROOT
ATOM      1  C   UNL     1       0.160   9.968  19.091  0.00  0.00    +0.000 C 
ATOM      2  O   UNL     1      -0.463   9.979  18.033  0.00  0.00    +0.000 OA
ATOM      3  N   UNL     1       1.381   9.352  19.217  0.00  0.00    +0.000 N 
ATOM      4  H   UNL     1       1.839   9.349  20.118  0.00  0.00    +0.000 HD
ENDROOT
BRANCH   1  11
ATOM      5  C   UNL     1      -2.722  13.254  21.826  0.00  0.00    +0.000 C 
ATOM      6  C   UNL     1      -1.756  12.095  21.700  0.00  0.00    +0.000 A 
ATOM      7  C   UNL     1      -1.327  11.519  22.838  0.00  0.00    +0.000 A 
ATOM      8  C   UNL     1      -0.389  10.384  22.771  0.00  0.00    +0.000 A 
ATOM      9  O   UNL     1       0.016   9.844  23.796  0.00  0.00    +0.000 OA
ATOM     10  C   UNL     1       0.048   9.942  21.446  0.00  0.00    +0.000 A 
ATOM     11  C   UNL     1      -0.419  10.572  20.354  0.00  0.00    +0.000 A 
ATOM     12  N   UNL     1      -1.341  11.652  20.416  0.00  0.00    +0.000 N 
ATOM     13  C   UNL     1      -2.007  12.206  19.229  0.00  0.00    +0.000 C 
ENDBRANCH   1  11
BRANCH   3  14
ATOM     14  C   UNL     1       2.102   8.851  18.062  0.00  0.00    +0.000 C 
BRANCH  14  15
ATOM     15  C   UNL     1       2.995   7.642  18.362  0.00  0.00    +0.000 C 
ATOM     16  C   UNL     1       2.521   6.742  19.518  0.00  0.00    +0.000 C 
ATOM     17  C   UNL     1       3.433   5.507  19.665  0.00  0.00    +0.000 C 
ATOM     18  C   UNL     1       3.673   4.768  18.338  0.00  0.00    +0.000 C 
ATOM     19  N   UNL     1       4.033   5.709  17.277  0.00  0.00    +0.000 N 
ATOM     20  C   UNL     1       5.134   5.677  16.431  0.00  0.00    +0.000 C 
ATOM     21  O   UNL     1       5.331   6.581  15.617  0.00  0.00    +0.000 OA
ATOM     22  C   UNL     1       3.077   6.788  17.093  0.00  0.00    +0.000 C 
BRANCH  20  23
ATOM     23  C   UNL     1       6.141   4.538  16.541  0.00  0.00    +0.000 C 
ATOM     24  C   UNL     1       6.674   4.207  15.141  0.00  0.00    +0.000 C 
ATOM     25  C   UNL     1       7.298   4.956  17.446  0.00  0.00    +0.000 C 
ENDBRANCH  20  23
ENDBRANCH  14  15
ENDBRANCH   3  14
TORSDOF 4
ENDMDL
MODEL 8
REMARK VINA RESULT:      -7.1      2.810      4.758
REMARK  Name = 
REMARK  8 active torsions:
REMARK  status: ('A' for Active; 'I' for Inactive)
REMARK    1  A    between atoms: C_1  and  C_2
REMARK    2  A    between atoms: C_7  and  C_8
REMARK    3  A    between atoms: N_10  and  C_11
REMARK    4  A    between atoms: C_11  and  C_12
REMARK    5  A    between atoms: C_17  and  C_19
REMARK    6  A    between atoms: C_19  and  C_20
REMARK    7  A    between atoms: C_19  and  C_21
REMARK    8  A    between atoms: N_23  and  C_24
REMARK                            x       y       z     vdW  Elec       q    Type
REMARK                         _______ _______ _______ _____ _____    ______ ____
ROOT
ATOM      1  C   UNL     1       2.001   6.824  20.366  0.00  0.00    +0.000 C 
ATOM      2  O   UNL     1       1.365   5.854  20.767  0.00  0.00    +0.000 OA
ATOM      3  N   UNL     1       3.248   6.702  19.803  0.00  0.00    +0.000 N 
ATOM      4  H   UNL     1       3.740   7.536  19.514  0.00  0.00    +0.000 HD
ENDROOT
BRANCH   1  11
ATOM      5  C   UNL     1       0.743  11.583  18.834  0.00  0.00    +0.000 C 
ATOM      6  C   UNL     1       0.869  10.496  19.881  0.00  0.00    +0.000 A 
ATOM      7  C   UNL     1       0.493  10.797  21.136  0.00  0.00    +0.000 A 
ATOM      8  C   UNL     1       0.592   9.773  22.192  0.00  0.00    +0.000 A 
ATOM      9  O   UNL     1       0.256  10.026  23.345  0.00  0.00    +0.000 OA
ATOM     10  C   UNL     1       1.117   8.460  21.815  0.00  0.00    +0.000 A 
ATOM     11  C   UNL     1       1.479   8.235  20.540  0.00  0.00    +0.000 A 
ATOM     12  N   UNL     1       1.363   9.215  19.518  0.00  0.00    +0.000 N 
ATOM     13  C   UNL     1       1.563   8.913  18.093  0.00  0.00    +0.000 C 
ENDBRANCH   1  11
BRANCH   3  14
ATOM     14  C   UNL     1       3.804   5.406  19.463  0.00  0.00    +0.000 C 
BRANCH  14  15
ATOM     15  C   UNL     1       5.021   5.476  18.534  0.00  0.00    +0.000 C 
ATOM     16  C   UNL     1       6.378   5.671  19.236  0.00  0.00    +0.000 C 
ATOM     17  C   UNL     1       7.537   5.624  18.220  0.00  0.00    +0.000 C 
ATOM     18  C   UNL     1       7.473   4.408  17.281  0.00  0.00    +0.000 C 
ATOM     19  N   UNL     1       6.128   4.248  16.728  0.00  0.00    +0.000 N 
ATOM     20  C   UNL     1       5.749   4.136  15.397  0.00  0.00    +0.000 C 
ATOM     21  O   UNL     1       4.559   4.063  15.083  0.00  0.00    +0.000 OA
ATOM     22  C   UNL     1       5.080   4.172  17.733  0.00  0.00    +0.000 C 
BRANCH  20  23
ATOM     23  C   UNL     1       6.810   4.154  14.303  0.00  0.00    +0.000 C 
ATOM     24  C   UNL     1       6.194   3.625  13.002  0.00  0.00    +0.000 C 
ATOM     25  C   UNL     1       7.311   5.581  14.091  0.00  0.00    +0.000 C 
ENDBRANCH  20  23
ENDBRANCH  14  15
ENDBRANCH   3  14
TORSDOF 4
ENDMDL
MODEL 9
REMARK VINA RESULT:      -7.1      2.128      8.081
REMARK  Name = 
REMARK  8 active torsions:
REMARK  status: ('A' for Active; 'I' for Inactive)
REMARK    1  A    between atoms: C_1  and  C_2
REMARK    2  A    between atoms: C_7  and  C_8
REMARK    3  A    between atoms: N_10  and  C_11
REMARK    4  A    between atoms: C_11  and  C_12
REMARK    5  A    between atoms: C_17  and  C_19
REMARK    6  A    between atoms: C_19  and  C_20
REMARK    7  A    between atoms: C_19  and  C_21
REMARK    8  A    between atoms: N_23  and  C_24
REMARK                            x       y       z     vdW  Elec       q    Type
REMARK                         _______ _______ _______ _____ _____    ______ ____
ROOT
ATOM      1  C   UNL     1       2.867   7.265  18.268  0.00  0.00    +0.000 C 
ATOM      2  O   UNL     1       3.129   7.896  17.247  0.00  0.00    +0.000 OA
ATOM      3  N   UNL     1       2.120   7.801  19.289  0.00  0.00    +0.000 N 
ATOM      4  H   UNL     1       1.957   7.248  20.119  0.00  0.00    +0.000 HD
ENDROOT
BRANCH   1  11
ATOM      5  C   UNL     1       2.683   2.118  18.491  0.00  0.00    +0.000 C 
ATOM      6  C   UNL     1       3.398   3.446  18.627  0.00  0.00    +0.000 A 
ATOM      7  C   UNL     1       4.685   3.420  19.017  0.00  0.00    +0.000 A 
ATOM      8  C   UNL     1       5.428   4.685  19.160  0.00  0.00    +0.000 A 
ATOM      9  O   UNL     1       6.602   4.686  19.516  0.00  0.00    +0.000 OA
ATOM     10  C   UNL     1       4.710   5.929  18.879  0.00  0.00    +0.000 A 
ATOM     11  C   UNL     1       3.421   5.875  18.500  0.00  0.00    +0.000 A 
ATOM     12  N   UNL     1       2.711   4.655  18.340  0.00  0.00    +0.000 N 
ATOM     13  C   UNL     1       1.374   4.580  17.733  0.00  0.00    +0.000 C 
ENDBRANCH   1  11
BRANCH   3  14
ATOM     14  C   UNL     1       1.426   9.066  19.141  0.00  0.00    +0.000 C 
BRANCH  14  15
ATOM     15  C   UNL     1       0.403   9.348  20.247  0.00  0.00    +0.000 C 
ATOM     16  C   UNL     1       0.636   8.593  21.569  0.00  0.00    +0.000 C 
ATOM     17  C   UNL     1      -0.386   9.027  22.639  0.00  0.00    +0.000 C 
ATOM     18  C   UNL     1      -0.500  10.554  22.786  0.00  0.00    +0.000 C 
ATOM     19  N   UNL     1      -0.631  11.194  21.477  0.00  0.00    +0.000 N 
ATOM     20  C   UNL     1      -1.603  12.087  21.044  0.00  0.00    +0.000 C 
ATOM     21  O   UNL     1      -1.609  12.500  19.883  0.00  0.00    +0.000 OA
ATOM     22  C   UNL     1       0.428  10.850  20.542  0.00  0.00    +0.000 C 
BRANCH  20  23
ATOM     23  C   UNL     1      -2.706  12.527  21.999  0.00  0.00    +0.000 C 
ATOM     24  C   UNL     1      -2.250  13.788  22.743  0.00  0.00    +0.000 C 
ATOM     25  C   UNL     1      -3.982  12.826  21.214  0.00  0.00    +0.000 C 
ENDBRANCH  20  23
ENDBRANCH  14  15
ENDBRANCH   3  14
TORSDOF 4
ENDMDL
