MODEL 1
REMARK VINA RESULT:      -8.8      0.000      0.000
REMARK  Name = 
REMARK  2 active torsions:
REMARK  status: ('A' for Active; 'I' for Inactive)
REMARK    1  A    between atoms: C_6  and  C_7
REMARK    2  A    between atoms: C_19  and  C_20
REMARK                            x       y       z     vdW  Elec       q    Type
REMARK                         _______ _______ _______ _____ _____    ______ ____
ROOT
ATOM      1  O   UNL     1       3.974   3.384  19.924  0.00  0.00    +0.000 OA
ATOM      2  N   UNL     1       3.429   4.523  19.731  0.00  0.00    +0.000 N 
ATOM      3  C   UNL     1       2.434   4.891  20.612  0.00  0.00    +0.000 A 
ATOM      4  C   UNL     1       1.831   6.136  20.557  0.00  0.00    +0.000 A 
ATOM      5  C   UNL     1       2.222   7.082  19.595  0.00  0.00    +0.000 A 
ATOM      6  C   UNL     1       1.736   8.435  19.572  0.00  0.00    +0.000 A 
ATOM      7  C   UNL     1       2.123   9.245  18.496  0.00  0.00    +0.000 A 
ATOM      8  C   UNL     1       2.907   8.708  17.503  0.00  0.00    +0.000 A 
ATOM      9  N   UNL     1       3.396   7.457  17.541  0.00  0.00    +0.000 NA
ATOM     10  C   UNL     1       3.136   6.658  18.594  0.00  0.00    +0.000 A 
ATOM     11  C   UNL     1       3.783   5.394  18.691  0.00  0.00    +0.000 A 
ENDROOT
BRANCH   6  12
ATOM     12  C   UNL     1       0.891   9.042  20.650  0.00  0.00    +0.000 A 
ATOM     13  C   UNL     1       1.237   8.943  22.013  0.00  0.00    +0.000 A 
ATOM     14  C   UNL     1       0.412   9.448  23.024  0.00  0.00    +0.000 A 
ATOM     15  C   UNL     1      -0.742  10.142  22.685  0.00  0.00    +0.000 A 
ATOM     16  F   UNL     1      -1.530  10.624  23.649  0.00  0.00    +0.000 F 
ATOM     17  C   UNL     1      -1.077  10.333  21.355  0.00  0.00    +0.000 A 
ATOM     18  C   UNL     1      -0.274   9.781  20.358  0.00  0.00    +0.000 A 
ATOM     19  F   UNL     1      -0.652   9.984  19.087  0.00  0.00    +0.000 F 
ENDBRANCH   6  12
BRANCH  11  20
ATOM     20  C   UNL     1       4.870   4.963  17.761  0.00  0.00    +0.000 A 
ATOM     21  C   UNL     1       4.596   4.311  16.540  0.00  0.00    +0.000 A 
ATOM     22  C   UNL     1       5.618   3.840  15.705  0.00  0.00    +0.000 A 
ATOM     23  C   UNL     1       6.950   4.057  16.039  0.00  0.00    +0.000 A 
ATOM     24  C   UNL     1       7.256   4.721  17.221  0.00  0.00    +0.000 A 
ATOM     25  C   UNL     1       6.231   5.136  18.075  0.00  0.00    +0.000 A 
ATOM     26  F   UNL     1       6.603   5.663  19.253  0.00  0.00    +0.000 F 
ENDBRANCH  11  20
TORSDOF 2
ENDMDL
MODEL 2
REMARK VINA RESULT:      -8.7      0.937      1.322
REMARK  Name = 
REMARK  2 active torsions:
REMARK  status: ('A' for Active; 'I' for Inactive)
REMARK    1  A    between atoms: C_6  and  C_7
REMARK    2  A    between atoms: C_19  and  C_20
REMARK                            x       y       z     vdW  Elec       q    Type
REMARK                         _______ _______ _______ _____ _____    ______ ____
ROOT
ATOM      1  O   UNL     1       3.935   3.353  20.050  0.00  0.00    +0.000 OA
ATOM      2  N   UNL     1       3.395   4.491  19.835  0.00  0.00    +0.000 N 
ATOM      3  C   UNL     1       2.399   4.879  20.708  0.00  0.00    +0.000 A 
ATOM      4  C   UNL     1       1.801   6.126  20.629  0.00  0.00    +0.000 A 
ATOM      5  C   UNL     1       2.200   7.053  19.652  0.00  0.00    +0.000 A 
ATOM      6  C   UNL     1       1.720   8.408  19.605  0.00  0.00    +0.000 A 
ATOM      7  C   UNL     1       2.114   9.197  18.516  0.00  0.00    +0.000 A 
ATOM      8  C   UNL     1       2.897   8.639  17.535  0.00  0.00    +0.000 A 
ATOM      9  N   UNL     1       3.381   7.387  17.595  0.00  0.00    +0.000 NA
ATOM     10  C   UNL     1       3.115   6.607  18.661  0.00  0.00    +0.000 A 
ATOM     11  C   UNL     1       3.755   5.343  18.782  0.00  0.00    +0.000 A 
ENDROOT
BRANCH   6  12
ATOM     12  C   UNL     1       0.875   9.036  20.669  0.00  0.00    +0.000 A 
ATOM     13  C   UNL     1       1.197   8.928  22.038  0.00  0.00    +0.000 A 
ATOM     14  C   UNL     1       0.370   9.456  23.036  0.00  0.00    +0.000 A 
ATOM     15  C   UNL     1      -0.760  10.180  22.679  0.00  0.00    +0.000 A 
ATOM     16  F   UNL     1      -1.549  10.683  23.632  0.00  0.00    +0.000 F 
ATOM     17  C   UNL     1      -1.069  10.380  21.344  0.00  0.00    +0.000 A 
ATOM     18  C   UNL     1      -0.265   9.807  20.360  0.00  0.00    +0.000 A 
ATOM     19  F   UNL     1      -0.618  10.020  19.083  0.00  0.00    +0.000 F 
ENDBRANCH   6  12
BRANCH  11  20
ATOM     20  C   UNL     1       4.843   4.890  17.863  0.00  0.00    +0.000 A 
ATOM     21  C   UNL     1       6.191   5.260  18.059  0.00  0.00    +0.000 A 
ATOM     22  C   UNL     1       7.199   4.897  17.156  0.00  0.00    +0.000 A 
ATOM     23  C   UNL     1       6.899   4.103  16.055  0.00  0.00    +0.000 A 
ATOM     24  C   UNL     1       5.586   3.697  15.847  0.00  0.00    +0.000 A 
ATOM     25  C   UNL     1       4.578   4.111  16.721  0.00  0.00    +0.000 A 
ATOM     26  F   UNL     1       3.319   3.780  16.392  0.00  0.00    +0.000 F 
ENDBRANCH  11  20
TORSDOF 2
ENDMDL
MODEL 3
REMARK VINA RESULT:      -8.2      3.056      7.360
REMARK  Name = 
REMARK  2 active torsions:
REMARK  status: ('A' for Active; 'I' for Inactive)
REMARK    1  A    between atoms: C_6  and  C_7
REMARK    2  A    between atoms: C_19  and  C_20
REMARK                            x       y       z     vdW  Elec       q    Type
REMARK                         _______ _______ _______ _____ _____    ______ ____
ROOT
ATOM      1  O   UNL     1      -0.471   9.232  22.042  0.00  0.00    +0.000 OA
ATOM      2  N   UNL     1       0.364   8.696  21.237  0.00  0.00    +0.000 N 
ATOM      3  C   UNL     1       0.766   7.409  21.528  0.00  0.00    +0.000 A 
ATOM      4  C   UNL     1       1.599   6.694  20.683  0.00  0.00    +0.000 A 
ATOM      5  C   UNL     1       2.062   7.260  19.484  0.00  0.00    +0.000 A 
ATOM      6  C   UNL     1       2.812   6.526  18.500  0.00  0.00    +0.000 A 
ATOM      7  C   UNL     1       3.307   7.236  17.399  0.00  0.00    +0.000 A 
ATOM      8  C   UNL     1       3.090   8.591  17.325  0.00  0.00    +0.000 A 
ATOM      9  N   UNL     1       2.356   9.274  18.221  0.00  0.00    +0.000 NA
ATOM     10  C   UNL     1       1.776   8.632  19.253  0.00  0.00    +0.000 A 
ATOM     11  C   UNL     1       0.881   9.338  20.103  0.00  0.00    +0.000 A 
ENDROOT
BRANCH   6  12
ATOM     12  C   UNL     1       3.049   5.048  18.557  0.00  0.00    +0.000 A 
ATOM     13  C   UNL     1       4.137   4.493  19.263  0.00  0.00    +0.000 A 
ATOM     14  C   UNL     1       4.398   3.118  19.257  0.00  0.00    +0.000 A 
ATOM     15  C   UNL     1       3.522   2.257  18.612  0.00  0.00    +0.000 A 
ATOM     16  F   UNL     1       3.772   0.944  18.607  0.00  0.00    +0.000 F 
ATOM     17  C   UNL     1       2.396   2.752  17.976  0.00  0.00    +0.000 A 
ATOM     18  C   UNL     1       2.174   4.127  17.945  0.00  0.00    +0.000 A 
ATOM     19  F   UNL     1       1.076   4.554  17.303  0.00  0.00    +0.000 F 
ENDBRANCH   6  12
BRANCH  11  20
ATOM     20  C   UNL     1       0.416  10.730  19.820  0.00  0.00    +0.000 A 
ATOM     21  C   UNL     1       1.047  11.860  20.383  0.00  0.00    +0.000 A 
ATOM     22  C   UNL     1       0.564  13.159  20.176  0.00  0.00    +0.000 A 
ATOM     23  C   UNL     1      -0.534  13.374  19.351  0.00  0.00    +0.000 A 
ATOM     24  C   UNL     1      -1.162  12.286  18.757  0.00  0.00    +0.000 A 
ATOM     25  C   UNL     1      -0.710  10.990  19.015  0.00  0.00    +0.000 A 
ATOM     26  F   UNL     1      -1.436   9.983  18.504  0.00  0.00    +0.000 F 
ENDBRANCH  11  20
TORSDOF 2
ENDMDL
MODEL 4
REMARK VINA RESULT:      -8.1      0.934      1.325
REMARK  Name = 
REMARK  2 active torsions:
REMARK  status: ('A' for Active; 'I' for Inactive)
REMARK    1  A    between atoms: C_6  and  C_7
REMARK    2  A    between atoms: C_19  and  C_20
REMARK                            x       y       z     vdW  Elec       q    Type
REMARK                         _______ _______ _______ _____ _____    ______ ____
ROOT
ATOM      1  O   UNL     1       3.755   3.511  19.994  0.00  0.00    +0.000 OA
ATOM      2  N   UNL     1       3.235   4.660  19.785  0.00  0.00    +0.000 N 
ATOM      3  C   UNL     1       2.219   5.043  20.636  0.00  0.00    +0.000 A 
ATOM      4  C   UNL     1       1.638   6.299  20.564  0.00  0.00    +0.000 A 
ATOM      5  C   UNL     1       2.076   7.238  19.616  0.00  0.00    +0.000 A 
ATOM      6  C   UNL     1       1.614   8.600  19.581  0.00  0.00    +0.000 A 
ATOM      7  C   UNL     1       2.047   9.404  18.519  0.00  0.00    +0.000 A 
ATOM      8  C   UNL     1       2.853   8.855  17.550  0.00  0.00    +0.000 A 
ATOM      9  N   UNL     1       3.319   7.596  17.601  0.00  0.00    +0.000 NA
ATOM     10  C   UNL     1       3.014   6.800  18.644  0.00  0.00    +0.000 A 
ATOM     11  C   UNL     1       3.635   5.526  18.759  0.00  0.00    +0.000 A 
ENDROOT
BRANCH   6  12
ATOM     12  C   UNL     1       0.745   9.219  20.632  0.00  0.00    +0.000 A 
ATOM     13  C   UNL     1      -0.489   9.826  20.318  0.00  0.00    +0.000 A 
ATOM     14  C   UNL     1      -1.267  10.466  21.290  0.00  0.00    +0.000 A 
ATOM     15  C   UNL     1      -0.864  10.438  22.618  0.00  0.00    +0.000 A 
ATOM     16  F   UNL     1      -1.606  11.049  23.546  0.00  0.00    +0.000 F 
ATOM     17  C   UNL     1       0.301   9.783  22.982  0.00  0.00    +0.000 A 
ATOM     18  C   UNL     1       1.093   9.193  21.999  0.00  0.00    +0.000 A 
ATOM     19  F   UNL     1       2.217   8.583  22.404  0.00  0.00    +0.000 F 
ENDBRANCH   6  12
BRANCH  11  20
ATOM     20  C   UNL     1       4.744   5.078  17.863  0.00  0.00    +0.000 A 
ATOM     21  C   UNL     1       4.498   4.454  16.621  0.00  0.00    +0.000 A 
ATOM     22  C   UNL     1       5.536   3.966  15.817  0.00  0.00    +0.000 A 
ATOM     23  C   UNL     1       6.860   4.138  16.204  0.00  0.00    +0.000 A 
ATOM     24  C   UNL     1       7.141   4.774  17.408  0.00  0.00    +0.000 A 
ATOM     25  C   UNL     1       6.097   5.205  18.230  0.00  0.00    +0.000 A 
ATOM     26  F   UNL     1       6.439   5.702  19.430  0.00  0.00    +0.000 F 
ENDBRANCH  11  20
TORSDOF 2
ENDMDL
MODEL 5
REMARK VINA RESULT:      -8.0      2.291      7.927
REMARK  Name = 
REMARK  2 active torsions:
REMARK  status: ('A' for Active; 'I' for Inactive)
REMARK    1  A    between atoms: C_6  and  C_7
REMARK    2  A    between atoms: C_19  and  C_20
REMARK                            x       y       z     vdW  Elec       q    Type
REMARK                         _______ _______ _______ _____ _____    ______ ____
ROOT
ATOM      1  O   UNL     1       1.378  10.970  18.782  0.00  0.00    +0.000 OA
ATOM      2  N   UNL     1       1.743   9.746  18.788  0.00  0.00    +0.000 N 
ATOM      3  C   UNL     1       2.465   9.309  17.696  0.00  0.00    +0.000 A 
ATOM      4  C   UNL     1       2.990   8.028  17.631  0.00  0.00    +0.000 A 
ATOM      5  C   UNL     1       2.809   7.123  18.689  0.00  0.00    +0.000 A 
ATOM      6  C   UNL     1       3.442   5.833  18.744  0.00  0.00    +0.000 A 
ATOM      7  C   UNL     1       3.094   4.984  19.802  0.00  0.00    +0.000 A 
ATOM      8  C   UNL     1       2.147   5.398  20.708  0.00  0.00    +0.000 A 
ATOM      9  N   UNL     1       1.583   6.618  20.684  0.00  0.00    +0.000 NA
ATOM     10  C   UNL     1       1.943   7.515  19.745  0.00  0.00    +0.000 A 
ATOM     11  C   UNL     1       1.452   8.847  19.824  0.00  0.00    +0.000 A 
ENDROOT
BRANCH   6  12
ATOM     12  C   UNL     1       4.484   5.368  17.774  0.00  0.00    +0.000 A 
ATOM     13  C   UNL     1       5.789   5.902  17.768  0.00  0.00    +0.000 A 
ATOM     14  C   UNL     1       6.741   5.518  16.816  0.00  0.00    +0.000 A 
ATOM     15  C   UNL     1       6.431   4.524  15.899  0.00  0.00    +0.000 A 
ATOM     16  F   UNL     1       7.339   4.158  14.990  0.00  0.00    +0.000 F 
ATOM     17  C   UNL     1       5.187   3.915  15.922  0.00  0.00    +0.000 A 
ATOM     18  C   UNL     1       4.231   4.341  16.841  0.00  0.00    +0.000 A 
ATOM     19  F   UNL     1       3.038   3.727  16.811  0.00  0.00    +0.000 F 
ENDBRANCH   6  12
BRANCH  11  20
ATOM     20  C   UNL     1       0.674   9.361  20.992  0.00  0.00    +0.000 A 
ATOM     21  C   UNL     1       1.102   9.163  22.322  0.00  0.00    +0.000 A 
ATOM     22  C   UNL     1       0.335   9.579  23.418  0.00  0.00    +0.000 A 
ATOM     23  C   UNL     1      -0.861  10.259  23.217  0.00  0.00    +0.000 A 
ATOM     24  C   UNL     1      -1.298  10.497  21.919  0.00  0.00    +0.000 A 
ATOM     25  C   UNL     1      -0.556  10.027  20.833  0.00  0.00    +0.000 A 
ATOM     26  F   UNL     1      -1.097  10.189  19.616  0.00  0.00    +0.000 F 
ENDBRANCH  11  20
TORSDOF 2
ENDMDL
MODEL 6
REMARK VINA RESULT:      -8.0      2.901      7.571
REMARK  Name = 
REMARK  2 active torsions:
REMARK  status: ('A' for Active; 'I' for Inactive)
REMARK    1  A    between atoms: C_6  and  C_7
REMARK    2  A    between atoms: C_19  and  C_20
REMARK                            x       y       z     vdW  Elec       q    Type
REMARK                         _______ _______ _______ _____ _____    ______ ____
ROOT
ATOM      1  O   UNL     1      -0.590   9.391  22.401  0.00  0.00    +0.000 OA
ATOM      2  N   UNL     1       0.203   8.913  21.521  0.00  0.00    +0.000 N 
ATOM      3  C   UNL     1       0.654   7.625  21.727  0.00  0.00    +0.000 A 
ATOM      4  C   UNL     1       1.447   6.970  20.799  0.00  0.00    +0.000 A 
ATOM      5  C   UNL     1       1.817   7.599  19.599  0.00  0.00    +0.000 A 
ATOM      6  C   UNL     1       2.518   6.928  18.537  0.00  0.00    +0.000 A 
ATOM      7  C   UNL     1       2.921   7.698  17.439  0.00  0.00    +0.000 A 
ATOM      8  C   UNL     1       2.668   9.049  17.440  0.00  0.00    +0.000 A 
ATOM      9  N   UNL     1       1.978   9.672  18.410  0.00  0.00    +0.000 NA
ATOM     10  C   UNL     1       1.483   8.971  19.449  0.00  0.00    +0.000 A 
ATOM     11  C   UNL     1       0.629   9.616  20.385  0.00  0.00    +0.000 A 
ENDROOT
BRANCH   6  12
ATOM     12  C   UNL     1       2.793   5.456  18.513  0.00  0.00    +0.000 A 
ATOM     13  C   UNL     1       1.947   4.550  17.841  0.00  0.00    +0.000 A 
ATOM     14  C   UNL     1       2.166   3.168  17.877  0.00  0.00    +0.000 A 
ATOM     15  C   UNL     1       3.291   2.668  18.520  0.00  0.00    +0.000 A 
ATOM     16  F   UNL     1       3.499   1.350  18.555  0.00  0.00    +0.000 F 
ATOM     17  C   UNL     1       4.192   3.530  19.123  0.00  0.00    +0.000 A 
ATOM     18  C   UNL     1       3.936   4.900  19.124  0.00  0.00    +0.000 A 
ATOM     19  F   UNL     1       4.834   5.688  19.734  0.00  0.00    +0.000 F 
ENDBRANCH   6  12
BRANCH  11  20
ATOM     20  C   UNL     1       0.112  11.006  20.194  0.00  0.00    +0.000 A 
ATOM     21  C   UNL     1       0.720  12.121  20.809  0.00  0.00    +0.000 A 
ATOM     22  C   UNL     1       0.191  13.413  20.690  0.00  0.00    +0.000 A 
ATOM     23  C   UNL     1      -0.933  13.639  19.904  0.00  0.00    +0.000 A 
ATOM     24  C   UNL     1      -1.540  12.567  19.261  0.00  0.00    +0.000 A 
ATOM     25  C   UNL     1      -1.040  11.275  19.432  0.00  0.00    +0.000 A 
ATOM     26  F   UNL     1      -1.746  10.275  18.879  0.00  0.00    +0.000 F 
ENDBRANCH  11  20
TORSDOF 2
ENDMDL
MODEL 7
REMARK VINA RESULT:      -8.0      1.322      1.867
REMARK  Name = 
REMARK  2 active torsions:
REMARK  status: ('A' for Active; 'I' for Inactive)
REMARK    1  A    between atoms: C_6  and  C_7
REMARK    2  A    between atoms: C_19  and  C_20
REMARK                            x       y       z     vdW  Elec       q    Type
REMARK                         _______ _______ _______ _____ _____    ______ ____
ROOT
ATOM      1  O   UNL     1       3.760   3.547  20.086  0.00  0.00    +0.000 OA
ATOM      2  N   UNL     1       3.231   4.687  19.855  0.00  0.00    +0.000 N 
ATOM      3  C   UNL     1       2.221   5.086  20.706  0.00  0.00    +0.000 A 
ATOM      4  C   UNL     1       1.633   6.337  20.609  0.00  0.00    +0.000 A 
ATOM      5  C   UNL     1       2.055   7.255  19.634  0.00  0.00    +0.000 A 
ATOM      6  C   UNL     1       1.585   8.612  19.569  0.00  0.00    +0.000 A 
ATOM      7  C   UNL     1       2.004   9.392  18.483  0.00  0.00    +0.000 A 
ATOM      8  C   UNL     1       2.803   8.824  17.520  0.00  0.00    +0.000 A 
ATOM      9  N   UNL     1       3.277   7.569  17.598  0.00  0.00    +0.000 NA
ATOM     10  C   UNL     1       2.986   6.798  18.663  0.00  0.00    +0.000 A 
ATOM     11  C   UNL     1       3.616   5.530  18.803  0.00  0.00    +0.000 A 
ENDROOT
BRANCH   6  12
ATOM     12  C   UNL     1       0.724   9.253  20.614  0.00  0.00    +0.000 A 
ATOM     13  C   UNL     1      -0.500   9.876  20.292  0.00  0.00    +0.000 A 
ATOM     14  C   UNL     1      -1.270  10.535  21.257  0.00  0.00    +0.000 A 
ATOM     15  C   UNL     1      -0.871  10.511  22.587  0.00  0.00    +0.000 A 
ATOM     16  F   UNL     1      -1.606  11.141  23.507  0.00  0.00    +0.000 F 
ATOM     17  C   UNL     1       0.283   9.841  22.958  0.00  0.00    +0.000 A 
ATOM     18  C   UNL     1       1.068   9.231  21.981  0.00  0.00    +0.000 A 
ATOM     19  F   UNL     1       2.182   8.608  22.394  0.00  0.00    +0.000 F 
ENDBRANCH   6  12
BRANCH  11  20
ATOM     20  C   UNL     1       4.719   5.066  17.908  0.00  0.00    +0.000 A 
ATOM     21  C   UNL     1       6.048   5.513  18.062  0.00  0.00    +0.000 A 
ATOM     22  C   UNL     1       7.066   5.135  17.177  0.00  0.00    +0.000 A 
ATOM     23  C   UNL     1       6.797   4.250  16.139  0.00  0.00    +0.000 A 
ATOM     24  C   UNL     1       5.504   3.767  15.975  0.00  0.00    +0.000 A 
ATOM     25  C   UNL     1       4.484   4.194  16.828  0.00  0.00    +0.000 A 
ATOM     26  F   UNL     1       3.241   3.780  16.537  0.00  0.00    +0.000 F 
ENDBRANCH  11  20
TORSDOF 2
ENDMDL
MODEL 8
REMARK VINA RESULT:      -7.9      3.283      7.354
REMARK  Name = 
REMARK  2 active torsions:
REMARK  status: ('A' for Active; 'I' for Inactive)
REMARK    1  A    between atoms: C_6  and  C_7
REMARK    2  A    between atoms: C_19  and  C_20
REMARK                            x       y       z     vdW  Elec       q    Type
REMARK                         _______ _______ _______ _____ _____    ______ ____
ROOT
ATOM      1  O   UNL     1      -0.006  11.196  22.379  0.00  0.00    +0.000 OA
ATOM      2  N   UNL     1       0.567  10.306  21.664  0.00  0.00    +0.000 N 
ATOM      3  C   UNL     1       0.871   9.112  22.286  0.00  0.00    +0.000 A 
ATOM      4  C   UNL     1       1.413   8.043  21.593  0.00  0.00    +0.000 A 
ATOM      5  C   UNL     1       1.668   8.136  20.215  0.00  0.00    +0.000 A 
ATOM      6  C   UNL     1       2.097   7.021  19.413  0.00  0.00    +0.000 A 
ATOM      7  C   UNL     1       2.420   7.273  18.073  0.00  0.00    +0.000 A 
ATOM      8  C   UNL     1       2.351   8.561  17.599  0.00  0.00    +0.000 A 
ATOM      9  N   UNL     1       1.912   9.598  18.333  0.00  0.00    +0.000 NA
ATOM     10  C   UNL     1       1.499   9.405  19.601  0.00  0.00    +0.000 A 
ATOM     11  C   UNL     1       0.897  10.480  20.313  0.00  0.00    +0.000 A 
ENDROOT
BRANCH   6  12
ATOM     12  C   UNL     1       2.169   5.610  19.908  0.00  0.00    +0.000 A 
ATOM     13  C   UNL     1       1.010   4.876  20.240  0.00  0.00    +0.000 A 
ATOM     14  C   UNL     1       1.081   3.582  20.768  0.00  0.00    +0.000 A 
ATOM     15  C   UNL     1       2.316   2.960  20.897  0.00  0.00    +0.000 A 
ATOM     16  F   UNL     1       2.383   1.726  21.402  0.00  0.00    +0.000 F 
ATOM     17  C   UNL     1       3.472   3.614  20.506  0.00  0.00    +0.000 A 
ATOM     18  C   UNL     1       3.394   4.921  20.029  0.00  0.00    +0.000 A 
ATOM     19  F   UNL     1       4.545   5.514  19.678  0.00  0.00    +0.000 F 
ENDBRANCH   6  12
BRANCH  11  20
ATOM     20  C   UNL     1       0.545  11.784  19.674  0.00  0.00    +0.000 A 
ATOM     21  C   UNL     1       1.386  12.913  19.765  0.00  0.00    +0.000 A 
ATOM     22  C   UNL     1       1.021  14.156  19.230  0.00  0.00    +0.000 A 
ATOM     23  C   UNL     1      -0.175  14.293  18.535  0.00  0.00    +0.000 A 
ATOM     24  C   UNL     1      -1.015  13.194  18.401  0.00  0.00    +0.000 A 
ATOM     25  C   UNL     1      -0.669  11.974  18.987  0.00  0.00    +0.000 A 
ATOM     26  F   UNL     1      -1.581  10.991  18.919  0.00  0.00    +0.000 F 
ENDBRANCH  11  20
TORSDOF 2
ENDMDL
MODEL 9
REMARK VINA RESULT:      -7.9      3.127      7.259
REMARK  Name = 
REMARK  2 active torsions:
REMARK  status: ('A' for Active; 'I' for Inactive)
REMARK    1  A    between atoms: C_6  and  C_7
REMARK    2  A    between atoms: C_19  and  C_20
REMARK                            x       y       z     vdW  Elec       q    Type
REMARK                         _______ _______ _______ _____ _____    ______ ____
ROOT
ATOM      1  O   UNL     1      -0.609   9.416  22.004  0.00  0.00    +0.000 OA
ATOM      2  N   UNL     1       0.243   8.884  21.214  0.00  0.00    +0.000 N 
ATOM      3  C   UNL     1       0.694   7.624  21.547  0.00  0.00    +0.000 A 
ATOM      4  C   UNL     1       1.550   6.912  20.723  0.00  0.00    +0.000 A 
ATOM      5  C   UNL     1       1.987   7.452  19.503  0.00  0.00    +0.000 A 
ATOM      6  C   UNL     1       2.761   6.713  18.542  0.00  0.00    +0.000 A 
ATOM      7  C   UNL     1       3.223   7.402  17.413  0.00  0.00    +0.000 A 
ATOM      8  C   UNL     1       2.956   8.745  17.294  0.00  0.00    +0.000 A 
ATOM      9  N   UNL     1       2.200   9.430  18.169  0.00  0.00    +0.000 NA
ATOM     10  C   UNL     1       1.648   8.804  19.226  0.00  0.00    +0.000 A 
ATOM     11  C   UNL     1       0.731   9.505  20.056  0.00  0.00    +0.000 A 
ENDROOT
BRANCH   6  12
ATOM     12  C   UNL     1       3.053   5.248  18.648  0.00  0.00    +0.000 A 
ATOM     13  C   UNL     1       4.159   4.759  19.375  0.00  0.00    +0.000 A 
ATOM     14  C   UNL     1       4.472   3.396  19.416  0.00  0.00    +0.000 A 
ATOM     15  C   UNL     1       3.632   2.480  18.798  0.00  0.00    +0.000 A 
ATOM     16  F   UNL     1       3.931   1.179  18.837  0.00  0.00    +0.000 F 
ATOM     17  C   UNL     1       2.490   2.911  18.142  0.00  0.00    +0.000 A 
ATOM     18  C   UNL     1       2.216   4.275  18.065  0.00  0.00    +0.000 A 
ATOM     19  F   UNL     1       1.105   4.638  17.406  0.00  0.00    +0.000 F 
ENDBRANCH   6  12
BRANCH  11  20
ATOM     20  C   UNL     1       0.212  10.868  19.727  0.00  0.00    +0.000 A 
ATOM     21  C   UNL     1      -0.879  11.062  18.853  0.00  0.00    +0.000 A 
ATOM     22  C   UNL     1      -1.316  12.342  18.486  0.00  0.00    +0.000 A 
ATOM     23  C   UNL     1      -0.711  13.470  19.028  0.00  0.00    +0.000 A 
ATOM     24  C   UNL     1       0.348  13.315  19.914  0.00  0.00    +0.000 A 
ATOM     25  C   UNL     1       0.814  12.036  20.229  0.00  0.00    +0.000 A 
ATOM     26  F   UNL     1       1.914  11.966  20.997  0.00  0.00    +0.000 F 
ENDBRANCH  11  20
TORSDOF 2
ENDMDL
