MODEL 1
REMARK VINA RESULT:      -7.3      0.000      0.000
REMARK  Name = 
REMARK  8 active torsions:
REMARK  status: ('A' for Active; 'I' for Inactive)
REMARK    1  A    between atoms: O_1  and  C_2
REMARK    2  A    between atoms: C_2  and  C_3
REMARK    3  A    between atoms: C_2  and  C_13
REMARK    4  A    between atoms: C_3  and  N_4
REMARK    5  A    between atoms: N_4  and  C_5
REMARK    6  A    between atoms: C_5  and  C_6
REMARK    7  A    between atoms: C_13  and  O_14
REMARK    8  A    between atoms: O_14  and  C_15
REMARK                            x       y       z     vdW  Elec       q    Type
REMARK                         _______ _______ _______ _____ _____    ______ ____
ROOT
ATOM      1  C   UNL     1       2.223   2.534  18.400  0.00  0.00    +0.000 C 
ENDROOT
BRANCH   1   2
ATOM      2  O   UNL     1       2.170   1.167  18.837  0.00  0.00    +0.000 OA
ATOM      3  H   UNL     1       1.600   0.686  18.216  0.00  0.00    +0.000 HD
ENDBRANCH   1   2
BRANCH   1   4
ATOM      4  C   UNL     1       2.182   3.439  19.650  0.00  0.00    +0.000 C 
BRANCH   4   5
ATOM      5  N   UNL     1       1.650   4.768  19.355  0.00  0.00    +0.000 NA
ATOM      6  H   UNL     1       0.640   4.783  19.501  0.00  0.00    +0.000 HD
BRANCH   5   7
ATOM      7  C   UNL     1       2.258   5.800  20.197  0.00  0.00    +0.000 C 
BRANCH   7   8
ATOM      8  C   UNL     1       2.043   7.161  19.588  0.00  0.00    +0.000 A 
ATOM      9  C   UNL     1       2.418   7.419  18.259  0.00  0.00    +0.000 A 
ATOM     10  C   UNL     1       2.200   8.676  17.689  0.00  0.00    +0.000 A 
ATOM     11  C   UNL     1       1.611   9.691  18.441  0.00  0.00    +0.000 A 
ATOM     12  C   UNL     1       1.244   9.451  19.764  0.00  0.00    +0.000 A 
ATOM     13  C   UNL     1       1.462   8.196  20.326  0.00  0.00    +0.000 A 
ATOM     14  F   UNL     1       1.094   7.988  21.599  0.00  0.00    +0.000 F 
ENDBRANCH   7   8
ENDBRANCH   5   7
ENDBRANCH   4   5
ENDBRANCH   1   4
BRANCH   1  15
ATOM     15  C   UNL     1       3.509   2.761  17.594  0.00  0.00    +0.000 C 
BRANCH  15  16
ATOM     16  O   UNL     1       3.630   4.145  17.234  0.00  0.00    +0.000 OA
BRANCH  16  17
ATOM     17  C   UNL     1       4.882   4.688  17.412  0.00  0.00    +0.000 A 
ATOM     18  C   UNL     1       5.388   5.110  18.653  0.00  0.00    +0.000 A 
ATOM     19  C   UNL     1       6.671   5.644  18.775  0.00  0.00    +0.000 A 
ATOM     20  C   UNL     1       7.504   5.773  17.666  0.00  0.00    +0.000 A 
ATOM     21  C   UNL     1       7.008   5.337  16.434  0.00  0.00    +0.000 A 
ATOM     22  N   UNL     1       7.607   5.330  15.194  0.00  0.00    +0.000 N 
ATOM     23  C   UNL     1       6.760   4.804  14.260  0.00  0.00    +0.000 A 
ATOM     24  C   UNL     1       5.587   4.466  14.900  0.00  0.00    +0.000 A 
ATOM     25  C   UNL     1       5.728   4.798  16.281  0.00  0.00    +0.000 A 
ATOM     26  H   UNL     1       8.544   5.663  15.012  0.00  0.00    +0.000 HD
ENDBRANCH  16  17
ENDBRANCH  15  16
ENDBRANCH   1  15
TORSDOF 8
ENDMDL
MODEL 2
REMARK VINA RESULT:      -7.1      1.176      1.537
REMARK  Name = 
REMARK  8 active torsions:
REMARK  status: ('A' for Active; 'I' for Inactive)
REMARK    1  A    between atoms: O_1  and  C_2
REMARK    2  A    between atoms: C_2  and  C_3
REMARK    3  A    between atoms: C_2  and  C_13
REMARK    4  A    between atoms: C_3  and  N_4
REMARK    5  A    between atoms: N_4  and  C_5
REMARK    6  A    between atoms: C_5  and  C_6
REMARK    7  A    between atoms: C_13  and  O_14
REMARK    8  A    between atoms: O_14  and  C_15
REMARK                            x       y       z     vdW  Elec       q    Type
REMARK                         _______ _______ _______ _____ _____    ______ ____
ROOT
ATOM      1  C   UNL     1       1.841   2.750  18.348  0.00  0.00    +0.000 C 
ENDROOT
BRANCH   1   2
ATOM      2  O   UNL     1       1.659   2.152  19.641  0.00  0.00    +0.000 OA
ATOM      3  H   UNL     1       1.200   2.802  20.198  0.00  0.00    +0.000 HD
ENDBRANCH   1   2
BRANCH   1   4
ATOM      4  C   UNL     1       1.548   4.260  18.472  0.00  0.00    +0.000 C 
BRANCH   4   5
ATOM      5  N   UNL     1       1.706   4.744  19.842  0.00  0.00    +0.000 NA
ATOM      6  H   UNL     1       1.921   3.967  20.467  0.00  0.00    +0.000 HD
BRANCH   5   7
ATOM      7  C   UNL     1       2.774   5.739  19.952  0.00  0.00    +0.000 C 
BRANCH   7   8
ATOM      8  C   UNL     1       2.258   7.102  19.569  0.00  0.00    +0.000 A 
ATOM      9  C   UNL     1       1.478   7.851  20.466  0.00  0.00    +0.000 A 
ATOM     10  C   UNL     1       1.016   9.122  20.117  0.00  0.00    +0.000 A 
ATOM     11  C   UNL     1       1.322   9.658  18.867  0.00  0.00    +0.000 A 
ATOM     12  C   UNL     1       2.087   8.920  17.964  0.00  0.00    +0.000 A 
ATOM     13  C   UNL     1       2.545   7.654  18.319  0.00  0.00    +0.000 A 
ATOM     14  F   UNL     1       3.284   6.967  17.435  0.00  0.00    +0.000 F 
ENDBRANCH   7   8
ENDBRANCH   5   7
ENDBRANCH   4   5
ENDBRANCH   1   4
BRANCH   1  15
ATOM     15  C   UNL     1       3.280   2.503  17.873  0.00  0.00    +0.000 C 
BRANCH  15  16
ATOM     16  O   UNL     1       3.672   3.515  16.934  0.00  0.00    +0.000 OA
BRANCH  16  17
ATOM     17  C   UNL     1       4.880   4.120  17.197  0.00  0.00    +0.000 A 
ATOM     18  C   UNL     1       5.343   4.422  18.489  0.00  0.00    +0.000 A 
ATOM     19  C   UNL     1       6.584   5.027  18.696  0.00  0.00    +0.000 A 
ATOM     20  C   UNL     1       7.414   5.350  17.626  0.00  0.00    +0.000 A 
ATOM     21  C   UNL     1       6.960   5.033  16.342  0.00  0.00    +0.000 A 
ATOM     22  N   UNL     1       7.569   5.220  15.120  0.00  0.00    +0.000 N 
ATOM     23  C   UNL     1       6.770   4.754  14.115  0.00  0.00    +0.000 A 
ATOM     24  C   UNL     1       5.619   4.258  14.690  0.00  0.00    +0.000 A 
ATOM     25  C   UNL     1       5.724   4.427  16.102  0.00  0.00    +0.000 A 
ATOM     26  H   UNL     1       8.480   5.639  14.996  0.00  0.00    +0.000 HD
ENDBRANCH  16  17
ENDBRANCH  15  16
ENDBRANCH   1  15
TORSDOF 8
ENDMDL
MODEL 3
REMARK VINA RESULT:      -7.1      1.130      2.055
REMARK  Name = 
REMARK  8 active torsions:
REMARK  status: ('A' for Active; 'I' for Inactive)
REMARK    1  A    between atoms: O_1  and  C_2
REMARK    2  A    between atoms: C_2  and  C_3
REMARK    3  A    between atoms: C_2  and  C_13
REMARK    4  A    between atoms: C_3  and  N_4
REMARK    5  A    between atoms: N_4  and  C_5
REMARK    6  A    between atoms: C_5  and  C_6
REMARK    7  A    between atoms: C_13  and  O_14
REMARK    8  A    between atoms: O_14  and  C_15
REMARK                            x       y       z     vdW  Elec       q    Type
REMARK                         _______ _______ _______ _____ _____    ______ ____
ROOT
ATOM      1  C   UNL     1       2.679   2.823  18.991  0.00  0.00    +0.000 C 
ENDROOT
BRANCH   1   2
ATOM      2  O   UNL     1       2.000   1.773  18.286  0.00  0.00    +0.000 OA
ATOM      3  H   UNL     1       2.458   1.650  17.438  0.00  0.00    +0.000 HD
ENDBRANCH   1   2
BRANCH   1   4
ATOM      4  C   UNL     1       1.929   3.073  20.316  0.00  0.00    +0.000 C 
BRANCH   4   5
ATOM      5  N   UNL     1       1.369   4.422  20.391  0.00  0.00    +0.000 NA
ATOM      6  H   UNL     1       0.619   4.453  21.082  0.00  0.00    +0.000 HD
BRANCH   5   7
ATOM      7  C   UNL     1       2.380   5.416  20.754  0.00  0.00    +0.000 C 
BRANCH   7   8
ATOM      8  C   UNL     1       2.298   6.603  19.831  0.00  0.00    +0.000 A 
ATOM      9  C   UNL     1       2.838   6.543  18.535  0.00  0.00    +0.000 A 
ATOM     10  C   UNL     1       2.744   7.638  17.674  0.00  0.00    +0.000 A 
ATOM     11  C   UNL     1       2.114   8.808  18.096  0.00  0.00    +0.000 A 
ATOM     12  C   UNL     1       1.582   8.883  19.382  0.00  0.00    +0.000 A 
ATOM     13  C   UNL     1       1.678   7.788  20.236  0.00  0.00    +0.000 A 
ATOM     14  F   UNL     1       1.154   7.884  21.467  0.00  0.00    +0.000 F 
ENDBRANCH   7   8
ENDBRANCH   5   7
ENDBRANCH   4   5
ENDBRANCH   1   4
BRANCH   1  15
ATOM     15  C   UNL     1       4.133   2.405  19.249  0.00  0.00    +0.000 C 
BRANCH  15  16
ATOM     16  O   UNL     1       4.982   3.562  19.286  0.00  0.00    +0.000 OA
BRANCH  16  17
ATOM     17  C   UNL     1       5.302   4.093  18.058  0.00  0.00    +0.000 A 
ATOM     18  C   UNL     1       4.701   3.700  16.850  0.00  0.00    +0.000 A 
ATOM     19  C   UNL     1       5.058   4.283  15.633  0.00  0.00    +0.000 A 
ATOM     20  C   UNL     1       6.023   5.285  15.572  0.00  0.00    +0.000 A 
ATOM     21  C   UNL     1       6.608   5.689  16.776  0.00  0.00    +0.000 A 
ATOM     22  N   UNL     1       7.563   6.652  17.013  0.00  0.00    +0.000 N 
ATOM     23  C   UNL     1       7.844   6.725  18.348  0.00  0.00    +0.000 A 
ATOM     24  C   UNL     1       7.062   5.790  18.993  0.00  0.00    +0.000 A 
ATOM     25  C   UNL     1       6.271   5.124  18.010  0.00  0.00    +0.000 A 
ATOM     26  H   UNL     1       7.987   7.224  16.295  0.00  0.00    +0.000 HD
ENDBRANCH  16  17
ENDBRANCH  15  16
ENDBRANCH   1  15
TORSDOF 8
ENDMDL
MODEL 4
REMARK VINA RESULT:      -7.0      2.504      5.824
REMARK  Name = 
REMARK  8 active torsions:
REMARK  status: ('A' for Active; 'I' for Inactive)
REMARK    1  A    between atoms: O_1  and  C_2
REMARK    2  A    between atoms: C_2  and  C_3
REMARK    3  A    between atoms: C_2  and  C_13
REMARK    4  A    between atoms: C_3  and  N_4
REMARK    5  A    between atoms: N_4  and  C_5
REMARK    6  A    between atoms: C_5  and  C_6
REMARK    7  A    between atoms: C_13  and  O_14
REMARK    8  A    between atoms: O_14  and  C_15
REMARK                            x       y       z     vdW  Elec       q    Type
REMARK                         _______ _______ _______ _____ _____    ______ ____
ROOT
ATOM      1  C   UNL     1       2.498   3.623  20.852  0.00  0.00    +0.000 C 
ENDROOT
BRANCH   1   2
ATOM      2  O   UNL     1       2.159   3.132  22.158  0.00  0.00    +0.000 OA
ATOM      3  H   UNL     1       2.956   2.718  22.527  0.00  0.00    +0.000 HD
ENDBRANCH   1   2
BRANCH   1   4
ATOM      4  C   UNL     1       2.426   2.441  19.862  0.00  0.00    +0.000 C 
BRANCH   4   5
ATOM      5  N   UNL     1       3.541   2.441  18.917  0.00  0.00    +0.000 NA
ATOM      6  H   UNL     1       3.229   2.778  18.006  0.00  0.00    +0.000 HD
BRANCH   5   7
ATOM      7  C   UNL     1       4.647   3.284  19.373  0.00  0.00    +0.000 C 
BRANCH   7   8
ATOM      8  C   UNL     1       5.060   4.236  18.281  0.00  0.00    +0.000 A 
ATOM      9  C   UNL     1       4.585   4.072  16.969  0.00  0.00    +0.000 A 
ATOM     10  C   UNL     1       4.954   4.967  15.962  0.00  0.00    +0.000 A 
ATOM     11  C   UNL     1       5.805   6.032  16.250  0.00  0.00    +0.000 A 
ATOM     12  C   UNL     1       6.292   6.200  17.546  0.00  0.00    +0.000 A 
ATOM     13  C   UNL     1       5.920   5.305  18.546  0.00  0.00    +0.000 A 
ATOM     14  F   UNL     1       6.397   5.492  19.786  0.00  0.00    +0.000 F 
ENDBRANCH   7   8
ENDBRANCH   5   7
ENDBRANCH   4   5
ENDBRANCH   1   4
BRANCH   1  15
ATOM     15  C   UNL     1       1.517   4.736  20.457  0.00  0.00    +0.000 C 
BRANCH  15  16
ATOM     16  O   UNL     1       1.999   6.007  20.917  0.00  0.00    +0.000 OA
BRANCH  16  17
ATOM     17  C   UNL     1       2.022   7.003  19.968  0.00  0.00    +0.000 A 
ATOM     18  C   UNL     1       2.580   6.855  18.687  0.00  0.00    +0.000 A 
ATOM     19  C   UNL     1       2.565   7.898  17.760  0.00  0.00    +0.000 A 
ATOM     20  C   UNL     1       1.986   9.127  18.070  0.00  0.00    +0.000 A 
ATOM     21  C   UNL     1       1.415   9.268  19.338  0.00  0.00    +0.000 A 
ATOM     22  N   UNL     1       0.772  10.347  19.901  0.00  0.00    +0.000 N 
ATOM     23  C   UNL     1       0.360  10.047  21.168  0.00  0.00    +0.000 A 
ATOM     24  C   UNL     1       0.744   8.751  21.439  0.00  0.00    +0.000 A 
ATOM     25  C   UNL     1       1.415   8.242  20.287  0.00  0.00    +0.000 A 
ATOM     26  H   UNL     1       0.625  11.231  19.432  0.00  0.00    +0.000 HD
ENDBRANCH  16  17
ENDBRANCH  15  16
ENDBRANCH   1  15
TORSDOF 8
ENDMDL
MODEL 5
REMARK VINA RESULT:      -7.0      2.592      6.022
REMARK  Name = 
REMARK  8 active torsions:
REMARK  status: ('A' for Active; 'I' for Inactive)
REMARK    1  A    between atoms: O_1  and  C_2
REMARK    2  A    between atoms: C_2  and  C_3
REMARK    3  A    between atoms: C_2  and  C_13
REMARK    4  A    between atoms: C_3  and  N_4
REMARK    5  A    between atoms: N_4  and  C_5
REMARK    6  A    between atoms: C_5  and  C_6
REMARK    7  A    between atoms: C_13  and  O_14
REMARK    8  A    between atoms: O_14  and  C_15
REMARK                            x       y       z     vdW  Elec       q    Type
REMARK                         _______ _______ _______ _____ _____    ______ ____
ROOT
ATOM      1  C   UNL     1       4.939   5.725  16.789  0.00  0.00    +0.000 C 
ENDROOT
BRANCH   1   2
ATOM      2  O   UNL     1       5.577   6.033  15.539  0.00  0.00    +0.000 OA
ATOM      3  H   UNL     1       5.323   6.938  15.299  0.00  0.00    +0.000 HD
ENDBRANCH   1   2
BRANCH   1   4
ATOM      4  C   UNL     1       5.907   4.855  17.618  0.00  0.00    +0.000 C 
BRANCH   4   5
ATOM      5  N   UNL     1       5.287   3.608  18.064  0.00  0.00    +0.000 NA
ATOM      6  H   UNL     1       5.318   3.545  19.082  0.00  0.00    +0.000 HD
BRANCH   5   7
ATOM      7  C   UNL     1       3.893   3.504  17.632  0.00  0.00    +0.000 C 
BRANCH   7   8
ATOM      8  C   UNL     1       2.995   3.285  18.822  0.00  0.00    +0.000 A 
ATOM      9  C   UNL     1       3.531   2.917  20.067  0.00  0.00    +0.000 A 
ATOM     10  C   UNL     1       2.699   2.734  21.174  0.00  0.00    +0.000 A 
ATOM     11  C   UNL     1       1.322   2.911  21.050  0.00  0.00    +0.000 A 
ATOM     12  C   UNL     1       0.776   3.267  19.817  0.00  0.00    +0.000 A 
ATOM     13  C   UNL     1       1.611   3.449  18.718  0.00  0.00    +0.000 A 
ATOM     14  F   UNL     1       1.062   3.797  17.545  0.00  0.00    +0.000 F 
ENDBRANCH   7   8
ENDBRANCH   5   7
ENDBRANCH   4   5
ENDBRANCH   1   4
BRANCH   1  15
ATOM     15  C   UNL     1       4.602   7.031  17.522  0.00  0.00    +0.000 C 
BRANCH  15  16
ATOM     16  O   UNL     1       3.204   7.327  17.388  0.00  0.00    +0.000 OA
BRANCH  16  17
ATOM     17  C   UNL     1       2.533   7.531  18.572  0.00  0.00    +0.000 A 
ATOM     18  C   UNL     1       2.480   6.593  19.617  0.00  0.00    +0.000 A 
ATOM     19  C   UNL     1       1.793   6.860  20.802  0.00  0.00    +0.000 A 
ATOM     20  C   UNL     1       1.136   8.073  20.995  0.00  0.00    +0.000 A 
ATOM     21  C   UNL     1       1.204   9.012  19.962  0.00  0.00    +0.000 A 
ATOM     22  N   UNL     1       0.671  10.280  19.886  0.00  0.00    +0.000 N 
ATOM     23  C   UNL     1       0.988  10.858  18.690  0.00  0.00    +0.000 A 
ATOM     24  C   UNL     1       1.738   9.952  17.971  0.00  0.00    +0.000 A 
ATOM     25  C   UNL     1       1.885   8.775  18.765  0.00  0.00    +0.000 A 
ATOM     26  H   UNL     1       0.128  10.715  20.619  0.00  0.00    +0.000 HD
ENDBRANCH  16  17
ENDBRANCH  15  16
ENDBRANCH   1  15
TORSDOF 8
ENDMDL
MODEL 6
REMARK VINA RESULT:      -7.0      1.154      1.154
REMARK  Name = 
REMARK  8 active torsions:
REMARK  status: ('A' for Active; 'I' for Inactive)
REMARK    1  A    between atoms: O_1  and  C_2
REMARK    2  A    between atoms: C_2  and  C_3
REMARK    3  A    between atoms: C_2  and  C_13
REMARK    4  A    between atoms: C_3  and  N_4
REMARK    5  A    between atoms: N_4  and  C_5
REMARK    6  A    between atoms: C_5  and  C_6
REMARK    7  A    between atoms: C_13  and  O_14
REMARK    8  A    between atoms: O_14  and  C_15
REMARK                            x       y       z     vdW  Elec       q    Type
REMARK                         _______ _______ _______ _____ _____    ______ ____
ROOT
ATOM      1  C   UNL     1       2.797   2.888  20.082  0.00  0.00    +0.000 C 
ENDROOT
BRANCH   1   2
ATOM      2  O   UNL     1       2.681   2.650  21.494  0.00  0.00    +0.000 OA
ATOM      3  H   UNL     1       1.881   2.119  21.634  0.00  0.00    +0.000 HD
ENDBRANCH   1   2
BRANCH   1   4
ATOM      4  C   UNL     1       2.087   4.219  19.761  0.00  0.00    +0.000 C 
BRANCH   4   5
ATOM      5  N   UNL     1       2.809   5.374  20.291  0.00  0.00    +0.000 NA
ATOM      6  H   UNL     1       3.388   5.792  19.561  0.00  0.00    +0.000 HD
BRANCH   5   7
ATOM      7  C   UNL     1       1.901   6.399  20.808  0.00  0.00    +0.000 C 
BRANCH   7   8
ATOM      8  C   UNL     1       1.841   7.568  19.860  0.00  0.00    +0.000 A 
ATOM      9  C   UNL     1       2.482   7.512  18.611  0.00  0.00    +0.000 A 
ATOM     10  C   UNL     1       2.410   8.589  17.725  0.00  0.00    +0.000 A 
ATOM     11  C   UNL     1       1.701   9.737  18.076  0.00  0.00    +0.000 A 
ATOM     12  C   UNL     1       1.069   9.809  19.317  0.00  0.00    +0.000 A 
ATOM     13  C   UNL     1       1.144   8.731  20.196  0.00  0.00    +0.000 A 
ATOM     14  F   UNL     1       0.522   8.823  21.380  0.00  0.00    +0.000 F 
ENDBRANCH   7   8
ENDBRANCH   5   7
ENDBRANCH   4   5
ENDBRANCH   1   4
BRANCH   1  15
ATOM     15  C   UNL     1       4.281   2.944  19.697  0.00  0.00    +0.000 C 
BRANCH  15  16
ATOM     16  O   UNL     1       4.424   3.403  18.344  0.00  0.00    +0.000 OA
BRANCH  16  17
ATOM     17  C   UNL     1       5.437   4.312  18.139  0.00  0.00    +0.000 A 
ATOM     18  C   UNL     1       6.025   5.079  19.159  0.00  0.00    +0.000 A 
ATOM     19  C   UNL     1       7.058   5.978  18.892  0.00  0.00    +0.000 A 
ATOM     20  C   UNL     1       7.550   6.145  17.600  0.00  0.00    +0.000 A 
ATOM     21  C   UNL     1       6.977   5.370  16.588  0.00  0.00    +0.000 A 
ATOM     22  N   UNL     1       7.271   5.317  15.244  0.00  0.00    +0.000 N 
ATOM     23  C   UNL     1       6.467   4.408  14.617  0.00  0.00    +0.000 A 
ATOM     24  C   UNL     1       5.631   3.861  15.567  0.00  0.00    +0.000 A 
ATOM     25  C   UNL     1       5.942   4.460  16.824  0.00  0.00    +0.000 A 
ATOM     26  H   UNL     1       7.987   5.871  14.795  0.00  0.00    +0.000 HD
ENDBRANCH  16  17
ENDBRANCH  15  16
ENDBRANCH   1  15
TORSDOF 8
ENDMDL
MODEL 7
REMARK VINA RESULT:      -6.9      1.485      1.857
REMARK  Name = 
REMARK  8 active torsions:
REMARK  status: ('A' for Active; 'I' for Inactive)
REMARK    1  A    between atoms: O_1  and  C_2
REMARK    2  A    between atoms: C_2  and  C_3
REMARK    3  A    between atoms: C_2  and  C_13
REMARK    4  A    between atoms: C_3  and  N_4
REMARK    5  A    between atoms: N_4  and  C_5
REMARK    6  A    between atoms: C_5  and  C_6
REMARK    7  A    between atoms: C_13  and  O_14
REMARK    8  A    between atoms: O_14  and  C_15
REMARK                            x       y       z     vdW  Elec       q    Type
REMARK                         _______ _______ _______ _____ _____    ______ ____
ROOT
ATOM      1  C   UNL     1       2.677   3.229  20.144  0.00  0.00    +0.000 C 
ENDROOT
BRANCH   1   2
ATOM      2  O   UNL     1       2.454   2.409  21.301  0.00  0.00    +0.000 OA
ATOM      3  H   UNL     1       3.191   2.564  21.913  0.00  0.00    +0.000 HD
ENDBRANCH   1   2
BRANCH   1   4
ATOM      4  C   UNL     1       2.495   4.704  20.560  0.00  0.00    +0.000 C 
BRANCH   4   5
ATOM      5  N   UNL     1       2.024   5.538  19.455  0.00  0.00    +0.000 NA
ATOM      6  H   UNL     1       1.052   5.808  19.609  0.00  0.00    +0.000 HD
BRANCH   5   7
ATOM      7  C   UNL     1       2.826   6.752  19.304  0.00  0.00    +0.000 C 
BRANCH   7   8
ATOM      8  C   UNL     1       1.952   7.973  19.432  0.00  0.00    +0.000 A 
ATOM      9  C   UNL     1       1.302   8.265  20.642  0.00  0.00    +0.000 A 
ATOM     10  C   UNL     1       0.507   9.407  20.765  0.00  0.00    +0.000 A 
ATOM     11  C   UNL     1       0.349  10.268  19.681  0.00  0.00    +0.000 A 
ATOM     12  C   UNL     1       0.981   9.984  18.471  0.00  0.00    +0.000 A 
ATOM     13  C   UNL     1       1.773   8.845  18.355  0.00  0.00    +0.000 A 
ATOM     14  F   UNL     1       2.375   8.597  17.183  0.00  0.00    +0.000 F 
ENDBRANCH   7   8
ENDBRANCH   5   7
ENDBRANCH   4   5
ENDBRANCH   1   4
BRANCH   1  15
ATOM     15  C   UNL     1       4.093   2.976  19.607  0.00  0.00    +0.000 C 
BRANCH  15  16
ATOM     16  O   UNL     1       4.251   3.591  18.320  0.00  0.00    +0.000 OA
BRANCH  16  17
ATOM     17  C   UNL     1       5.357   4.400  18.190  0.00  0.00    +0.000 A 
ATOM     18  C   UNL     1       6.001   5.030  19.268  0.00  0.00    +0.000 A 
ATOM     19  C   UNL     1       7.128   5.832  19.077  0.00  0.00    +0.000 A 
ATOM     20  C   UNL     1       7.660   6.032  17.806  0.00  0.00    +0.000 A 
ATOM     21  C   UNL     1       7.030   5.390  16.735  0.00  0.00    +0.000 A 
ATOM     22  N   UNL     1       7.343   5.397  15.395  0.00  0.00    +0.000 N 
ATOM     23  C   UNL     1       6.461   4.622  14.697  0.00  0.00    +0.000 A 
ATOM     24  C   UNL     1       5.554   4.104  15.596  0.00  0.00    +0.000 A 
ATOM     25  C   UNL     1       5.901   4.582  16.895  0.00  0.00    +0.000 A 
ATOM     26  H   UNL     1       8.122   5.902  14.994  0.00  0.00    +0.000 HD
ENDBRANCH  16  17
ENDBRANCH  15  16
ENDBRANCH   1  15
TORSDOF 8
ENDMDL
MODEL 8
REMARK VINA RESULT:      -6.9      3.251      6.890
REMARK  Name = 
REMARK  8 active torsions:
REMARK  status: ('A' for Active; 'I' for Inactive)
REMARK    1  A    between atoms: O_1  and  C_2
REMARK    2  A    between atoms: C_2  and  C_3
REMARK    3  A    between atoms: C_2  and  C_13
REMARK    4  A    between atoms: C_3  and  N_4
REMARK    5  A    between atoms: N_4  and  C_5
REMARK    6  A    between atoms: C_5  and  C_6
REMARK    7  A    between atoms: C_13  and  O_14
REMARK    8  A    between atoms: O_14  and  C_15
REMARK                            x       y       z     vdW  Elec       q    Type
REMARK                         _______ _______ _______ _____ _____    ______ ____
ROOT
ATOM      1  C   UNL     1       7.118   5.706  18.644  0.00  0.00    +0.000 C 
ENDROOT
BRANCH   1   2
ATOM      2  O   UNL     1       8.243   5.824  19.528  0.00  0.00    +0.000 OA
ATOM      3  H   UNL     1       8.568   6.736  19.463  0.00  0.00    +0.000 HD
ENDBRANCH   1   2
BRANCH   1   4
ATOM      4  C   UNL     1       7.439   4.615  17.602  0.00  0.00    +0.000 C 
BRANCH   4   5
ATOM      5  N   UNL     1       7.648   5.168  16.265  0.00  0.00    +0.000 NA
ATOM      6  H   UNL     1       8.202   4.523  15.701  0.00  0.00    +0.000 HD
BRANCH   5   7
ATOM      7  C   UNL     1       6.384   5.425  15.574  0.00  0.00    +0.000 C 
BRANCH   7   8
ATOM      8  C   UNL     1       6.364   4.716  14.244  0.00  0.00    +0.000 A 
ATOM      9  C   UNL     1       5.320   3.836  13.917  0.00  0.00    +0.000 A 
ATOM     10  C   UNL     1       5.293   3.194  12.676  0.00  0.00    +0.000 A 
ATOM     11  C   UNL     1       6.310   3.420  11.751  0.00  0.00    +0.000 A 
ATOM     12  C   UNL     1       7.358   4.284  12.068  0.00  0.00    +0.000 A 
ATOM     13  C   UNL     1       7.378   4.921  13.305  0.00  0.00    +0.000 A 
ATOM     14  F   UNL     1       8.393   5.753  13.584  0.00  0.00    +0.000 F 
ENDBRANCH   7   8
ENDBRANCH   5   7
ENDBRANCH   4   5
ENDBRANCH   1   4
BRANCH   1  15
ATOM     15  C   UNL     1       5.868   5.344  19.458  0.00  0.00    +0.000 C 
BRANCH  15  16
ATOM     16  O   UNL     1       4.683   5.638  18.703  0.00  0.00    +0.000 OA
BRANCH  16  17
ATOM     17  C   UNL     1       3.520   5.101  19.207  0.00  0.00    +0.000 A 
ATOM     18  C   UNL     1       2.693   5.751  20.138  0.00  0.00    +0.000 A 
ATOM     19  C   UNL     1       1.518   5.162  20.606  0.00  0.00    +0.000 A 
ATOM     20  C   UNL     1       1.116   3.906  20.159  0.00  0.00    +0.000 A 
ATOM     21  C   UNL     1       1.929   3.267  19.218  0.00  0.00    +0.000 A 
ATOM     22  N   UNL     1       1.773   2.047  18.600  0.00  0.00    +0.000 N 
ATOM     23  C   UNL     1       2.806   1.814  17.737  0.00  0.00    +0.000 A 
ATOM     24  C   UNL     1       3.654   2.900  17.796  0.00  0.00    +0.000 A 
ATOM     25  C   UNL     1       3.111   3.831  18.731  0.00  0.00    +0.000 A 
ATOM     26  H   UNL     1       0.996   1.420  18.764  0.00  0.00    +0.000 HD
ENDBRANCH  16  17
ENDBRANCH  15  16
ENDBRANCH   1  15
TORSDOF 8
ENDMDL
MODEL 9
REMARK VINA RESULT:      -6.9      3.488      7.199
REMARK  Name = 
REMARK  8 active torsions:
REMARK  status: ('A' for Active; 'I' for Inactive)
REMARK    1  A    between atoms: O_1  and  C_2
REMARK    2  A    between atoms: C_2  and  C_3
REMARK    3  A    between atoms: C_2  and  C_13
REMARK    4  A    between atoms: C_3  and  N_4
REMARK    5  A    between atoms: N_4  and  C_5
REMARK    6  A    between atoms: C_5  and  C_6
REMARK    7  A    between atoms: C_13  and  O_14
REMARK    8  A    between atoms: O_14  and  C_15
REMARK                            x       y       z     vdW  Elec       q    Type
REMARK                         _______ _______ _______ _____ _____    ______ ____
ROOT
ATOM      1  C   UNL     1       6.266   5.012  19.040  0.00  0.00    +0.000 C 
ENDROOT
BRANCH   1   2
ATOM      2  O   UNL     1       5.849   3.638  19.073  0.00  0.00    +0.000 OA
ATOM      3  H   UNL     1       4.922   3.623  19.360  0.00  0.00    +0.000 HD
ENDBRANCH   1   2
BRANCH   1   4
ATOM      4  C   UNL     1       7.408   5.141  18.010  0.00  0.00    +0.000 C 
BRANCH   4   5
ATOM      5  N   UNL     1       7.073   4.522  16.729  0.00  0.00    +0.000 NA
ATOM      6  H   UNL     1       6.123   4.150  16.757  0.00  0.00    +0.000 HD
BRANCH   5   7
ATOM      7  C   UNL     1       7.169   5.472  15.620  0.00  0.00    +0.000 C 
BRANCH   7   8
ATOM      8  C   UNL     1       6.818   4.793  14.321  0.00  0.00    +0.000 A 
ATOM      9  C   UNL     1       5.678   3.979  14.223  0.00  0.00    +0.000 A 
ATOM     10  C   UNL     1       5.343   3.365  13.014  0.00  0.00    +0.000 A 
ATOM     11  C   UNL     1       6.145   3.553  11.890  0.00  0.00    +0.000 A 
ATOM     12  C   UNL     1       7.286   4.351  11.976  0.00  0.00    +0.000 A 
ATOM     13  C   UNL     1       7.613   4.960  13.185  0.00  0.00    +0.000 A 
ATOM     14  F   UNL     1       8.712   5.728  13.241  0.00  0.00    +0.000 F 
ENDBRANCH   7   8
ENDBRANCH   5   7
ENDBRANCH   4   5
ENDBRANCH   1   4
BRANCH   1  15
ATOM     15  C   UNL     1       5.072   5.896  18.656  0.00  0.00    +0.000 C 
BRANCH  15  16
ATOM     16  O   UNL     1       4.010   5.735  19.608  0.00  0.00    +0.000 OA
BRANCH  16  17
ATOM     17  C   UNL     1       2.953   4.964  19.180  0.00  0.00    +0.000 A 
ATOM     18  C   UNL     1       2.484   4.938  17.856  0.00  0.00    +0.000 A 
ATOM     19  C   UNL     1       1.413   4.127  17.478  0.00  0.00    +0.000 A 
ATOM     20  C   UNL     1       0.772   3.305  18.402  0.00  0.00    +0.000 A 
ATOM     21  C   UNL     1       1.251   3.318  19.715  0.00  0.00    +0.000 A 
ATOM     22  N   UNL     1       0.826   2.608  20.816  0.00  0.00    +0.000 N 
ATOM     23  C   UNL     1       1.585   2.922  21.906  0.00  0.00    +0.000 A 
ATOM     24  C   UNL     1       2.519   3.856  21.513  0.00  0.00    +0.000 A 
ATOM     25  C   UNL     1       2.321   4.118  20.124  0.00  0.00    +0.000 A 
ATOM     26  H   UNL     1       0.063   1.945  20.806  0.00  0.00    +0.000 HD
ENDBRANCH  16  17
ENDBRANCH  15  16
ENDBRANCH   1  15
TORSDOF 8
ENDMDL
