MODEL 1
REMARK VINA RESULT:      -8.0      0.000      0.000
REMARK  Name = 
REMARK  8 active torsions:
REMARK  status: ('A' for Active; 'I' for Inactive)
REMARK    1  A    between atoms: C_2  and  C_12
REMARK    2  A    between atoms: N_3  and  C_4
REMARK    3  A    between atoms: C_4  and  C_5
REMARK    4  A    between atoms: C_5  and  C_6
REMARK    5  A    between atoms: C_6  and  N_7
REMARK    6  A    between atoms: C_12  and  N_19
REMARK    7  A    between atoms: C_13  and  C_14
REMARK    8  A    between atoms: C_20  and  C_22
REMARK                            x       y       z     vdW  Elec       q    Type
REMARK                         _______ _______ _______ _____ _____    ______ ____
ROOT
ATOM      1  C   UNL     1       5.911   5.971  17.569  0.00  0.00    +0.000 C 
ATOM      2  C   UNL     1       4.837   5.743  18.349  0.00  0.00    +0.000 C 
ENDROOT
BRANCH   2   3
ATOM      3  C   UNL     1       3.683   5.008  17.949  0.00  0.00    +0.000 A 
ATOM      4  C   UNL     1       2.336   5.309  18.148  0.00  0.00    +0.000 A 
ATOM      5  C   UNL     1       1.578   4.175  17.768  0.00  0.00    +0.000 A 
ATOM      6  C   UNL     1       2.483   3.274  17.272  0.00  0.00    +0.000 A 
ATOM      7  O   UNL     1       3.735   3.771  17.346  0.00  0.00    +0.000 OA
ENDBRANCH   2   3
BRANCH   1   9
ATOM      8  O   UNL     1       7.680   5.932  19.192  0.00  0.00    +0.000 OA
ATOM      9  C   UNL     1       7.115   6.546  18.290  0.00  0.00    +0.000 C 
ATOM     10  N   UNL     1       7.541   7.790  17.876  0.00  0.00    +0.000 N 
ATOM     11  H   UNL     1       6.922   8.345  17.296  0.00  0.00    +0.000 HD
BRANCH  10  12
ATOM     12  C   UNL     1       8.673   8.437  18.524  0.00  0.00    +0.000 C 
BRANCH  12  13
ATOM     13  C   UNL     1       8.702   9.947  18.282  0.00  0.00    +0.000 C 
BRANCH  13  14
ATOM     14  C   UNL     1       9.262  10.713  19.478  0.00  0.00    +0.000 C 
BRANCH  14  15
ATOM     15  N   UNL     1      10.461  11.456  19.140  0.00  0.00    +0.000 N 
ATOM     16  C   UNL     1      11.398  11.925  20.016  0.00  0.00    +0.000 A 
ATOM     17  C   UNL     1      12.323  12.575  19.230  0.00  0.00    +0.000 A 
ATOM     18  N   UNL     1      11.969  12.508  17.908  0.00  0.00    +0.000 NA
ATOM     19  C   UNL     1      10.847  11.825  17.883  0.00  0.00    +0.000 A 
ENDBRANCH  14  15
ENDBRANCH  13  14
ENDBRANCH  12  13
ENDBRANCH  10  12
ENDBRANCH   1   9
BRANCH   1  20
ATOM     20  N   UNL     1       6.020   5.622  16.230  0.00  0.00    +0.000 N 
ATOM     21  C   UNL     1       7.024   4.795  15.722  0.00  0.00    +0.000 C 
ATOM     22  O   UNL     1       7.876   4.294  16.442  0.00  0.00    +0.000 OA
ATOM     23  H   UNL     1       5.272   5.877  15.596  0.00  0.00    +0.000 HD
BRANCH  21  24
ATOM     24  C   UNL     1       6.930   4.535  14.292  0.00  0.00    +0.000 A 
ATOM     25  C   UNL     1       6.153   3.655  13.544  0.00  0.00    +0.000 A 
ATOM     26  C   UNL     1       6.518   3.840  12.184  0.00  0.00    +0.000 A 
ATOM     27  C   UNL     1       7.453   4.846  12.174  0.00  0.00    +0.000 A 
ATOM     28  O   UNL     1       7.704   5.281  13.441  0.00  0.00    +0.000 OA
ENDBRANCH  21  24
ENDBRANCH   1  20
TORSDOF 8
ENDMDL
MODEL 2
REMARK VINA RESULT:      -8.0      1.207      1.495
REMARK  Name = 
REMARK  8 active torsions:
REMARK  status: ('A' for Active; 'I' for Inactive)
REMARK    1  A    between atoms: C_2  and  C_12
REMARK    2  A    between atoms: N_3  and  C_4
REMARK    3  A    between atoms: C_4  and  C_5
REMARK    4  A    between atoms: C_5  and  C_6
REMARK    5  A    between atoms: C_6  and  N_7
REMARK    6  A    between atoms: C_12  and  N_19
REMARK    7  A    between atoms: C_13  and  C_14
REMARK    8  A    between atoms: C_20  and  C_22
REMARK                            x       y       z     vdW  Elec       q    Type
REMARK                         _______ _______ _______ _____ _____    ______ ____
ROOT
ATOM      1  C   UNL     1       6.362   5.042  18.053  0.00  0.00    +0.000 C 
ATOM      2  C   UNL     1       5.386   4.682  18.911  0.00  0.00    +0.000 C 
ENDROOT
BRANCH   2   3
ATOM      3  C   UNL     1       4.366   3.729  18.628  0.00  0.00    +0.000 A 
ATOM      4  C   UNL     1       4.097   2.515  19.259  0.00  0.00    +0.000 A 
ATOM      5  C   UNL     1       3.132   1.827  18.483  0.00  0.00    +0.000 A 
ATOM      6  C   UNL     1       2.789   2.686  17.473  0.00  0.00    +0.000 A 
ATOM      7  O   UNL     1       3.494   3.833  17.566  0.00  0.00    +0.000 OA
ENDBRANCH   2   3
BRANCH   1   9
ATOM      8  O   UNL     1       8.212   5.416  19.535  0.00  0.00    +0.000 OA
ATOM      9  C   UNL     1       7.476   5.869  18.662  0.00  0.00    +0.000 C 
ATOM     10  N   UNL     1       7.620   7.154  18.181  0.00  0.00    +0.000 N 
ATOM     11  H   UNL     1       6.865   7.552  17.635  0.00  0.00    +0.000 HD
BRANCH  10  12
ATOM     12  C   UNL     1       8.645   8.035  18.721  0.00  0.00    +0.000 C 
BRANCH  12  13
ATOM     13  C   UNL     1       8.498   9.475  18.228  0.00  0.00    +0.000 C 
BRANCH  13  14
ATOM     14  C   UNL     1       8.952  10.493  19.273  0.00  0.00    +0.000 C 
BRANCH  14  15
ATOM     15  N   UNL     1      10.161  11.186  18.872  0.00  0.00    +0.000 N 
ATOM     16  C   UNL     1      10.394  11.773  17.660  0.00  0.00    +0.000 A 
ATOM     17  C   UNL     1      11.673  12.276  17.752  0.00  0.00    +0.000 A 
ATOM     18  N   UNL     1      12.213  12.009  18.984  0.00  0.00    +0.000 NA
ATOM     19  C   UNL     1      11.278  11.357  19.637  0.00  0.00    +0.000 A 
ENDBRANCH  14  15
ENDBRANCH  13  14
ENDBRANCH  12  13
ENDBRANCH  10  12
ENDBRANCH   1   9
BRANCH   1  20
ATOM     20  N   UNL     1       6.464   4.624  16.734  0.00  0.00    +0.000 N 
ATOM     21  C   UNL     1       6.091   5.408  15.639  0.00  0.00    +0.000 C 
ATOM     22  O   UNL     1       5.666   6.547  15.775  0.00  0.00    +0.000 OA
ATOM     23  H   UNL     1       6.941   3.754  16.531  0.00  0.00    +0.000 HD
BRANCH  21  24
ATOM     24  C   UNL     1       6.312   4.784  14.342  0.00  0.00    +0.000 A 
ATOM     25  C   UNL     1       5.639   3.780  13.653  0.00  0.00    +0.000 A 
ATOM     26  C   UNL     1       6.339   3.579  12.434  0.00  0.00    +0.000 A 
ATOM     27  C   UNL     1       7.361   4.497  12.425  0.00  0.00    +0.000 A 
ATOM     28  O   UNL     1       7.350   5.237  13.570  0.00  0.00    +0.000 OA
ENDBRANCH  21  24
ENDBRANCH   1  20
TORSDOF 8
ENDMDL
MODEL 3
REMARK VINA RESULT:      -7.9      1.221      1.264
REMARK  Name = 
REMARK  8 active torsions:
REMARK  status: ('A' for Active; 'I' for Inactive)
REMARK    1  A    between atoms: C_2  and  C_12
REMARK    2  A    between atoms: N_3  and  C_4
REMARK    3  A    between atoms: C_4  and  C_5
REMARK    4  A    between atoms: C_5  and  C_6
REMARK    5  A    between atoms: C_6  and  N_7
REMARK    6  A    between atoms: C_12  and  N_19
REMARK    7  A    between atoms: C_13  and  C_14
REMARK    8  A    between atoms: C_20  and  C_22
REMARK                            x       y       z     vdW  Elec       q    Type
REMARK                         _______ _______ _______ _____ _____    ______ ____
ROOT
ATOM      1  C   UNL     1       5.779   5.211  17.799  0.00  0.00    +0.000 C 
ATOM      2  C   UNL     1       4.669   5.073  18.551  0.00  0.00    +0.000 C 
ENDROOT
BRANCH   2   3
ATOM      3  C   UNL     1       3.546   4.267  18.203  0.00  0.00    +0.000 A 
ATOM      4  C   UNL     1       2.188   4.560  18.309  0.00  0.00    +0.000 A 
ATOM      5  C   UNL     1       1.466   3.369  18.047  0.00  0.00    +0.000 A 
ATOM      6  C   UNL     1       2.407   2.434  17.705  0.00  0.00    +0.000 A 
ATOM      7  O   UNL     1       3.646   2.966  17.764  0.00  0.00    +0.000 OA
ENDBRANCH   2   3
BRANCH   1   9
ATOM      8  O   UNL     1       7.456   5.440  19.501  0.00  0.00    +0.000 OA
ATOM      9  C   UNL     1       6.937   5.904  18.489  0.00  0.00    +0.000 C 
ATOM     10  N   UNL     1       7.378   7.079  17.917  0.00  0.00    +0.000 N 
ATOM     11  H   UNL     1       6.789   7.532  17.228  0.00  0.00    +0.000 HD
BRANCH  10  12
ATOM     12  C   UNL     1       8.468   7.831  18.520  0.00  0.00    +0.000 C 
BRANCH  12  13
ATOM     13  C   UNL     1       8.381   9.329  18.224  0.00  0.00    +0.000 C 
BRANCH  13  14
ATOM     14  C   UNL     1       9.130  10.168  19.257  0.00  0.00    +0.000 C 
BRANCH  14  15
ATOM     15  N   UNL     1       9.662  11.391  18.688  0.00  0.00    +0.000 N 
ATOM     16  C   UNL     1       9.343  12.665  19.062  0.00  0.00    +0.000 A 
ATOM     17  C   UNL     1      10.081  13.474  18.228  0.00  0.00    +0.000 A 
ATOM     18  N   UNL     1      10.834  12.722  17.364  0.00  0.00    +0.000 NA
ATOM     19  C   UNL     1      10.566  11.473  17.668  0.00  0.00    +0.000 A 
ENDBRANCH  14  15
ENDBRANCH  13  14
ENDBRANCH  12  13
ENDBRANCH  10  12
ENDBRANCH   1   9
BRANCH   1  20
ATOM     20  N   UNL     1       5.959   4.681  16.529  0.00  0.00    +0.000 N 
ATOM     21  C   UNL     1       5.738   5.397  15.349  0.00  0.00    +0.000 C 
ATOM     22  O   UNL     1       5.390   6.569  15.360  0.00  0.00    +0.000 OA
ATOM     23  H   UNL     1       6.384   3.767  16.436  0.00  0.00    +0.000 HD
BRANCH  21  24
ATOM     24  C   UNL     1       6.018   4.655  14.128  0.00  0.00    +0.000 A 
ATOM     25  C   UNL     1       5.308   3.680  13.434  0.00  0.00    +0.000 A 
ATOM     26  C   UNL     1       6.103   3.311  12.316  0.00  0.00    +0.000 A 
ATOM     27  C   UNL     1       7.220   4.109  12.363  0.00  0.00    +0.000 A 
ATOM     28  O   UNL     1       7.177   4.932  13.449  0.00  0.00    +0.000 OA
ENDBRANCH  21  24
ENDBRANCH   1  20
TORSDOF 8
ENDMDL
MODEL 4
REMARK VINA RESULT:      -7.9      1.141      1.318
REMARK  Name = 
REMARK  8 active torsions:
REMARK  status: ('A' for Active; 'I' for Inactive)
REMARK    1  A    between atoms: C_2  and  C_12
REMARK    2  A    between atoms: N_3  and  C_4
REMARK    3  A    between atoms: C_4  and  C_5
REMARK    4  A    between atoms: C_5  and  C_6
REMARK    5  A    between atoms: C_6  and  N_7
REMARK    6  A    between atoms: C_12  and  N_19
REMARK    7  A    between atoms: C_13  and  C_14
REMARK    8  A    between atoms: C_20  and  C_22
REMARK                            x       y       z     vdW  Elec       q    Type
REMARK                         _______ _______ _______ _____ _____    ______ ____
ROOT
ATOM      1  C   UNL     1       6.165   6.424  17.327  0.00  0.00    +0.000 C 
ATOM      2  C   UNL     1       5.112   6.188  18.134  0.00  0.00    +0.000 C 
ENDROOT
BRANCH   2   3
ATOM      3  C   UNL     1       3.997   5.366  17.798  0.00  0.00    +0.000 A 
ATOM      4  C   UNL     1       2.642   5.578  18.044  0.00  0.00    +0.000 A 
ATOM      5  C   UNL     1       1.950   4.385  17.721  0.00  0.00    +0.000 A 
ATOM      6  C   UNL     1       2.896   3.536  17.208  0.00  0.00    +0.000 A 
ATOM      7  O   UNL     1       4.113   4.121  17.220  0.00  0.00    +0.000 OA
ENDBRANCH   2   3
BRANCH   1   9
ATOM      8  O   UNL     1       8.071   6.517  18.783  0.00  0.00    +0.000 OA
ATOM      9  C   UNL     1       7.340   7.110  17.993  0.00  0.00    +0.000 C 
ATOM     10  N   UNL     1       7.547   8.433  17.661  0.00  0.00    +0.000 N 
ATOM     11  H   UNL     1       6.804   8.934  17.189  0.00  0.00    +0.000 HD
BRANCH  10  12
ATOM     12  C   UNL     1       8.635   9.186  18.267  0.00  0.00    +0.000 C 
BRANCH  12  13
ATOM     13  C   UNL     1       8.588  10.672  17.913  0.00  0.00    +0.000 C 
BRANCH  13  14
ATOM     14  C   UNL     1       9.366  11.529  18.909  0.00  0.00    +0.000 C 
BRANCH  14  15
ATOM     15  N   UNL     1       9.996  12.671  18.274  0.00  0.00    +0.000 N 
ATOM     16  C   UNL     1       9.836  13.982  18.621  0.00  0.00    +0.000 A 
ATOM     17  C   UNL     1      10.612  14.682  17.724  0.00  0.00    +0.000 A 
ATOM     18  N   UNL     1      11.235  13.828  16.851  0.00  0.00    +0.000 NA
ATOM     19  C   UNL     1      10.850  12.625  17.210  0.00  0.00    +0.000 A 
ENDBRANCH  14  15
ENDBRANCH  13  14
ENDBRANCH  12  13
ENDBRANCH  10  12
ENDBRANCH   1   9
BRANCH   1  20
ATOM     20  N   UNL     1       6.280   5.994  16.012  0.00  0.00    +0.000 N 
ATOM     21  C   UNL     1       7.095   4.933  15.610  0.00  0.00    +0.000 C 
ATOM     22  O   UNL     1       7.753   4.284  16.410  0.00  0.00    +0.000 OA
ATOM     23  H   UNL     1       5.658   6.384  15.314  0.00  0.00    +0.000 HD
BRANCH  21  24
ATOM     24  C   UNL     1       7.040   4.632  14.186  0.00  0.00    +0.000 A 
ATOM     25  C   UNL     1       7.727   5.142  13.088  0.00  0.00    +0.000 A 
ATOM     26  C   UNL     1       7.227   4.469  11.942  0.00  0.00    +0.000 A 
ATOM     27  C   UNL     1       6.308   3.560  12.405  0.00  0.00    +0.000 A 
ATOM     28  O   UNL     1       6.192   3.643  13.761  0.00  0.00    +0.000 OA
ENDBRANCH  21  24
ENDBRANCH   1  20
TORSDOF 8
ENDMDL
MODEL 5
REMARK VINA RESULT:      -7.8      1.488      4.329
REMARK  Name = 
REMARK  8 active torsions:
REMARK  status: ('A' for Active; 'I' for Inactive)
REMARK    1  A    between atoms: C_2  and  C_12
REMARK    2  A    between atoms: N_3  and  C_4
REMARK    3  A    between atoms: C_4  and  C_5
REMARK    4  A    between atoms: C_5  and  C_6
REMARK    5  A    between atoms: C_6  and  N_7
REMARK    6  A    between atoms: C_12  and  N_19
REMARK    7  A    between atoms: C_13  and  C_14
REMARK    8  A    between atoms: C_20  and  C_22
REMARK                            x       y       z     vdW  Elec       q    Type
REMARK                         _______ _______ _______ _____ _____    ______ ____
ROOT
ATOM      1  C   UNL     1       6.705   4.680  16.708  0.00  0.00    +0.000 C 
ATOM      2  C   UNL     1       7.199   4.697  15.455  0.00  0.00    +0.000 C 
ENDROOT
BRANCH   2   3
ATOM      3  C   UNL     1       6.518   4.198  14.306  0.00  0.00    +0.000 A 
ATOM      4  C   UNL     1       7.030   3.883  13.049  0.00  0.00    +0.000 A 
ATOM      5  C   UNL     1       5.936   3.639  12.183  0.00  0.00    +0.000 A 
ATOM      6  C   UNL     1       4.816   3.724  12.969  0.00  0.00    +0.000 A 
ATOM      7  O   UNL     1       5.153   4.026  14.241  0.00  0.00    +0.000 OA
ENDBRANCH   2   3
BRANCH   1   9
ATOM      8  O   UNL     1       8.079   4.966  18.656  0.00  0.00    +0.000 OA
ATOM      9  C   UNL     1       7.490   5.496  17.716  0.00  0.00    +0.000 C 
ATOM     10  N   UNL     1       7.510   6.861  17.520  0.00  0.00    +0.000 N 
ATOM     11  H   UNL     1       6.840   7.266  16.876  0.00  0.00    +0.000 HD
BRANCH  10  12
ATOM     12  C   UNL     1       8.215   7.731  18.448  0.00  0.00    +0.000 C 
BRANCH  12  13
ATOM     13  C   UNL     1       8.302   9.174  17.948  0.00  0.00    +0.000 C 
BRANCH  13  14
ATOM     14  C   UNL     1       8.990  10.094  18.954  0.00  0.00    +0.000 C 
BRANCH  14  15
ATOM     15  N   UNL     1       9.506  11.299  18.330  0.00  0.00    +0.000 N 
ATOM     16  C   UNL     1      10.718  11.438  17.717  0.00  0.00    +0.000 A 
ATOM     17  C   UNL     1      10.757  12.752  17.307  0.00  0.00    +0.000 A 
ATOM     18  N   UNL     1       9.603  13.404  17.656  0.00  0.00    +0.000 NA
ATOM     19  C   UNL     1       8.867  12.503  18.265  0.00  0.00    +0.000 A 
ENDBRANCH  14  15
ENDBRANCH  13  14
ENDBRANCH  12  13
ENDBRANCH  10  12
ENDBRANCH   1   9
BRANCH   1  20
ATOM     20  N   UNL     1       5.512   4.084  17.093  0.00  0.00    +0.000 N 
ATOM     21  C   UNL     1       4.368   4.798  17.459  0.00  0.00    +0.000 C 
ATOM     22  O   UNL     1       4.335   6.021  17.438  0.00  0.00    +0.000 OA
ATOM     23  H   UNL     1       5.413   3.080  16.996  0.00  0.00    +0.000 HD
BRANCH  21  24
ATOM     24  C   UNL     1       3.219   3.971  17.798  0.00  0.00    +0.000 A 
ATOM     25  C   UNL     1       1.860   4.249  17.916  0.00  0.00    +0.000 A 
ATOM     26  C   UNL     1       1.225   3.037  18.296  0.00  0.00    +0.000 A 
ATOM     27  C   UNL     1       2.215   2.086  18.340  0.00  0.00    +0.000 A 
ATOM     28  O   UNL     1       3.423   2.636  18.032  0.00  0.00    +0.000 OA
ENDBRANCH  21  24
ENDBRANCH   1  20
TORSDOF 8
ENDMDL
MODEL 6
REMARK VINA RESULT:      -7.7      1.202      1.450
REMARK  Name = 
REMARK  8 active torsions:
REMARK  status: ('A' for Active; 'I' for Inactive)
REMARK    1  A    between atoms: C_2  and  C_12
REMARK    2  A    between atoms: N_3  and  C_4
REMARK    3  A    between atoms: C_4  and  C_5
REMARK    4  A    between atoms: C_5  and  C_6
REMARK    5  A    between atoms: C_6  and  N_7
REMARK    6  A    between atoms: C_12  and  N_19
REMARK    7  A    between atoms: C_13  and  C_14
REMARK    8  A    between atoms: C_20  and  C_22
REMARK                            x       y       z     vdW  Elec       q    Type
REMARK                         _______ _______ _______ _____ _____    ______ ____
ROOT
ATOM      1  C   UNL     1       5.949   5.271  17.699  0.00  0.00    +0.000 C 
ATOM      2  C   UNL     1       4.840   5.178  18.459  0.00  0.00    +0.000 C 
ENDROOT
BRANCH   2   3
ATOM      3  C   UNL     1       3.685   4.415  18.120  0.00  0.00    +0.000 A 
ATOM      4  C   UNL     1       2.339   4.747  18.266  0.00  0.00    +0.000 A 
ATOM      5  C   UNL     1       1.574   3.586  17.995  0.00  0.00    +0.000 A 
ATOM      6  C   UNL     1       2.476   2.630  17.608  0.00  0.00    +0.000 A 
ATOM      7  O   UNL     1       3.733   3.122  17.649  0.00  0.00    +0.000 OA
ENDBRANCH   2   3
BRANCH   1   9
ATOM      8  O   UNL     1       7.790   5.330  19.239  0.00  0.00    +0.000 OA
ATOM      9  C   UNL     1       7.138   5.919  18.380  0.00  0.00    +0.000 C 
ATOM     10  N   UNL     1       7.449   7.203  17.981  0.00  0.00    +0.000 N 
ATOM     11  H   UNL     1       6.763   7.721  17.445  0.00  0.00    +0.000 HD
BRANCH  10  12
ATOM     12  C   UNL     1       8.558   7.919  18.594  0.00  0.00    +0.000 C 
BRANCH  12  13
ATOM     13  C   UNL     1       8.523   9.418  18.295  0.00  0.00    +0.000 C 
BRANCH  13  14
ATOM     14  C   UNL     1       9.160  10.245  19.410  0.00  0.00    +0.000 C 
BRANCH  14  15
ATOM     15  N   UNL     1       9.927  11.362  18.893  0.00  0.00    +0.000 N 
ATOM     16  C   UNL     1      10.450  11.473  17.636  0.00  0.00    +0.000 A 
ATOM     17  C   UNL     1      11.103  12.685  17.630  0.00  0.00    +0.000 A 
ATOM     18  N   UNL     1      10.986  13.305  18.847  0.00  0.00    +0.000 NA
ATOM     19  C   UNL     1      10.269  12.488  19.584  0.00  0.00    +0.000 A 
ENDBRANCH  14  15
ENDBRANCH  13  14
ENDBRANCH  12  13
ENDBRANCH  10  12
ENDBRANCH   1   9
BRANCH   1  20
ATOM     20  N   UNL     1       6.100   4.731  16.429  0.00  0.00    +0.000 N 
ATOM     21  C   UNL     1       5.891   5.450  15.250  0.00  0.00    +0.000 C 
ATOM     22  O   UNL     1       5.581   6.633  15.260  0.00  0.00    +0.000 OA
ATOM     23  H   UNL     1       6.496   3.803  16.336  0.00  0.00    +0.000 HD
BRANCH  21  24
ATOM     24  C   UNL     1       6.136   4.696  14.028  0.00  0.00    +0.000 A 
ATOM     25  C   UNL     1       7.250   4.577  13.202  0.00  0.00    +0.000 A 
ATOM     26  C   UNL     1       6.881   3.711  12.139  0.00  0.00    +0.000 A 
ATOM     27  C   UNL     1       5.592   3.315  12.400  0.00  0.00    +0.000 A 
ATOM     28  O   UNL     1       5.133   3.897  13.543  0.00  0.00    +0.000 OA
ENDBRANCH  21  24
ENDBRANCH   1  20
TORSDOF 8
ENDMDL
MODEL 7
REMARK VINA RESULT:      -7.7      1.525      1.601
REMARK  Name = 
REMARK  8 active torsions:
REMARK  status: ('A' for Active; 'I' for Inactive)
REMARK    1  A    between atoms: C_2  and  C_12
REMARK    2  A    between atoms: N_3  and  C_4
REMARK    3  A    between atoms: C_4  and  C_5
REMARK    4  A    between atoms: C_5  and  C_6
REMARK    5  A    between atoms: C_6  and  N_7
REMARK    6  A    between atoms: C_12  and  N_19
REMARK    7  A    between atoms: C_13  and  C_14
REMARK    8  A    between atoms: C_20  and  C_22
REMARK                            x       y       z     vdW  Elec       q    Type
REMARK                         _______ _______ _______ _____ _____    ______ ____
ROOT
ATOM      1  C   UNL     1       6.165   6.451  17.369  0.00  0.00    +0.000 C 
ATOM      2  C   UNL     1       5.113   6.238  18.184  0.00  0.00    +0.000 C 
ENDROOT
BRANCH   2   3
ATOM      3  C   UNL     1       3.979   5.440  17.857  0.00  0.00    +0.000 A 
ATOM      4  C   UNL     1       2.627   5.703  18.072  0.00  0.00    +0.000 A 
ATOM      5  C   UNL     1       1.903   4.522  17.777  0.00  0.00    +0.000 A 
ATOM      6  C   UNL     1       2.829   3.627  17.310  0.00  0.00    +0.000 A 
ATOM      7  O   UNL     1       4.063   4.173  17.323  0.00  0.00    +0.000 OA
ENDBRANCH   2   3
BRANCH   1   9
ATOM      8  O   UNL     1       8.117   6.486  18.765  0.00  0.00    +0.000 OA
ATOM      9  C   UNL     1       7.360   7.111  18.026  0.00  0.00    +0.000 C 
ATOM     10  N   UNL     1       7.554   8.448  17.747  0.00  0.00    +0.000 N 
ATOM     11  H   UNL     1       6.794   8.967  17.322  0.00  0.00    +0.000 HD
BRANCH  10  12
ATOM     12  C   UNL     1       8.659   9.177  18.350  0.00  0.00    +0.000 C 
BRANCH  12  13
ATOM     13  C   UNL     1       8.676  10.652  17.950  0.00  0.00    +0.000 C 
BRANCH  13  14
ATOM     14  C   UNL     1       9.559  11.492  18.871  0.00  0.00    +0.000 C 
BRANCH  14  15
ATOM     15  N   UNL     1       9.077  12.854  18.999  0.00  0.00    +0.000 N 
ATOM     16  C   UNL     1       9.055  13.601  20.142  0.00  0.00    +0.000 A 
ATOM     17  C   UNL     1       8.497  14.803  19.768  0.00  0.00    +0.000 A 
ATOM     18  N   UNL     1       8.185  14.798  18.433  0.00  0.00    +0.000 NA
ATOM     19  C   UNL     1       8.550  13.615  17.996  0.00  0.00    +0.000 A 
ENDBRANCH  14  15
ENDBRANCH  13  14
ENDBRANCH  12  13
ENDBRANCH  10  12
ENDBRANCH   1   9
BRANCH   1  20
ATOM     20  N   UNL     1       6.260   6.019  16.054  0.00  0.00    +0.000 N 
ATOM     21  C   UNL     1       7.033   4.929  15.648  0.00  0.00    +0.000 C 
ATOM     22  O   UNL     1       7.668   4.253  16.445  0.00  0.00    +0.000 OA
ATOM     23  H   UNL     1       5.652   6.434  15.357  0.00  0.00    +0.000 HD
BRANCH  21  24
ATOM     24  C   UNL     1       6.964   4.633  14.223  0.00  0.00    +0.000 A 
ATOM     25  C   UNL     1       6.230   3.707  13.489  0.00  0.00    +0.000 A 
ATOM     26  C   UNL     1       6.602   3.875  12.128  0.00  0.00    +0.000 A 
ATOM     27  C   UNL     1       7.497   4.916  12.104  0.00  0.00    +0.000 A 
ATOM     28  O   UNL     1       7.718   5.389  13.363  0.00  0.00    +0.000 OA
ENDBRANCH  21  24
ENDBRANCH   1  20
TORSDOF 8
ENDMDL
MODEL 8
REMARK VINA RESULT:      -7.6      3.072      7.494
REMARK  Name = 
REMARK  8 active torsions:
REMARK  status: ('A' for Active; 'I' for Inactive)
REMARK    1  A    between atoms: C_2  and  C_12
REMARK    2  A    between atoms: N_3  and  C_4
REMARK    3  A    between atoms: C_4  and  C_5
REMARK    4  A    between atoms: C_5  and  C_6
REMARK    5  A    between atoms: C_6  and  N_7
REMARK    6  A    between atoms: C_12  and  N_19
REMARK    7  A    between atoms: C_13  and  C_14
REMARK    8  A    between atoms: C_20  and  C_22
REMARK                            x       y       z     vdW  Elec       q    Type
REMARK                         _______ _______ _______ _____ _____    ______ ____
ROOT
ATOM      1  C   UNL     1       5.532   4.330  16.914  0.00  0.00    +0.000 C 
ATOM      2  C   UNL     1       5.553   3.726  15.710  0.00  0.00    +0.000 C 
ENDROOT
BRANCH   2   3
ATOM      3  C   UNL     1       6.274   4.200  14.575  0.00  0.00    +0.000 A 
ATOM      4  C   UNL     1       6.183   3.797  13.244  0.00  0.00    +0.000 A 
ATOM      5  C   UNL     1       7.249   4.401  12.533  0.00  0.00    +0.000 A 
ATOM      6  C   UNL     1       7.882   5.213  13.437  0.00  0.00    +0.000 A 
ATOM      7  O   UNL     1       7.291   5.126  14.647  0.00  0.00    +0.000 OA
ENDBRANCH   2   3
BRANCH   1   9
ATOM      8  O   UNL     1       5.237   3.675  19.204  0.00  0.00    +0.000 OA
ATOM      9  C   UNL     1       4.917   3.509  18.030  0.00  0.00    +0.000 C 
ATOM     10  N   UNL     1       3.978   2.571  17.656  0.00  0.00    +0.000 N 
ATOM     11  H   UNL     1       3.911   2.318  16.677  0.00  0.00    +0.000 HD
BRANCH  10  12
ATOM     12  C   UNL     1       3.349   1.716  18.652  0.00  0.00    +0.000 C 
BRANCH  12  13
ATOM     13  C   UNL     1       1.832   1.903  18.711  0.00  0.00    +0.000 C 
BRANCH  13  14
ATOM     14  C   UNL     1       1.415   2.902  19.789  0.00  0.00    +0.000 C 
BRANCH  14  15
ATOM     15  N   UNL     1       1.822   4.257  19.467  0.00  0.00    +0.000 N 
ATOM     16  C   UNL     1       2.377   5.162  20.327  0.00  0.00    +0.000 A 
ATOM     17  C   UNL     1       2.566   6.297  19.571  0.00  0.00    +0.000 A 
ATOM     18  N   UNL     1       2.142   6.099  18.283  0.00  0.00    +0.000 NA
ATOM     19  C   UNL     1       1.704   4.861  18.249  0.00  0.00    +0.000 A 
ENDBRANCH  14  15
ENDBRANCH  13  14
ENDBRANCH  12  13
ENDBRANCH  10  12
ENDBRANCH   1   9
BRANCH   1  20
ATOM     20  N   UNL     1       6.115   5.554  17.208  0.00  0.00    +0.000 N 
ATOM     21  C   UNL     1       7.351   5.694  17.844  0.00  0.00    +0.000 C 
ATOM     22  O   UNL     1       8.026   4.726  18.165  0.00  0.00    +0.000 OA
ATOM     23  H   UNL     1       5.689   6.399  16.845  0.00  0.00    +0.000 HD
BRANCH  21  24
ATOM     24  C   UNL     1       7.787   7.072  18.026  0.00  0.00    +0.000 A 
ATOM     25  C   UNL     1       8.571   7.690  18.995  0.00  0.00    +0.000 A 
ATOM     26  C   UNL     1       8.632   9.068  18.655  0.00  0.00    +0.000 A 
ATOM     27  C   UNL     1       7.929   9.202  17.482  0.00  0.00    +0.000 A 
ATOM     28  O   UNL     1       7.421   8.001  17.087  0.00  0.00    +0.000 OA
ENDBRANCH  21  24
ENDBRANCH   1  20
TORSDOF 8
ENDMDL
MODEL 9
REMARK VINA RESULT:      -7.6      1.197      1.551
REMARK  Name = 
REMARK  8 active torsions:
REMARK  status: ('A' for Active; 'I' for Inactive)
REMARK    1  A    between atoms: C_2  and  C_12
REMARK    2  A    between atoms: N_3  and  C_4
REMARK    3  A    between atoms: C_4  and  C_5
REMARK    4  A    between atoms: C_5  and  C_6
REMARK    5  A    between atoms: C_6  and  N_7
REMARK    6  A    between atoms: C_12  and  N_19
REMARK    7  A    between atoms: C_13  and  C_14
REMARK    8  A    between atoms: C_20  and  C_22
REMARK                            x       y       z     vdW  Elec       q    Type
REMARK                         _______ _______ _______ _____ _____    ______ ____
ROOT
ATOM      1  C   UNL     1       5.888   6.136  17.271  0.00  0.00    +0.000 C 
ATOM      2  C   UNL     1       4.841   5.914  18.089  0.00  0.00    +0.000 C 
ENDROOT
BRANCH   2   3
ATOM      3  C   UNL     1       3.715   5.101  17.766  0.00  0.00    +0.000 A 
ATOM      4  C   UNL     1       2.368   5.313  18.050  0.00  0.00    +0.000 A 
ATOM      5  C   UNL     1       1.664   4.127  17.724  0.00  0.00    +0.000 A 
ATOM      6  C   UNL     1       2.594   3.285  17.173  0.00  0.00    +0.000 A 
ATOM      7  O   UNL     1       3.812   3.866  17.165  0.00  0.00    +0.000 OA
ENDBRANCH   2   3
BRANCH   1   9
ATOM      8  O   UNL     1       7.660   6.312  18.880  0.00  0.00    +0.000 OA
ATOM      9  C   UNL     1       7.076   6.814  17.923  0.00  0.00    +0.000 C 
ATOM     10  N   UNL     1       7.467   8.021  17.382  0.00  0.00    +0.000 N 
ATOM     11  H   UNL     1       6.832   8.496  16.751  0.00  0.00    +0.000 HD
BRANCH  10  12
ATOM     12  C   UNL     1       8.582   8.762  17.954  0.00  0.00    +0.000 C 
BRANCH  12  13
ATOM     13  C   UNL     1       8.280  10.253  18.103  0.00  0.00    +0.000 C 
BRANCH  13  14
ATOM     14  C   UNL     1       9.545  11.081  18.320  0.00  0.00    +0.000 C 
BRANCH  14  15
ATOM     15  N   UNL     1       9.528  11.784  19.588  0.00  0.00    +0.000 N 
ATOM     16  C   UNL     1       9.333  11.228  20.820  0.00  0.00    +0.000 A 
ATOM     17  C   UNL     1       9.383  12.287  21.698  0.00  0.00    +0.000 A 
ATOM     18  N   UNL     1       9.604  13.463  21.029  0.00  0.00    +0.000 NA
ATOM     19  C   UNL     1       9.692  13.128  19.762  0.00  0.00    +0.000 A 
ENDBRANCH  14  15
ENDBRANCH  13  14
ENDBRANCH  12  13
ENDBRANCH  10  12
ENDBRANCH   1   9
BRANCH   1  20
ATOM     20  N   UNL     1       5.987   5.700  15.957  0.00  0.00    +0.000 N 
ATOM     21  C   UNL     1       6.982   4.832  15.499  0.00  0.00    +0.000 C 
ATOM     22  O   UNL     1       7.832   4.370  16.247  0.00  0.00    +0.000 OA
ATOM     23  H   UNL     1       5.239   5.920  15.311  0.00  0.00    +0.000 HD
BRANCH  21  24
ATOM     24  C   UNL     1       6.878   4.480  14.090  0.00  0.00    +0.000 A 
ATOM     25  C   UNL     1       7.585   4.888  12.963  0.00  0.00    +0.000 A 
ATOM     26  C   UNL     1       7.013   4.213  11.852  0.00  0.00    +0.000 A 
ATOM     27  C   UNL     1       6.030   3.402  12.365  0.00  0.00    +0.000 A 
ATOM     28  O   UNL     1       5.945   3.548  13.718  0.00  0.00    +0.000 OA
ENDBRANCH  21  24
ENDBRANCH   1  20
TORSDOF 8
ENDMDL
