MODEL 1
REMARK VINA RESULT:      -5.3      0.000      0.000
REMARK  Name = 
REMARK  5 active torsions:
REMARK  status: ('A' for Active; 'I' for Inactive)
REMARK    1  A    between atoms: C_1  and  S_2
REMARK    2  A    between atoms: S_2  and  N_5
REMARK    3  A    between atoms: N_5  and  C_6
REMARK    4  A    between atoms: C_6  and  C_7
REMARK    5  A    between atoms: C_7  and  C_8
REMARK                            x       y       z     vdW  Elec       q    Type
REMARK                         _______ _______ _______ _____ _____    ______ ____
ROOT
ATOM      1  C   UNL     1       4.659   4.596  18.428  0.00  0.00    +0.000 C 
ENDROOT
BRANCH   1   2
ATOM      2  N   UNL     1       6.001   3.967  18.458  0.00  0.00    +0.000 NA
ATOM      3  H   UNL     1       6.211   3.485  19.335  0.00  0.00    +0.000 HD
BRANCH   2   5
ATOM      4  C   UNL     1       6.490   6.458  17.513  0.00  0.00    +0.000 C 
ATOM      5  S   UNL     1       7.303   4.980  18.086  0.00  0.00    +0.000 S 
ATOM      6  O   UNL     1       7.978   4.361  16.968  0.00  0.00    +0.000 OA
ATOM      7  O   UNL     1       8.001   5.271  19.319  0.00  0.00    +0.000 OA
ENDBRANCH   2   5
ENDBRANCH   1   2
BRANCH   1   8
ATOM      8  C   UNL     1       3.595   3.583  18.003  0.00  0.00    +0.000 C 
BRANCH   8   9
ATOM      9  C   UNL     1       2.471   3.570  18.978  0.00  0.00    +0.000 A 
ATOM     10  C   UNL     1       1.342   2.778  19.011  0.00  0.00    +0.000 A 
ATOM     11  N   UNL     1       0.616   3.233  20.077  0.00  0.00    +0.000 N 
ATOM     12  C   UNL     1       1.312   4.262  20.642  0.00  0.00    +0.000 A 
ATOM     13  N   UNL     1       2.440   4.481  20.007  0.00  0.00    +0.000 NA
ATOM     14  H   UNL     1      -0.281   2.888  20.387  0.00  0.00    +0.000 HD
ENDBRANCH   8   9
ENDBRANCH   1   8
TORSDOF 4
ENDMDL
MODEL 2
REMARK VINA RESULT:      -5.3      2.099      2.459
REMARK  Name = 
REMARK  5 active torsions:
REMARK  status: ('A' for Active; 'I' for Inactive)
REMARK    1  A    between atoms: C_1  and  S_2
REMARK    2  A    between atoms: S_2  and  N_5
REMARK    3  A    between atoms: N_5  and  C_6
REMARK    4  A    between atoms: C_6  and  C_7
REMARK    5  A    between atoms: C_7  and  C_8
REMARK                            x       y       z     vdW  Elec       q    Type
REMARK                         _______ _______ _______ _____ _____    ______ ____
ROOT
ATOM      1  C   UNL     1       4.297   5.485  17.008  0.00  0.00    +0.000 C 
ENDROOT
BRANCH   1   2
ATOM      2  N   UNL     1       5.535   5.642  17.808  0.00  0.00    +0.000 NA
ATOM      3  H   UNL     1       5.673   6.588  18.173  0.00  0.00    +0.000 HD
BRANCH   2   5
ATOM      4  C   UNL     1       6.382   4.039  15.797  0.00  0.00    +0.000 C 
ATOM      5  S   UNL     1       6.969   5.147  17.063  0.00  0.00    +0.000 S 
ATOM      6  O   UNL     1       7.685   4.378  18.054  0.00  0.00    +0.000 OA
ATOM      7  O   UNL     1       7.564   6.308  16.437  0.00  0.00    +0.000 OA
ENDBRANCH   2   5
ENDBRANCH   1   2
BRANCH   1   8
ATOM      8  C   UNL     1       3.187   4.847  17.845  0.00  0.00    +0.000 C 
BRANCH   8   9
ATOM      9  C   UNL     1       3.638   3.540  18.396  0.00  0.00    +0.000 A 
ATOM     10  C   UNL     1       3.552   2.277  17.850  0.00  0.00    +0.000 A 
ATOM     11  N   UNL     1       4.055   1.438  18.806  0.00  0.00    +0.000 N 
ATOM     12  C   UNL     1       4.421   2.203  19.875  0.00  0.00    +0.000 A 
ATOM     13  N   UNL     1       4.191   3.476  19.653  0.00  0.00    +0.000 NA
ATOM     14  H   UNL     1       4.131   0.432  18.747  0.00  0.00    +0.000 HD
ENDBRANCH   8   9
ENDBRANCH   1   8
TORSDOF 4
ENDMDL
MODEL 3
REMARK VINA RESULT:      -5.3      3.678      5.515
REMARK  Name = 
REMARK  5 active torsions:
REMARK  status: ('A' for Active; 'I' for Inactive)
REMARK    1  A    between atoms: C_1  and  S_2
REMARK    2  A    between atoms: S_2  and  N_5
REMARK    3  A    between atoms: N_5  and  C_6
REMARK    4  A    between atoms: C_6  and  C_7
REMARK    5  A    between atoms: C_7  and  C_8
REMARK                            x       y       z     vdW  Elec       q    Type
REMARK                         _______ _______ _______ _____ _____    ______ ____
ROOT
ATOM      1  C   UNL     1       4.017   2.789  18.487  0.00  0.00    +0.000 C 
ENDROOT
BRANCH   1   2
ATOM      2  N   UNL     1       3.953   3.172  19.917  0.00  0.00    +0.000 NA
ATOM      3  H   UNL     1       4.657   2.712  20.499  0.00  0.00    +0.000 HD
BRANCH   2   5
ATOM      4  C   UNL     1       1.840   4.669  20.711  0.00  0.00    +0.000 C 
ATOM      5  S   UNL     1       2.448   2.995  20.666  0.00  0.00    +0.000 S 
ATOM      6  O   UNL     1       2.727   2.568  22.019  0.00  0.00    +0.000 OA
ATOM      7  O   UNL     1       1.608   2.210  19.788  0.00  0.00    +0.000 OA
ENDBRANCH   2   5
ENDBRANCH   1   2
BRANCH   1   8
ATOM      8  C   UNL     1       4.165   4.025  17.599  0.00  0.00    +0.000 C 
BRANCH   8   9
ATOM      9  C   UNL     1       5.603   4.332  17.372  0.00  0.00    +0.000 A 
ATOM     10  C   UNL     1       6.305   4.434  16.189  0.00  0.00    +0.000 A 
ATOM     11  N   UNL     1       7.601   4.665  16.561  0.00  0.00    +0.000 N 
ATOM     12  C   UNL     1       7.641   4.694  17.925  0.00  0.00    +0.000 A 
ATOM     13  N   UNL     1       6.449   4.507  18.441  0.00  0.00    +0.000 NA
ATOM     14  H   UNL     1       8.395   4.777  15.946  0.00  0.00    +0.000 HD
ENDBRANCH   8   9
ENDBRANCH   1   8
TORSDOF 4
ENDMDL
MODEL 4
REMARK VINA RESULT:      -5.3      1.715      1.846
REMARK  Name = 
REMARK  5 active torsions:
REMARK  status: ('A' for Active; 'I' for Inactive)
REMARK    1  A    between atoms: C_1  and  S_2
REMARK    2  A    between atoms: S_2  and  N_5
REMARK    3  A    between atoms: N_5  and  C_6
REMARK    4  A    between atoms: C_6  and  C_7
REMARK    5  A    between atoms: C_7  and  C_8
REMARK                            x       y       z     vdW  Elec       q    Type
REMARK                         _______ _______ _______ _____ _____    ______ ____
ROOT
ATOM      1  C   UNL     1       4.440   5.076  17.257  0.00  0.00    +0.000 C 
ENDROOT
BRANCH   1   2
ATOM      2  N   UNL     1       5.822   5.427  16.855  0.00  0.00    +0.000 NA
ATOM      3  H   UNL     1       6.074   5.104  15.918  0.00  0.00    +0.000 HD
BRANCH   2   5
ATOM      4  C   UNL     1       7.738   6.523  18.425  0.00  0.00    +0.000 C 
ATOM      5  S   UNL     1       7.047   4.960  17.923  0.00  0.00    +0.000 S 
ATOM      6  O   UNL     1       8.025   4.259  17.121  0.00  0.00    +0.000 OA
ATOM      7  O   UNL     1       6.420   4.331  19.065  0.00  0.00    +0.000 OA
ENDBRANCH   2   5
ENDBRANCH   1   2
BRANCH   1   8
ATOM      8  C   UNL     1       4.033   3.720  16.678  0.00  0.00    +0.000 C 
BRANCH   8   9
ATOM      9  C   UNL     1       3.055   3.045  17.574  0.00  0.00    +0.000 A 
ATOM     10  C   UNL     1       3.194   1.895  18.322  0.00  0.00    +0.000 A 
ATOM     11  N   UNL     1       1.971   1.693  18.900  0.00  0.00    +0.000 N 
ATOM     12  C   UNL     1       1.150   2.705  18.493  0.00  0.00    +0.000 A 
ATOM     13  N   UNL     1       1.779   3.542  17.701  0.00  0.00    +0.000 NA
ATOM     14  H   UNL     1       1.708   0.929  19.506  0.00  0.00    +0.000 HD
ENDBRANCH   8   9
ENDBRANCH   1   8
TORSDOF 4
ENDMDL
MODEL 5
REMARK VINA RESULT:      -5.3      0.975      1.162
REMARK  Name = 
REMARK  5 active torsions:
REMARK  status: ('A' for Active; 'I' for Inactive)
REMARK    1  A    between atoms: C_1  and  S_2
REMARK    2  A    between atoms: S_2  and  N_5
REMARK    3  A    between atoms: N_5  and  C_6
REMARK    4  A    between atoms: C_6  and  C_7
REMARK    5  A    between atoms: C_7  and  C_8
REMARK                            x       y       z     vdW  Elec       q    Type
REMARK                         _______ _______ _______ _____ _____    ______ ____
ROOT
ATOM      1  C   UNL     1       4.651   4.433  18.643  0.00  0.00    +0.000 C 
ENDROOT
BRANCH   1   2
ATOM      2  N   UNL     1       6.032   3.918  18.488  0.00  0.00    +0.000 NA
ATOM      3  H   UNL     1       6.446   3.578  19.359  0.00  0.00    +0.000 HD
BRANCH   2   5
ATOM      4  C   UNL     1       7.793   5.870  19.140  0.00  0.00    +0.000 C 
ATOM      5  S   UNL     1       7.136   4.966  17.753  0.00  0.00    +0.000 S 
ATOM      6  O   UNL     1       6.348   5.868  16.945  0.00  0.00    +0.000 OA
ATOM      7  O   UNL     1       8.189   4.161  17.172  0.00  0.00    +0.000 OA
ENDBRANCH   2   5
ENDBRANCH   1   2
BRANCH   1   8
ATOM      8  C   UNL     1       3.633   3.423  18.112  0.00  0.00    +0.000 C 
BRANCH   8   9
ATOM      9  C   UNL     1       2.448   3.358  19.011  0.00  0.00    +0.000 A 
ATOM     10  C   UNL     1       1.270   2.656  18.867  0.00  0.00    +0.000 A 
ATOM     11  N   UNL     1       0.507   3.010  19.944  0.00  0.00    +0.000 N 
ATOM     12  C   UNL     1       1.231   3.896  20.690  0.00  0.00    +0.000 A 
ATOM     13  N   UNL     1       2.410   4.116  20.157  0.00  0.00    +0.000 NA
ATOM     14  H   UNL     1      -0.430   2.694  20.152  0.00  0.00    +0.000 HD
ENDBRANCH   8   9
ENDBRANCH   1   8
TORSDOF 4
ENDMDL
MODEL 6
REMARK VINA RESULT:      -5.2      1.500      1.612
REMARK  Name = 
REMARK  5 active torsions:
REMARK  status: ('A' for Active; 'I' for Inactive)
REMARK    1  A    between atoms: C_1  and  S_2
REMARK    2  A    between atoms: S_2  and  N_5
REMARK    3  A    between atoms: N_5  and  C_6
REMARK    4  A    between atoms: C_6  and  C_7
REMARK    5  A    between atoms: C_7  and  C_8
REMARK                            x       y       z     vdW  Elec       q    Type
REMARK                         _______ _______ _______ _____ _____    ______ ____
ROOT
ATOM      1  C   UNL     1       4.520   3.523  18.246  0.00  0.00    +0.000 C 
ENDROOT
BRANCH   1   2
ATOM      2  N   UNL     1       5.914   3.963  18.493  0.00  0.00    +0.000 NA
ATOM      3  H   UNL     1       6.016   4.572  19.308  0.00  0.00    +0.000 HD
BRANCH   2   5
ATOM      4  C   UNL     1       5.923   3.918  15.785  0.00  0.00    +0.000 C 
ATOM      5  S   UNL     1       6.704   4.690  17.187  0.00  0.00    +0.000 S 
ATOM      6  O   UNL     1       8.077   4.242  17.256  0.00  0.00    +0.000 OA
ATOM      7  O   UNL     1       6.371   6.098  17.198  0.00  0.00    +0.000 OA
ENDBRANCH   2   5
ENDBRANCH   1   2
BRANCH   1   8
ATOM      8  C   UNL     1       3.523   4.531  18.820  0.00  0.00    +0.000 C 
BRANCH   8   9
ATOM      9  C   UNL     1       2.550   3.847  19.715  0.00  0.00    +0.000 A 
ATOM     10  C   UNL     1       1.173   3.913  19.733  0.00  0.00    +0.000 A 
ATOM     11  N   UNL     1       0.791   3.145  20.798  0.00  0.00    +0.000 N 
ATOM     12  C   UNL     1       1.924   2.650  21.377  0.00  0.00    +0.000 A 
ATOM     13  N   UNL     1       2.999   3.048  20.739  0.00  0.00    +0.000 NA
ATOM     14  H   UNL     1      -0.153   2.981  21.116  0.00  0.00    +0.000 HD
ENDBRANCH   8   9
ENDBRANCH   1   8
TORSDOF 4
ENDMDL
MODEL 7
REMARK VINA RESULT:      -5.2      1.347      1.781
REMARK  Name = 
REMARK  5 active torsions:
REMARK  status: ('A' for Active; 'I' for Inactive)
REMARK    1  A    between atoms: C_1  and  S_2
REMARK    2  A    between atoms: S_2  and  N_5
REMARK    3  A    between atoms: N_5  and  C_6
REMARK    4  A    between atoms: C_6  and  C_7
REMARK    5  A    between atoms: C_7  and  C_8
REMARK                            x       y       z     vdW  Elec       q    Type
REMARK                         _______ _______ _______ _____ _____    ______ ____
ROOT
ATOM      1  C   UNL     1       4.878   4.155  19.097  0.00  0.00    +0.000 C 
ENDROOT
BRANCH   1   2
ATOM      2  N   UNL     1       6.300   3.990  18.712  0.00  0.00    +0.000 NA
ATOM      3  H   UNL     1       6.941   3.957  19.508  0.00  0.00    +0.000 HD
BRANCH   2   5
ATOM      4  C   UNL     1       7.714   6.298  18.638  0.00  0.00    +0.000 C 
ATOM      5  S   UNL     1       6.902   5.105  17.594  0.00  0.00    +0.000 S 
ATOM      6  O   UNL     1       5.744   5.728  16.994  0.00  0.00    +0.000 OA
ATOM      7  O   UNL     1       7.894   4.429  16.787  0.00  0.00    +0.000 OA
ENDBRANCH   2   5
ENDBRANCH   1   2
BRANCH   1   8
ATOM      8  C   UNL     1       4.288   2.829  19.577  0.00  0.00    +0.000 C 
BRANCH   8   9
ATOM      9  C   UNL     1       2.805   2.923  19.665  0.00  0.00    +0.000 A 
ATOM     10  C   UNL     1       2.011   3.396  20.689  0.00  0.00    +0.000 A 
ATOM     11  N   UNL     1       0.726   3.187  20.272  0.00  0.00    +0.000 N 
ATOM     12  C   UNL     1       0.781   2.607  19.037  0.00  0.00    +0.000 A 
ATOM     13  N   UNL     1       2.022   2.445  18.641  0.00  0.00    +0.000 NA
ATOM     14  H   UNL     1      -0.118   3.403  20.784  0.00  0.00    +0.000 HD
ENDBRANCH   8   9
ENDBRANCH   1   8
TORSDOF 4
ENDMDL
MODEL 8
REMARK VINA RESULT:      -5.2      0.952      1.353
REMARK  Name = 
REMARK  5 active torsions:
REMARK  status: ('A' for Active; 'I' for Inactive)
REMARK    1  A    between atoms: C_1  and  S_2
REMARK    2  A    between atoms: S_2  and  N_5
REMARK    3  A    between atoms: N_5  and  C_6
REMARK    4  A    between atoms: C_6  and  C_7
REMARK    5  A    between atoms: C_7  and  C_8
REMARK                            x       y       z     vdW  Elec       q    Type
REMARK                         _______ _______ _______ _____ _____    ______ ____
ROOT
ATOM      1  C   UNL     1       4.662   4.042  18.396  0.00  0.00    +0.000 C 
ENDROOT
BRANCH   1   2
ATOM      2  N   UNL     1       6.110   4.061  18.715  0.00  0.00    +0.000 NA
ATOM      3  H   UNL     1       6.313   4.268  19.695  0.00  0.00    +0.000 HD
BRANCH   2   5
ATOM      4  C   UNL     1       5.925   5.598  16.493  0.00  0.00    +0.000 C 
ATOM      5  S   UNL     1       7.068   5.066  17.751  0.00  0.00    +0.000 S 
ATOM      6  O   UNL     1       8.057   4.206  17.143  0.00  0.00    +0.000 OA
ATOM      7  O   UNL     1       7.455   6.207  18.552  0.00  0.00    +0.000 OA
ENDBRANCH   2   5
ENDBRANCH   1   2
BRANCH   1   8
ATOM      8  C   UNL     1       3.855   4.732  19.497  0.00  0.00    +0.000 C 
BRANCH   8   9
ATOM      9  C   UNL     1       2.521   4.089  19.643  0.00  0.00    +0.000 A 
ATOM     10  C   UNL     1       1.538   4.304  20.586  0.00  0.00    +0.000 A 
ATOM     11  N   UNL     1       0.555   3.400  20.292  0.00  0.00    +0.000 N 
ATOM     12  C   UNL     1       0.965   2.683  19.205  0.00  0.00    +0.000 A 
ATOM     13  N   UNL     1       2.142   3.083  18.785  0.00  0.00    +0.000 NA
ATOM     14  H   UNL     1      -0.313   3.268  20.792  0.00  0.00    +0.000 HD
ENDBRANCH   8   9
ENDBRANCH   1   8
TORSDOF 4
ENDMDL
MODEL 9
REMARK VINA RESULT:      -5.2      1.257      1.718
REMARK  Name = 
REMARK  5 active torsions:
REMARK  status: ('A' for Active; 'I' for Inactive)
REMARK    1  A    between atoms: C_1  and  S_2
REMARK    2  A    between atoms: S_2  and  N_5
REMARK    3  A    between atoms: N_5  and  C_6
REMARK    4  A    between atoms: C_6  and  C_7
REMARK    5  A    between atoms: C_7  and  C_8
REMARK                            x       y       z     vdW  Elec       q    Type
REMARK                         _______ _______ _______ _____ _____    ______ ____
ROOT
ATOM      1  C   UNL     1       4.304   3.675  17.283  0.00  0.00    +0.000 C 
ENDROOT
BRANCH   1   2
ATOM      2  N   UNL     1       5.641   3.965  17.853  0.00  0.00    +0.000 NA
ATOM      3  H   UNL     1       5.612   4.526  18.707  0.00  0.00    +0.000 HD
BRANCH   2   5
ATOM      4  C   UNL     1       6.618   6.399  17.177  0.00  0.00    +0.000 C 
ATOM      5  S   UNL     1       6.762   4.664  16.798  0.00  0.00    +0.000 S 
ATOM      6  O   UNL     1       6.247   4.438  15.466  0.00  0.00    +0.000 OA
ATOM      7  O   UNL     1       8.077   4.203  17.184  0.00  0.00    +0.000 OA
ENDBRANCH   2   5
ENDBRANCH   1   2
BRANCH   1   8
ATOM      8  C   UNL     1       3.258   4.646  17.832  0.00  0.00    +0.000 C 
BRANCH   8   9
ATOM      9  C   UNL     1       2.158   3.900  18.503  0.00  0.00    +0.000 A 
ATOM     10  C   UNL     1       1.475   4.194  19.664  0.00  0.00    +0.000 A 
ATOM     11  N   UNL     1       0.622   3.143  19.854  0.00  0.00    +0.000 N 
ATOM     12  C   UNL     1       0.811   2.266  18.825  0.00  0.00    +0.000 A 
ATOM     13  N   UNL     1       1.724   2.701  17.989  0.00  0.00    +0.000 NA
ATOM     14  H   UNL     1      -0.023   3.020  20.622  0.00  0.00    +0.000 HD
ENDBRANCH   8   9
ENDBRANCH   1   8
TORSDOF 4
ENDMDL
