MODEL 1
REMARK VINA RESULT:      -7.8      0.000      0.000
REMARK  Name = 
REMARK  12 active torsions:
REMARK  status: ('A' for Active; 'I' for Inactive)
REMARK    1  A    between atoms: C_2  and  C_3
REMARK    2  A    between atoms: N_5  and  C_6
REMARK    3  A    between atoms: C_10  and  C_11
REMARK    4  A    between atoms: C_11  and  N_12
REMARK    5  A    between atoms: N_12  and  C_13
REMARK    6  A    between atoms: N_16  and  C_17
REMARK    7  A    between atoms: N_20  and  C_21
REMARK    8  A    between atoms: C_21  and  C_22
REMARK    9  A    between atoms: C_21  and  C_23
REMARK   10  A    between atoms: C_21  and  C_24
REMARK   11  A    between atoms: C_24  and  O_25
REMARK   12  A    between atoms: O_25  and  C_26
REMARK                            x       y       z     vdW  Elec       q    Type
REMARK                         _______ _______ _______ _____ _____    ______ ____
ROOT
ATOM      1  C   UNL     1      -0.199  10.756  20.383  0.00  0.00    +0.000 A 
ATOM      2  N   UNL     1       0.700   9.760  20.341  0.00  0.00    +0.000 NA
ATOM      3  C   UNL     1       1.024   9.115  21.474  0.00  0.00    +0.000 A 
ATOM      4  N   UNL     1       1.878   8.015  21.419  0.00  0.00    +0.000 N 
ATOM      5  N   UNL     1       0.542   9.458  22.677  0.00  0.00    +0.000 NA
ATOM      6  C   UNL     1      -0.384  10.442  22.693  0.00  0.00    +0.000 A 
ATOM      7  C   UNL     1      -0.819  11.108  21.570  0.00  0.00    +0.000 A 
ATOM      8 CL   UNL     1      -2.013  12.338  21.685  0.00  0.00    +0.000 Cl
ATOM      9  H   UNL     1       2.126   7.735  22.358  0.00  0.00    +0.000 HD
ENDROOT
BRANCH   4  10
ATOM     10  C   UNL     1       2.140   7.228  20.355  0.00  0.00    +0.000 A 
ATOM     11  C   UNL     1       2.270   7.569  18.995  0.00  0.00    +0.000 A 
ATOM     12  N   UNL     1       2.510   6.507  18.224  0.00  0.00    +0.000 NA
ATOM     13  N   UNL     1       2.452   5.463  19.083  0.00  0.00    +0.000 N 
ATOM     14  C   UNL     1       2.296   5.866  20.388  0.00  0.00    +0.000 A 
BRANCH  13  15
ATOM     15  C   UNL     1       2.644   4.097  18.562  0.00  0.00    +0.000 C 
ATOM     16  C   UNL     1       1.372   3.611  17.828  0.00  0.00    +0.000 C 
ATOM     17  C   UNL     1       3.817   4.120  17.565  0.00  0.00    +0.000 C 
BRANCH  15  18
ATOM     18  C   UNL     1       2.973   3.086  19.691  0.00  0.00    +0.000 C 
BRANCH  18  19
ATOM     19  O   UNL     1       1.795   2.406  20.134  0.00  0.00    +0.000 OA
ATOM     20  C   UNL     1       1.548   2.608  21.516  0.00  0.00    +0.000 C 
ENDBRANCH  18  19
ENDBRANCH  15  18
ENDBRANCH  13  15
ENDBRANCH   4  10
BRANCH   1  21
ATOM     21  N   UNL     1      -0.500  11.426  19.189  0.00  0.00    +0.000 N 
ATOM     22  H   UNL     1      -1.240  12.105  19.349  0.00  0.00    +0.000 HD
BRANCH  21  23
ATOM     23  C   UNL     1      -0.780  10.560  18.049  0.00  0.00    +0.000 C 
BRANCH  23  28
ATOM     24  C   UNL     1      -4.488  11.560  17.838  0.00  0.00    +0.000 A 
ATOM     25  C   UNL     1      -4.726  11.330  16.478  0.00  0.00    +0.000 A 
ATOM     26  C   UNL     1      -3.709  10.863  15.645  0.00  0.00    +0.000 A 
ATOM     27  C   UNL     1      -2.445  10.599  16.165  0.00  0.00    +0.000 A 
ATOM     28  C   UNL     1      -2.177  10.813  17.524  0.00  0.00    +0.000 A 
ATOM     29  C   UNL     1      -3.201  11.335  18.341  0.00  0.00    +0.000 A 
BRANCH  24  32
ATOM     30  C   UNL     1      -6.594  11.296  19.124  0.00  0.00    +0.000 C 
ATOM     31  O   UNL     1      -6.875  10.144  18.810  0.00  0.00    +0.000 OA
ATOM     32  N   UNL     1      -5.484  12.013  18.729  0.00  0.00    +0.000 N 
ATOM     33  H   UNL     1      -5.303  12.898  19.185  0.00  0.00    +0.000 HD
BRANCH  30  35
ATOM     34  C   UNL     1      -7.156  12.134  21.354  0.00  0.00    +0.000 C 
ATOM     35  C   UNL     1      -7.475  12.058  20.054  0.00  0.00    +0.000 C 
ENDBRANCH  30  35
ENDBRANCH  24  32
ENDBRANCH  23  28
ENDBRANCH  21  23
ENDBRANCH   1  21
TORSDOF 9
ENDMDL
MODEL 2
REMARK VINA RESULT:      -7.7      0.986      1.672
REMARK  Name = 
REMARK  12 active torsions:
REMARK  status: ('A' for Active; 'I' for Inactive)
REMARK    1  A    between atoms: C_2  and  C_3
REMARK    2  A    between atoms: N_5  and  C_6
REMARK    3  A    between atoms: C_10  and  C_11
REMARK    4  A    between atoms: C_11  and  N_12
REMARK    5  A    between atoms: N_12  and  C_13
REMARK    6  A    between atoms: N_16  and  C_17
REMARK    7  A    between atoms: N_20  and  C_21
REMARK    8  A    between atoms: C_21  and  C_22
REMARK    9  A    between atoms: C_21  and  C_23
REMARK   10  A    between atoms: C_21  and  C_24
REMARK   11  A    between atoms: C_24  and  O_25
REMARK   12  A    between atoms: O_25  and  C_26
REMARK                            x       y       z     vdW  Elec       q    Type
REMARK                         _______ _______ _______ _____ _____    ______ ____
ROOT
ATOM      1  C   UNL     1      -0.177  10.497  20.320  0.00  0.00    +0.000 A 
ATOM      2  N   UNL     1       0.674   9.459  20.347  0.00  0.00    +0.000 NA
ATOM      3  C   UNL     1       0.936   8.851  21.515  0.00  0.00    +0.000 A 
ATOM      4  N   UNL     1       1.737   7.710  21.532  0.00  0.00    +0.000 N 
ATOM      5  N   UNL     1       0.436   9.267  22.687  0.00  0.00    +0.000 NA
ATOM      6  C   UNL     1      -0.441  10.293  22.634  0.00  0.00    +0.000 A 
ATOM      7  C   UNL     1      -0.813  10.929  21.472  0.00  0.00    +0.000 A 
ATOM      8 CL   UNL     1      -1.949  12.217  21.498  0.00  0.00    +0.000 Cl
ATOM      9  H   UNL     1       1.945   7.461  22.490  0.00  0.00    +0.000 HD
ENDROOT
BRANCH   4  10
ATOM     10  C   UNL     1       1.991   6.866  20.511  0.00  0.00    +0.000 A 
ATOM     11  C   UNL     1       2.323   7.149  19.173  0.00  0.00    +0.000 A 
ATOM     12  N   UNL     1       2.480   6.045  18.441  0.00  0.00    +0.000 NA
ATOM     13  N   UNL     1       2.166   5.043  19.296  0.00  0.00    +0.000 N 
ATOM     14  C   UNL     1       1.930   5.497  20.572  0.00  0.00    +0.000 A 
BRANCH  13  15
ATOM     15  C   UNL     1       2.201   3.651  18.811  0.00  0.00    +0.000 C 
ATOM     16  C   UNL     1       3.132   2.790  19.697  0.00  0.00    +0.000 C 
ATOM     17  C   UNL     1       0.773   3.078  18.885  0.00  0.00    +0.000 C 
BRANCH  15  18
ATOM     18  C   UNL     1       2.696   3.558  17.344  0.00  0.00    +0.000 C 
BRANCH  18  19
ATOM     19  O   UNL     1       4.058   3.123  17.287  0.00  0.00    +0.000 OA
ATOM     20  C   UNL     1       4.889   4.053  16.610  0.00  0.00    +0.000 C 
ENDBRANCH  18  19
ENDBRANCH  15  18
ENDBRANCH  13  15
ENDBRANCH   4  10
BRANCH   1  21
ATOM     21  N   UNL     1      -0.411  11.127  19.090  0.00  0.00    +0.000 N 
ATOM     22  H   UNL     1      -1.102  11.866  19.204  0.00  0.00    +0.000 HD
BRANCH  21  23
ATOM     23  C   UNL     1      -0.740  10.228  17.988  0.00  0.00    +0.000 C 
BRANCH  23  28
ATOM     24  C   UNL     1      -4.291  11.646  17.566  0.00  0.00    +0.000 A 
ATOM     25  C   UNL     1      -4.549  11.268  16.243  0.00  0.00    +0.000 A 
ATOM     26  C   UNL     1      -3.595  10.571  15.501  0.00  0.00    +0.000 A 
ATOM     27  C   UNL     1      -2.377  10.223  16.080  0.00  0.00    +0.000 A 
ATOM     28  C   UNL     1      -2.092  10.582  17.404  0.00  0.00    +0.000 A 
ATOM     29  C   UNL     1      -3.045  11.331  18.122  0.00  0.00    +0.000 A 
BRANCH  24  32
ATOM     30  C   UNL     1      -6.400  11.806  18.864  0.00  0.00    +0.000 C 
ATOM     31  O   UNL     1      -6.800  10.654  18.736  0.00  0.00    +0.000 OA
ATOM     32  N   UNL     1      -5.227  12.334  18.367  0.00  0.00    +0.000 N 
ATOM     33  H   UNL     1      -4.951  13.257  18.678  0.00  0.00    +0.000 HD
BRANCH  30  35
ATOM     34  C   UNL     1      -7.432  14.007  19.144  0.00  0.00    +0.000 C 
ATOM     35  C   UNL     1      -7.189  12.792  19.656  0.00  0.00    +0.000 C 
ENDBRANCH  30  35
ENDBRANCH  24  32
ENDBRANCH  23  28
ENDBRANCH  21  23
ENDBRANCH   1  21
TORSDOF 9
ENDMDL
MODEL 3
REMARK VINA RESULT:      -7.2      4.816      6.662
REMARK  Name = 
REMARK  12 active torsions:
REMARK  status: ('A' for Active; 'I' for Inactive)
REMARK    1  A    between atoms: C_2  and  C_3
REMARK    2  A    between atoms: N_5  and  C_6
REMARK    3  A    between atoms: C_10  and  C_11
REMARK    4  A    between atoms: C_11  and  N_12
REMARK    5  A    between atoms: N_12  and  C_13
REMARK    6  A    between atoms: N_16  and  C_17
REMARK    7  A    between atoms: N_20  and  C_21
REMARK    8  A    between atoms: C_21  and  C_22
REMARK    9  A    between atoms: C_21  and  C_23
REMARK   10  A    between atoms: C_21  and  C_24
REMARK   11  A    between atoms: C_24  and  O_25
REMARK   12  A    between atoms: O_25  and  C_26
REMARK                            x       y       z     vdW  Elec       q    Type
REMARK                         _______ _______ _______ _____ _____    ______ ____
ROOT
ATOM      1  C   UNL     1       0.990   9.732  19.223  0.00  0.00    +0.000 A 
ATOM      2  N   UNL     1       1.812   8.671  19.207  0.00  0.00    +0.000 NA
ATOM      3  C   UNL     1       1.783   7.798  20.227  0.00  0.00    +0.000 A 
ATOM      4  N   UNL     1       2.559   6.641  20.164  0.00  0.00    +0.000 N 
ATOM      5  N   UNL     1       1.013   7.962  21.311  0.00  0.00    +0.000 NA
ATOM      6  C   UNL     1       0.173   9.019  21.295  0.00  0.00    +0.000 A 
ATOM      7  C   UNL     1       0.093   9.924  20.261  0.00  0.00    +0.000 A 
ATOM      8 CL   UNL     1      -1.019  11.231  20.319  0.00  0.00    +0.000 Cl
ATOM      9  H   UNL     1       2.529   6.168  21.057  0.00  0.00    +0.000 HD
ENDROOT
BRANCH   4  10
ATOM     10  C   UNL     1       3.056   6.040  19.063  0.00  0.00    +0.000 A 
ATOM     11  C   UNL     1       2.529   4.979  18.303  0.00  0.00    +0.000 A 
ATOM     12  N   UNL     1       3.323   4.635  17.288  0.00  0.00    +0.000 NA
ATOM     13  N   UNL     1       4.409   5.427  17.443  0.00  0.00    +0.000 N 
ATOM     14  C   UNL     1       4.255   6.334  18.465  0.00  0.00    +0.000 A 
BRANCH  13  15
ATOM     15  C   UNL     1       5.531   5.297  16.496  0.00  0.00    +0.000 C 
ATOM     16  C   UNL     1       5.711   3.822  16.065  0.00  0.00    +0.000 C 
ATOM     17  C   UNL     1       5.213   6.146  15.251  0.00  0.00    +0.000 C 
BRANCH  15  18
ATOM     18  C   UNL     1       6.867   5.795  17.105  0.00  0.00    +0.000 C 
BRANCH  18  19
ATOM     19  O   UNL     1       7.177   7.118  16.656  0.00  0.00    +0.000 OA
ATOM     20  C   UNL     1       7.788   7.898  17.671  0.00  0.00    +0.000 C 
ENDBRANCH  18  19
ENDBRANCH  15  18
ENDBRANCH  13  15
ENDBRANCH   4  10
BRANCH   1  21
ATOM     21  N   UNL     1       1.060  10.639  18.157  0.00  0.00    +0.000 N 
ATOM     22  H   UNL     1       0.808  10.173  17.288  0.00  0.00    +0.000 HD
BRANCH  21  23
ATOM     23  C   UNL     1       2.319  11.370  18.049  0.00  0.00    +0.000 C 
BRANCH  23  28
ATOM     24  C   UNL     1       2.939  15.128  18.580  0.00  0.00    +0.000 A 
ATOM     25  C   UNL     1       1.623  15.571  18.751  0.00  0.00    +0.000 A 
ATOM     26  C   UNL     1       0.555  14.674  18.694  0.00  0.00    +0.000 A 
ATOM     27  C   UNL     1       0.792  13.318  18.487  0.00  0.00    +0.000 A 
ATOM     28  C   UNL     1       2.099  12.843  18.318  0.00  0.00    +0.000 A 
ATOM     29  C   UNL     1       3.162  13.770  18.326  0.00  0.00    +0.000 A 
BRANCH  24  32
ATOM     30  C   UNL     1       4.630  16.469  19.805  0.00  0.00    +0.000 C 
ATOM     31  O   UNL     1       4.302  16.199  20.956  0.00  0.00    +0.000 OA
ATOM     32  N   UNL     1       4.056  15.988  18.647  0.00  0.00    +0.000 N 
ATOM     33  H   UNL     1       4.525  16.176  17.771  0.00  0.00    +0.000 HD
BRANCH  30  35
ATOM     34  C   UNL     1       6.801  16.954  18.785  0.00  0.00    +0.000 C 
ATOM     35  C   UNL     1       5.783  17.378  19.546  0.00  0.00    +0.000 C 
ENDBRANCH  30  35
ENDBRANCH  24  32
ENDBRANCH  23  28
ENDBRANCH  21  23
ENDBRANCH   1  21
TORSDOF 9
ENDMDL
MODEL 4
REMARK VINA RESULT:      -7.2      1.575      2.277
REMARK  Name = 
REMARK  12 active torsions:
REMARK  status: ('A' for Active; 'I' for Inactive)
REMARK    1  A    between atoms: C_2  and  C_3
REMARK    2  A    between atoms: N_5  and  C_6
REMARK    3  A    between atoms: C_10  and  C_11
REMARK    4  A    between atoms: C_11  and  N_12
REMARK    5  A    between atoms: N_12  and  C_13
REMARK    6  A    between atoms: N_16  and  C_17
REMARK    7  A    between atoms: N_20  and  C_21
REMARK    8  A    between atoms: C_21  and  C_22
REMARK    9  A    between atoms: C_21  and  C_23
REMARK   10  A    between atoms: C_21  and  C_24
REMARK   11  A    between atoms: C_24  and  O_25
REMARK   12  A    between atoms: O_25  and  C_26
REMARK                            x       y       z     vdW  Elec       q    Type
REMARK                         _______ _______ _______ _____ _____    ______ ____
ROOT
ATOM      1  C   UNL     1       0.008  10.188  19.859  0.00  0.00    +0.000 A 
ATOM      2  N   UNL     1       0.781   9.106  20.038  0.00  0.00    +0.000 NA
ATOM      3  C   UNL     1       1.034   8.672  21.283  0.00  0.00    +0.000 A 
ATOM      4  N   UNL     1       1.749   7.491  21.469  0.00  0.00    +0.000 N 
ATOM      5  N   UNL     1       0.604   9.308  22.382  0.00  0.00    +0.000 NA
ATOM      6  C   UNL     1      -0.197  10.377  22.181  0.00  0.00    +0.000 A 
ATOM      7  C   UNL     1      -0.558  10.847  20.938  0.00  0.00    +0.000 A 
ATOM      8 CL   UNL     1      -1.595  12.206  20.778  0.00  0.00    +0.000 Cl
ATOM      9  H   UNL     1       1.968   7.382  22.450  0.00  0.00    +0.000 HD
ENDROOT
BRANCH   4  10
ATOM     10  C   UNL     1       1.909   6.478  20.593  0.00  0.00    +0.000 A 
ATOM     11  C   UNL     1       1.152   5.302  20.430  0.00  0.00    +0.000 A 
ATOM     12  N   UNL     1       1.632   4.515  19.466  0.00  0.00    +0.000 NA
ATOM     13  N   UNL     1       2.756   5.150  19.059  0.00  0.00    +0.000 N 
ATOM     14  C   UNL     1       2.919   6.370  19.671  0.00  0.00    +0.000 A 
BRANCH  13  15
ATOM     15  C   UNL     1       3.580   4.538  18.001  0.00  0.00    +0.000 C 
ATOM     16  C   UNL     1       4.723   3.699  18.618  0.00  0.00    +0.000 C 
ATOM     17  C   UNL     1       2.679   3.613  17.161  0.00  0.00    +0.000 C 
BRANCH  15  18
ATOM     18  C   UNL     1       4.206   5.603  17.063  0.00  0.00    +0.000 C 
BRANCH  18  19
ATOM     19  O   UNL     1       5.499   5.193  16.609  0.00  0.00    +0.000 OA
ATOM     20  C   UNL     1       5.604   5.224  15.195  0.00  0.00    +0.000 C 
ENDBRANCH  18  19
ENDBRANCH  15  18
ENDBRANCH  13  15
ENDBRANCH   4  10
BRANCH   1  21
ATOM     21  N   UNL     1      -0.218  10.631  18.549  0.00  0.00    +0.000 N 
ATOM     22  H   UNL     1      -0.718  11.517  18.563  0.00  0.00    +0.000 HD
BRANCH  21  23
ATOM     23  C   UNL     1      -0.849   9.653  17.667  0.00  0.00    +0.000 C 
BRANCH  23  28
ATOM     24  C   UNL     1      -4.460  10.978  17.618  0.00  0.00    +0.000 A 
ATOM     25  C   UNL     1      -4.629  11.173  16.242  0.00  0.00    +0.000 A 
ATOM     26  C   UNL     1      -3.598  10.885  15.348  0.00  0.00    +0.000 A 
ATOM     27  C   UNL     1      -2.389  10.376  15.816  0.00  0.00    +0.000 A 
ATOM     28  C   UNL     1      -2.191  10.164  17.187  0.00  0.00    +0.000 A 
ATOM     29  C   UNL     1      -3.224  10.510  18.081  0.00  0.00    +0.000 A 
BRANCH  24  32
ATOM     30  C   UNL     1      -6.253  12.372  18.617  0.00  0.00    +0.000 C 
ATOM     31  O   UNL     1      -6.227  13.319  17.837  0.00  0.00    +0.000 OA
ATOM     32  N   UNL     1      -5.475  11.235  18.563  0.00  0.00    +0.000 N 
ATOM     33  H   UNL     1      -5.708  10.469  19.182  0.00  0.00    +0.000 HD
BRANCH  30  35
ATOM     34  C   UNL     1      -6.958  11.620  20.837  0.00  0.00    +0.000 C 
ATOM     35  C   UNL     1      -7.223  12.358  19.749  0.00  0.00    +0.000 C 
ENDBRANCH  30  35
ENDBRANCH  24  32
ENDBRANCH  23  28
ENDBRANCH  21  23
ENDBRANCH   1  21
TORSDOF 9
ENDMDL
MODEL 5
REMARK VINA RESULT:      -7.2      4.355      9.833
REMARK  Name = 
REMARK  12 active torsions:
REMARK  status: ('A' for Active; 'I' for Inactive)
REMARK    1  A    between atoms: C_2  and  C_3
REMARK    2  A    between atoms: N_5  and  C_6
REMARK    3  A    between atoms: C_10  and  C_11
REMARK    4  A    between atoms: C_11  and  N_12
REMARK    5  A    between atoms: N_12  and  C_13
REMARK    6  A    between atoms: N_16  and  C_17
REMARK    7  A    between atoms: N_20  and  C_21
REMARK    8  A    between atoms: C_21  and  C_22
REMARK    9  A    between atoms: C_21  and  C_23
REMARK   10  A    between atoms: C_21  and  C_24
REMARK   11  A    between atoms: C_24  and  O_25
REMARK   12  A    between atoms: O_25  and  C_26
REMARK                            x       y       z     vdW  Elec       q    Type
REMARK                         _______ _______ _______ _____ _____    ______ ____
ROOT
ATOM      1  C   UNL     1       2.661   3.580  18.933  0.00  0.00    +0.000 A 
ATOM      2  N   UNL     1       2.080   4.687  19.422  0.00  0.00    +0.000 NA
ATOM      3  C   UNL     1       2.017   4.867  20.751  0.00  0.00    +0.000 A 
ATOM      4  N   UNL     1       1.508   6.061  21.260  0.00  0.00    +0.000 N 
ATOM      5  N   UNL     1       2.451   3.959  21.636  0.00  0.00    +0.000 NA
ATOM      6  C   UNL     1       3.060   2.867  21.124  0.00  0.00    +0.000 A 
ATOM      7  C   UNL     1       3.223   2.637  19.777  0.00  0.00    +0.000 A 
ATOM      8 CL   UNL     1       4.025   1.225  19.216  0.00  0.00    +0.000 Cl
ATOM      9  H   UNL     1       1.404   5.981  22.263  0.00  0.00    +0.000 HD
ENDROOT
BRANCH   4  10
ATOM     10  C   UNL     1       1.418   7.252  20.633  0.00  0.00    +0.000 A 
ATOM     11  C   UNL     1       2.090   7.718  19.488  0.00  0.00    +0.000 A 
ATOM     12  N   UNL     1       1.758   8.972  19.175  0.00  0.00    +0.000 NA
ATOM     13  N   UNL     1       0.925   9.344  20.175  0.00  0.00    +0.000 N 
ATOM     14  C   UNL     1       0.645   8.311  21.037  0.00  0.00    +0.000 A 
BRANCH  13  15
ATOM     15  C   UNL     1       0.372  10.711  20.174  0.00  0.00    +0.000 C 
ATOM     16  C   UNL     1      -0.943  10.765  19.361  0.00  0.00    +0.000 C 
ATOM     17  C   UNL     1       0.074  11.113  21.631  0.00  0.00    +0.000 C 
BRANCH  15  18
ATOM     18  C   UNL     1       1.364  11.739  19.571  0.00  0.00    +0.000 C 
BRANCH  18  19
ATOM     19  O   UNL     1       1.450  12.911  20.386  0.00  0.00    +0.000 OA
ATOM     20  C   UNL     1       1.355  14.103  19.622  0.00  0.00    +0.000 C 
ENDBRANCH  18  19
ENDBRANCH  15  18
ENDBRANCH  13  15
ENDBRANCH   4  10
BRANCH   1  21
ATOM     21  N   UNL     1       2.690   3.408  17.542  0.00  0.00    +0.000 N 
ATOM     22  H   UNL     1       3.337   2.661  17.298  0.00  0.00    +0.000 HD
BRANCH  21  23
ATOM     23  C   UNL     1       2.935   4.625  16.774  0.00  0.00    +0.000 C 
BRANCH  23  28
ATOM     24  C   UNL     1       6.421   6.247  16.672  0.00  0.00    +0.000 A 
ATOM     25  C   UNL     1       7.189   5.148  16.270  0.00  0.00    +0.000 A 
ATOM     26  C   UNL     1       6.595   3.907  16.037  0.00  0.00    +0.000 A 
ATOM     27  C   UNL     1       5.218   3.754  16.184  0.00  0.00    +0.000 A 
ATOM     28  C   UNL     1       4.421   4.837  16.580  0.00  0.00    +0.000 A 
ATOM     29  C   UNL     1       5.046   6.069  16.861  0.00  0.00    +0.000 A 
BRANCH  24  32
ATOM     30  C   UNL     1       7.840   7.858  17.917  0.00  0.00    +0.000 C 
ATOM     31  O   UNL     1       8.318   7.097  18.753  0.00  0.00    +0.000 OA
ATOM     32  N   UNL     1       6.968   7.527  16.901  0.00  0.00    +0.000 N 
ATOM     33  H   UNL     1       6.775   8.225  16.195  0.00  0.00    +0.000 HD
BRANCH  30  35
ATOM     34  C   UNL     1       8.995   9.784  18.890  0.00  0.00    +0.000 C 
ATOM     35  C   UNL     1       8.219   9.299  17.909  0.00  0.00    +0.000 C 
ENDBRANCH  30  35
ENDBRANCH  24  32
ENDBRANCH  23  28
ENDBRANCH  21  23
ENDBRANCH   1  21
TORSDOF 9
ENDMDL
MODEL 6
REMARK VINA RESULT:      -7.2      4.238      6.192
REMARK  Name = 
REMARK  12 active torsions:
REMARK  status: ('A' for Active; 'I' for Inactive)
REMARK    1  A    between atoms: C_2  and  C_3
REMARK    2  A    between atoms: N_5  and  C_6
REMARK    3  A    between atoms: C_10  and  C_11
REMARK    4  A    between atoms: C_11  and  N_12
REMARK    5  A    between atoms: N_12  and  C_13
REMARK    6  A    between atoms: N_16  and  C_17
REMARK    7  A    between atoms: N_20  and  C_21
REMARK    8  A    between atoms: C_21  and  C_22
REMARK    9  A    between atoms: C_21  and  C_23
REMARK   10  A    between atoms: C_21  and  C_24
REMARK   11  A    between atoms: C_24  and  O_25
REMARK   12  A    between atoms: O_25  and  C_26
REMARK                            x       y       z     vdW  Elec       q    Type
REMARK                         _______ _______ _______ _____ _____    ______ ____
ROOT
ATOM      1  C   UNL     1      -0.381  11.131  20.933  0.00  0.00    +0.000 A 
ATOM      2  N   UNL     1       0.501  10.125  20.813  0.00  0.00    +0.000 NA
ATOM      3  C   UNL     1       0.688   9.284  21.842  0.00  0.00    +0.000 A 
ATOM      4  N   UNL     1       1.524   8.180  21.686  0.00  0.00    +0.000 N 
ATOM      5  N   UNL     1       0.080   9.430  23.029  0.00  0.00    +0.000 NA
ATOM      6  C   UNL     1      -0.825  10.428  23.119  0.00  0.00    +0.000 A 
ATOM      7  C   UNL     1      -1.122  11.294  22.091  0.00  0.00    +0.000 A 
ATOM      8 CL   UNL     1      -2.301  12.527  22.292  0.00  0.00    +0.000 Cl
ATOM      9  H   UNL     1       1.661   7.733  22.583  0.00  0.00    +0.000 HD
ENDROOT
BRANCH   4  10
ATOM     10  C   UNL     1       1.890   7.580  20.534  0.00  0.00    +0.000 A 
ATOM     11  C   UNL     1       2.052   8.127  19.248  0.00  0.00    +0.000 A 
ATOM     12  N   UNL     1       2.403   7.211  18.344  0.00  0.00    +0.000 NA
ATOM     13  N   UNL     1       2.387   6.049  19.037  0.00  0.00    +0.000 N 
ATOM     14  C   UNL     1       2.146   6.242  20.377  0.00  0.00    +0.000 A 
BRANCH  13  15
ATOM     15  C   UNL     1       2.702   4.792  18.335  0.00  0.00    +0.000 C 
ATOM     16  C   UNL     1       1.457   4.259  17.588  0.00  0.00    +0.000 C 
ATOM     17  C   UNL     1       3.815   5.078  17.309  0.00  0.00    +0.000 C 
BRANCH  15  18
ATOM     18  C   UNL     1       3.198   3.691  19.308  0.00  0.00    +0.000 C 
BRANCH  18  19
ATOM     19  O   UNL     1       2.602   2.427  19.002  0.00  0.00    +0.000 OA
ATOM     20  C   UNL     1       3.560   1.476  18.564  0.00  0.00    +0.000 C 
ENDBRANCH  18  19
ENDBRANCH  15  18
ENDBRANCH  13  15
ENDBRANCH   4  10
BRANCH   1  21
ATOM     21  N   UNL     1      -0.536  12.007  19.850  0.00  0.00    +0.000 N 
ATOM     22  H   UNL     1      -1.470  11.913  19.458  0.00  0.00    +0.000 HD
BRANCH  21  23
ATOM     23  C   UNL     1       0.504  11.918  18.830  0.00  0.00    +0.000 C 
BRANCH  23  28
ATOM     24  C   UNL     1       3.180  14.574  18.068  0.00  0.00    +0.000 A 
ATOM     25  C   UNL     1       2.465  15.737  18.377  0.00  0.00    +0.000 A 
ATOM     26  C   UNL     1       1.144  15.665  18.821  0.00  0.00    +0.000 A 
ATOM     27  C   UNL     1       0.527  14.427  18.982  0.00  0.00    +0.000 A 
ATOM     28  C   UNL     1       1.219  13.245  18.688  0.00  0.00    +0.000 A 
ATOM     29  C   UNL     1       2.535  13.338  18.190  0.00  0.00    +0.000 A 
BRANCH  24  32
ATOM     30  C   UNL     1       5.621  14.833  18.431  0.00  0.00    +0.000 C 
ATOM     31  O   UNL     1       5.622  15.032  19.642  0.00  0.00    +0.000 OA
ATOM     32  N   UNL     1       4.523  14.587  17.634  0.00  0.00    +0.000 N 
ATOM     33  H   UNL     1       4.684  14.291  16.681  0.00  0.00    +0.000 HD
BRANCH  30  35
ATOM     34  C   UNL     1       7.920  14.053  18.124  0.00  0.00    +0.000 C 
ATOM     35  C   UNL     1       6.905  14.804  17.674  0.00  0.00    +0.000 C 
ENDBRANCH  30  35
ENDBRANCH  24  32
ENDBRANCH  23  28
ENDBRANCH  21  23
ENDBRANCH   1  21
TORSDOF 9
ENDMDL
MODEL 7
REMARK VINA RESULT:      -7.2      4.398      6.117
REMARK  Name = 
REMARK  12 active torsions:
REMARK  status: ('A' for Active; 'I' for Inactive)
REMARK    1  A    between atoms: C_2  and  C_3
REMARK    2  A    between atoms: N_5  and  C_6
REMARK    3  A    between atoms: C_10  and  C_11
REMARK    4  A    between atoms: C_11  and  N_12
REMARK    5  A    between atoms: N_12  and  C_13
REMARK    6  A    between atoms: N_16  and  C_17
REMARK    7  A    between atoms: N_20  and  C_21
REMARK    8  A    between atoms: C_21  and  C_22
REMARK    9  A    between atoms: C_21  and  C_23
REMARK   10  A    between atoms: C_21  and  C_24
REMARK   11  A    between atoms: C_24  and  O_25
REMARK   12  A    between atoms: O_25  and  C_26
REMARK                            x       y       z     vdW  Elec       q    Type
REMARK                         _______ _______ _______ _____ _____    ______ ____
ROOT
ATOM      1  C   UNL     1       0.974   9.630  19.198  0.00  0.00    +0.000 A 
ATOM      2  N   UNL     1       1.805   8.576  19.189  0.00  0.00    +0.000 NA
ATOM      3  C   UNL     1       1.791   7.715  20.219  0.00  0.00    +0.000 A 
ATOM      4  N   UNL     1       2.576   6.565  20.166  0.00  0.00    +0.000 N 
ATOM      5  N   UNL     1       1.027   7.886  21.307  0.00  0.00    +0.000 NA
ATOM      6  C   UNL     1       0.177   8.936  21.283  0.00  0.00    +0.000 A 
ATOM      7  C   UNL     1       0.083   9.827  20.239  0.00  0.00    +0.000 A 
ATOM      8 CL   UNL     1      -1.040  11.125  20.288  0.00  0.00    +0.000 Cl
ATOM      9  H   UNL     1       2.556   6.103  21.066  0.00  0.00    +0.000 HD
ENDROOT
BRANCH   4  10
ATOM     10  C   UNL     1       3.071   5.955  19.070  0.00  0.00    +0.000 A 
ATOM     11  C   UNL     1       2.551   4.877  18.329  0.00  0.00    +0.000 A 
ATOM     12  N   UNL     1       3.340   4.528  17.311  0.00  0.00    +0.000 NA
ATOM     13  N   UNL     1       4.418   5.335  17.447  0.00  0.00    +0.000 N 
ATOM     14  C   UNL     1       4.262   6.253  18.458  0.00  0.00    +0.000 A 
BRANCH  13  15
ATOM     15  C   UNL     1       5.534   5.204  16.492  0.00  0.00    +0.000 C 
ATOM     16  C   UNL     1       5.569   3.781  15.887  0.00  0.00    +0.000 C 
ATOM     17  C   UNL     1       5.320   6.223  15.357  0.00  0.00    +0.000 C 
BRANCH  15  18
ATOM     18  C   UNL     1       6.905   5.487  17.159  0.00  0.00    +0.000 C 
BRANCH  18  19
ATOM     19  O   UNL     1       7.512   6.660  16.610  0.00  0.00    +0.000 OA
ATOM     20  C   UNL     1       7.689   7.677  17.585  0.00  0.00    +0.000 C 
ENDBRANCH  18  19
ENDBRANCH  15  18
ENDBRANCH  13  15
ENDBRANCH   4  10
BRANCH   1  21
ATOM     21  N   UNL     1       1.029  10.524  18.119  0.00  0.00    +0.000 N 
ATOM     22  H   UNL     1       0.937  10.016  17.242  0.00  0.00    +0.000 HD
BRANCH  21  23
ATOM     23  C   UNL     1       2.179  11.423  18.121  0.00  0.00    +0.000 C 
BRANCH  23  28
ATOM     24  C   UNL     1       2.280  14.816  19.929  0.00  0.00    +0.000 A 
ATOM     25  C   UNL     1       1.028  15.325  19.563  0.00  0.00    +0.000 A 
ATOM     26  C   UNL     1       0.169  14.588  18.748  0.00  0.00    +0.000 A 
ATOM     27  C   UNL     1       0.542  13.322  18.303  0.00  0.00    +0.000 A 
ATOM     28  C   UNL     1       1.785  12.783  18.658  0.00  0.00    +0.000 A 
ATOM     29  C   UNL     1       2.663  13.562  19.439  0.00  0.00    +0.000 A 
BRANCH  24  32
ATOM     30  C   UNL     1       2.993  15.761  22.110  0.00  0.00    +0.000 C 
ATOM     31  O   UNL     1       2.051  15.391  22.805  0.00  0.00    +0.000 OA
ATOM     32  N   UNL     1       3.179  15.510  20.767  0.00  0.00    +0.000 N 
ATOM     33  H   UNL     1       4.073  15.747  20.358  0.00  0.00    +0.000 HD
BRANCH  30  35
ATOM     34  C   UNL     1       4.280  17.826  22.372  0.00  0.00    +0.000 C 
ATOM     35  C   UNL     1       4.111  16.541  22.714  0.00  0.00    +0.000 C 
ENDBRANCH  30  35
ENDBRANCH  24  32
ENDBRANCH  23  28
ENDBRANCH  21  23
ENDBRANCH   1  21
TORSDOF 9
ENDMDL
MODEL 8
REMARK VINA RESULT:      -7.2      4.970      8.921
REMARK  Name = 
REMARK  12 active torsions:
REMARK  status: ('A' for Active; 'I' for Inactive)
REMARK    1  A    between atoms: C_2  and  C_3
REMARK    2  A    between atoms: N_5  and  C_6
REMARK    3  A    between atoms: C_10  and  C_11
REMARK    4  A    between atoms: C_11  and  N_12
REMARK    5  A    between atoms: N_12  and  C_13
REMARK    6  A    between atoms: N_16  and  C_17
REMARK    7  A    between atoms: N_20  and  C_21
REMARK    8  A    between atoms: C_21  and  C_22
REMARK    9  A    between atoms: C_21  and  C_23
REMARK   10  A    between atoms: C_21  and  C_24
REMARK   11  A    between atoms: C_24  and  O_25
REMARK   12  A    between atoms: O_25  and  C_26
REMARK                            x       y       z     vdW  Elec       q    Type
REMARK                         _______ _______ _______ _____ _____    ______ ____
ROOT
ATOM      1  C   UNL     1       0.681  10.238  19.815  0.00  0.00    +0.000 A 
ATOM      2  N   UNL     1       1.065  11.518  19.695  0.00  0.00    +0.000 NA
ATOM      3  C   UNL     1       0.888  12.361  20.725  0.00  0.00    +0.000 A 
ATOM      4  N   UNL     1       1.379  13.663  20.642  0.00  0.00    +0.000 N 
ATOM      5  N   UNL     1       0.281  12.006  21.867  0.00  0.00    +0.000 NA
ATOM      6  C   UNL     1      -0.070  10.706  21.979  0.00  0.00    +0.000 A 
ATOM      7  C   UNL     1       0.134   9.765  20.996  0.00  0.00    +0.000 A 
ATOM      8 CL   UNL     1      -0.331   8.129  21.234  0.00  0.00    +0.000 Cl
ATOM      9  H   UNL     1       1.046  14.198  21.433  0.00  0.00    +0.000 HD
ENDROOT
BRANCH   4  10
ATOM     10  C   UNL     1       2.360  14.124  19.839  0.00  0.00    +0.000 A 
ATOM     11  C   UNL     1       2.373  14.291  18.442  0.00  0.00    +0.000 A 
ATOM     12  N   UNL     1       3.541  14.754  17.994  0.00  0.00    +0.000 NA
ATOM     13  N   UNL     1       4.315  14.808  19.103  0.00  0.00    +0.000 N 
ATOM     14  C   UNL     1       3.615  14.498  20.245  0.00  0.00    +0.000 A 
BRANCH  13  15
ATOM     15  C   UNL     1       5.714  15.256  18.979  0.00  0.00    +0.000 C 
ATOM     16  C   UNL     1       6.387  14.603  17.750  0.00  0.00    +0.000 C 
ATOM     17  C   UNL     1       5.717  16.785  18.796  0.00  0.00    +0.000 C 
BRANCH  15  18
ATOM     18  C   UNL     1       6.550  14.908  20.239  0.00  0.00    +0.000 C 
BRANCH  18  19
ATOM     19  O   UNL     1       6.863  16.084  20.990  0.00  0.00    +0.000 OA
ATOM     20  C   UNL     1       8.185  16.054  21.504  0.00  0.00    +0.000 C 
ENDBRANCH  18  19
ENDBRANCH  15  18
ENDBRANCH  13  15
ENDBRANCH   4  10
BRANCH   1  21
ATOM     21  N   UNL     1       0.856   9.389  18.714  0.00  0.00    +0.000 N 
ATOM     22  H   UNL     1       0.576   8.441  18.958  0.00  0.00    +0.000 HD
BRANCH  21  23
ATOM     23  C   UNL     1       2.181   9.434  18.103  0.00  0.00    +0.000 C 
BRANCH  23  28
ATOM     24  C   UNL     1       2.817   5.691  18.717  0.00  0.00    +0.000 A 
ATOM     25  C   UNL     1       3.913   5.487  17.870  0.00  0.00    +0.000 A 
ATOM     26  C   UNL     1       4.436   6.537  17.114  0.00  0.00    +0.000 A 
ATOM     27  C   UNL     1       3.882   7.812  17.212  0.00  0.00    +0.000 A 
ATOM     28  C   UNL     1       2.788   8.048  18.055  0.00  0.00    +0.000 A 
ATOM     29  C   UNL     1       2.240   6.965  18.771  0.00  0.00    +0.000 A 
BRANCH  24  32
ATOM     30  C   UNL     1       1.444   3.654  19.070  0.00  0.00    +0.000 C 
ATOM     31  O   UNL     1       1.103   3.441  17.910  0.00  0.00    +0.000 OA
ATOM     32  N   UNL     1       2.262   4.670  19.517  0.00  0.00    +0.000 N 
ATOM     33  H   UNL     1       2.581   4.636  20.477  0.00  0.00    +0.000 HD
BRANCH  30  35
ATOM     34  C   UNL     1       1.522   2.879  21.389  0.00  0.00    +0.000 C 
ATOM     35  C   UNL     1       0.998   2.744  20.163  0.00  0.00    +0.000 C 
ENDBRANCH  30  35
ENDBRANCH  24  32
ENDBRANCH  23  28
ENDBRANCH  21  23
ENDBRANCH   1  21
TORSDOF 9
ENDMDL
MODEL 9
REMARK VINA RESULT:      -7.1      1.644      2.011
REMARK  Name = 
REMARK  12 active torsions:
REMARK  status: ('A' for Active; 'I' for Inactive)
REMARK    1  A    between atoms: C_2  and  C_3
REMARK    2  A    between atoms: N_5  and  C_6
REMARK    3  A    between atoms: C_10  and  C_11
REMARK    4  A    between atoms: C_11  and  N_12
REMARK    5  A    between atoms: N_12  and  C_13
REMARK    6  A    between atoms: N_16  and  C_17
REMARK    7  A    between atoms: N_20  and  C_21
REMARK    8  A    between atoms: C_21  and  C_22
REMARK    9  A    between atoms: C_21  and  C_23
REMARK   10  A    between atoms: C_21  and  C_24
REMARK   11  A    between atoms: C_24  and  O_25
REMARK   12  A    between atoms: O_25  and  C_26
REMARK                            x       y       z     vdW  Elec       q    Type
REMARK                         _______ _______ _______ _____ _____    ______ ____
ROOT
ATOM      1  C   UNL     1       0.400  10.711  20.961  0.00  0.00    +0.000 A 
ATOM      2  N   UNL     1       1.191   9.659  20.697  0.00  0.00    +0.000 NA
ATOM      3  C   UNL     1       1.064   8.538  21.425  0.00  0.00    +0.000 A 
ATOM      4  N   UNL     1       1.810   7.411  21.088  0.00  0.00    +0.000 N 
ATOM      5  N   UNL     1       0.222   8.429  22.462  0.00  0.00    +0.000 NA
ATOM      6  C   UNL     1      -0.586   9.487  22.692  0.00  0.00    +0.000 A 
ATOM      7  C   UNL     1      -0.565  10.647  21.952  0.00  0.00    +0.000 A 
ATOM      8 CL   UNL     1      -1.642  11.937  22.307  0.00  0.00    +0.000 Cl
ATOM      9  H   UNL     1       1.702   6.709  21.808  0.00  0.00    +0.000 HD
ENDROOT
BRANCH   4  10
ATOM     10  C   UNL     1       2.370   7.119  19.896  0.00  0.00    +0.000 A 
ATOM     11  C   UNL     1       2.186   7.732  18.642  0.00  0.00    +0.000 A 
ATOM     12  N   UNL     1       2.897   7.147  17.678  0.00  0.00    +0.000 NA
ATOM     13  N   UNL     1       3.482   6.096  18.299  0.00  0.00    +0.000 N 
ATOM     14  C   UNL     1       3.239   6.086  19.652  0.00  0.00    +0.000 A 
BRANCH  13  15
ATOM     15  C   UNL     1       4.339   5.188  17.516  0.00  0.00    +0.000 C 
ATOM     16  C   UNL     1       4.959   5.930  16.308  0.00  0.00    +0.000 C 
ATOM     17  C   UNL     1       5.474   4.687  18.429  0.00  0.00    +0.000 C 
BRANCH  15  18
ATOM     18  C   UNL     1       3.553   3.961  16.985  0.00  0.00    +0.000 C 
BRANCH  18  19
ATOM     19  O   UNL     1       3.491   2.924  17.968  0.00  0.00    +0.000 OA
ATOM     20  C   UNL     1       2.216   2.303  18.012  0.00  0.00    +0.000 C 
ENDBRANCH  18  19
ENDBRANCH  15  18
ENDBRANCH  13  15
ENDBRANCH   4  10
BRANCH   1  21
ATOM     21  N   UNL     1       0.572  11.876  20.200  0.00  0.00    +0.000 N 
ATOM     22  H   UNL     1       0.013  12.631  20.589  0.00  0.00    +0.000 HD
BRANCH  21  23
ATOM     23  C   UNL     1       0.360  11.713  18.765  0.00  0.00    +0.000 C 
BRANCH  23  28
ATOM     24  C   UNL     1      -3.477  11.820  18.521  0.00  0.00    +0.000 A 
ATOM     25  C   UNL     1      -3.714  10.602  17.874  0.00  0.00    +0.000 A 
ATOM     26  C   UNL     1      -2.657   9.763  17.521  0.00  0.00    +0.000 A 
ATOM     27  C   UNL     1      -1.347  10.121  17.831  0.00  0.00    +0.000 A 
ATOM     28  C   UNL     1      -1.078  11.331  18.484  0.00  0.00    +0.000 A 
ATOM     29  C   UNL     1      -2.154  12.191  18.785  0.00  0.00    +0.000 A 
BRANCH  24  32
ATOM     30  C   UNL     1      -5.123  12.708  20.152  0.00  0.00    +0.000 C 
ATOM     31  O   UNL     1      -4.848  12.002  21.117  0.00  0.00    +0.000 OA
ATOM     32  N   UNL     1      -4.510  12.696  18.917  0.00  0.00    +0.000 N 
ATOM     33  H   UNL     1      -4.738  13.436  18.266  0.00  0.00    +0.000 HD
BRANCH  30  35
ATOM     34  C   UNL     1      -5.903  15.025  20.031  0.00  0.00    +0.000 C 
ATOM     35  C   UNL     1      -6.198  13.736  20.256  0.00  0.00    +0.000 C 
ENDBRANCH  30  35
ENDBRANCH  24  32
ENDBRANCH  23  28
ENDBRANCH  21  23
ENDBRANCH   1  21
TORSDOF 9
ENDMDL
