MODEL 1
REMARK VINA RESULT:      -6.9      0.000      0.000
REMARK  Name = 
REMARK  4 active torsions:
REMARK  status: ('A' for Active; 'I' for Inactive)
REMARK    1  A    between atoms: S_1  and  C_2
REMARK    2  A    between atoms: N_9  and  C_10
REMARK    3  A    between atoms: C_10  and  C_11
REMARK    4  A    between atoms: C_16  and  C_17
REMARK                            x       y       z     vdW  Elec       q    Type
REMARK                         _______ _______ _______ _____ _____    ______ ____
ROOT
ATOM      1  C   UNL     1       3.637   3.140  17.804  0.00  0.00    +0.000 C 
ATOM      2  C   UNL     1       2.858   3.316  18.889  0.00  0.00    +0.000 C 
ATOM      3  C   UNL     1       2.259   2.184  19.697  0.00  0.00    +0.000 C 
ATOM      4  C   UNL     1       1.664   2.578  21.040  0.00  0.00    +0.000 C 
ATOM      5  C   UNL     1       0.806   3.813  20.876  0.00  0.00    +0.000 C 
ATOM      6  C   UNL     1       1.669   5.004  20.488  0.00  0.00    +0.000 C 
ATOM      7  C   UNL     1       2.593   4.752  19.304  0.00  0.00    +0.000 C 
ATOM      8  N   UNL     1       3.170   5.796  18.756  0.00  0.00    +0.000 N 
ATOM      9  C   UNL     1       4.118   5.581  17.597  0.00  0.00    +0.000 C 
ATOM     10  N   UNL     1       4.110   4.229  17.109  0.00  0.00    +0.000 N 
ATOM     11  H   UNL     1       4.859   3.978  16.462  0.00  0.00    +0.000 HD
ENDROOT
BRANCH   9  12
ATOM     12  C   UNL     1       5.546   5.988  17.931  0.00  0.00    +0.000 A 
ATOM     13  C   UNL     1       6.283   5.360  18.959  0.00  0.00    +0.000 A 
ATOM     14  C   UNL     1       7.575   5.787  19.269  0.00  0.00    +0.000 A 
ATOM     15  C   UNL     1       8.157   6.832  18.555  0.00  0.00    +0.000 A 
ATOM     16  C   UNL     1       7.455   7.443  17.520  0.00  0.00    +0.000 A 
ATOM     17  C   UNL     1       6.161   7.022  17.206  0.00  0.00    +0.000 A 
ENDBRANCH   9  12
BRANCH   1  18
ATOM     18  S   UNL     1       4.098   1.558  17.203  0.00  0.00    +0.000 S 
ATOM     19  H   UNL     1       4.062   0.807  18.313  0.00  0.00    +0.000 HD
ENDBRANCH   1  18
BRANCH   8  20
ATOM     20  C   UNL     1       3.097   7.239  19.265  0.00  0.00    +0.000 C 
BRANCH  20  21
ATOM     21  C   UNL     1       1.846   8.013  18.813  0.00  0.00    +0.000 C 
ATOM     22  C   UNL     1       2.179   9.086  17.774  0.00  0.00    +0.000 C 
ATOM     23  C   UNL     1       1.383  10.309  18.170  0.00  0.00    +0.000 C 
ATOM     24  C   UNL     1       0.843  10.004  19.546  0.00  0.00    +0.000 C 
ATOM     25  O   UNL     1       1.261   8.686  19.928  0.00  0.00    +0.000 OA
ENDBRANCH  20  21
ENDBRANCH   8  20
TORSDOF 4
ENDMDL
MODEL 2
REMARK VINA RESULT:      -6.8      0.065      1.009
REMARK  Name = 
REMARK  4 active torsions:
REMARK  status: ('A' for Active; 'I' for Inactive)
REMARK    1  A    between atoms: S_1  and  C_2
REMARK    2  A    between atoms: N_9  and  C_10
REMARK    3  A    between atoms: C_10  and  C_11
REMARK    4  A    between atoms: C_16  and  C_17
REMARK                            x       y       z     vdW  Elec       q    Type
REMARK                         _______ _______ _______ _____ _____    ______ ____
ROOT
ATOM      1  C   UNL     1       3.611   3.163  17.823  0.00  0.00    +0.000 C 
ATOM      2  C   UNL     1       2.837   3.322  18.915  0.00  0.00    +0.000 C 
ATOM      3  C   UNL     1       2.258   2.178  19.720  0.00  0.00    +0.000 C 
ATOM      4  C   UNL     1       1.668   2.556  21.069  0.00  0.00    +0.000 C 
ATOM      5  C   UNL     1       0.793   3.781  20.919  0.00  0.00    +0.000 C 
ATOM      6  C   UNL     1       1.639   4.985  20.533  0.00  0.00    +0.000 C 
ATOM      7  C   UNL     1       2.558   4.752  19.341  0.00  0.00    +0.000 C 
ATOM      8  N   UNL     1       3.118   5.807  18.796  0.00  0.00    +0.000 N 
ATOM      9  C   UNL     1       4.060   5.610  17.629  0.00  0.00    +0.000 C 
ATOM     10  N   UNL     1       4.065   4.262  17.132  0.00  0.00    +0.000 N 
ATOM     11  H   UNL     1       4.812   4.025  16.478  0.00  0.00    +0.000 HD
ENDROOT
BRANCH   9  12
ATOM     12  C   UNL     1       5.485   6.033  17.955  0.00  0.00    +0.000 A 
ATOM     13  C   UNL     1       6.147   7.053  17.238  0.00  0.00    +0.000 A 
ATOM     14  C   UNL     1       7.469   7.386  17.533  0.00  0.00    +0.000 A 
ATOM     15  C   UNL     1       8.147   6.722  18.553  0.00  0.00    +0.000 A 
ATOM     16  C   UNL     1       7.501   5.732  19.288  0.00  0.00    +0.000 A 
ATOM     17  C   UNL     1       6.179   5.393  18.997  0.00  0.00    +0.000 A 
ENDBRANCH   9  12
BRANCH   1  18
ATOM     18  S   UNL     1       4.087   1.590  17.208  0.00  0.00    +0.000 S 
ATOM     19  H   UNL     1       4.972   1.911  16.254  0.00  0.00    +0.000 HD
ENDBRANCH   1  18
BRANCH   8  20
ATOM     20  C   UNL     1       3.031   7.245  19.315  0.00  0.00    +0.000 C 
BRANCH  20  21
ATOM     21  C   UNL     1       1.803   8.029  18.819  0.00  0.00    +0.000 C 
ATOM     22  C   UNL     1       2.178   9.082  17.772  0.00  0.00    +0.000 C 
ATOM     23  C   UNL     1       1.391  10.322  18.129  0.00  0.00    +0.000 C 
ATOM     24  C   UNL     1       0.810  10.046  19.495  0.00  0.00    +0.000 C 
ATOM     25  O   UNL     1       1.199   8.728  19.907  0.00  0.00    +0.000 OA
ENDBRANCH  20  21
ENDBRANCH   8  20
TORSDOF 4
ENDMDL
MODEL 3
REMARK VINA RESULT:      -6.2      2.032      5.025
REMARK  Name = 
REMARK  4 active torsions:
REMARK  status: ('A' for Active; 'I' for Inactive)
REMARK    1  A    between atoms: S_1  and  C_2
REMARK    2  A    between atoms: N_9  and  C_10
REMARK    3  A    between atoms: C_10  and  C_11
REMARK    4  A    between atoms: C_16  and  C_17
REMARK                            x       y       z     vdW  Elec       q    Type
REMARK                         _______ _______ _______ _____ _____    ______ ____
ROOT
ATOM      1  C   UNL     1       2.496   4.269  20.339  0.00  0.00    +0.000 C 
ATOM      2  C   UNL     1       2.808   3.664  19.177  0.00  0.00    +0.000 C 
ATOM      3  C   UNL     1       2.400   2.251  18.817  0.00  0.00    +0.000 C 
ATOM      4  C   UNL     1       2.592   1.862  17.359  0.00  0.00    +0.000 C 
ATOM      5  C   UNL     1       3.959   2.306  16.888  0.00  0.00    +0.000 C 
ATOM      6  C   UNL     1       4.044   3.825  16.881  0.00  0.00    +0.000 C 
ATOM      7  C   UNL     1       3.614   4.485  18.184  0.00  0.00    +0.000 C 
ATOM      8  N   UNL     1       3.903   5.755  18.342  0.00  0.00    +0.000 N 
ATOM      9  C   UNL     1       3.464   6.451  19.611  0.00  0.00    +0.000 C 
ATOM     10  N   UNL     1       2.941   5.545  20.596  0.00  0.00    +0.000 N 
ATOM     11  H   UNL     1       2.457   5.970  21.389  0.00  0.00    +0.000 HD
ENDROOT
BRANCH   9  12
ATOM     12  C   UNL     1       2.447   7.553  19.349  0.00  0.00    +0.000 A 
ATOM     13  C   UNL     1       2.242   8.091  18.059  0.00  0.00    +0.000 A 
ATOM     14  C   UNL     1       1.334   9.131  17.861  0.00  0.00    +0.000 A 
ATOM     15  C   UNL     1       0.607   9.641  18.935  0.00  0.00    +0.000 A 
ATOM     16  C   UNL     1       0.777   9.103  20.207  0.00  0.00    +0.000 A 
ATOM     17  C   UNL     1       1.686   8.064  20.414  0.00  0.00    +0.000 A 
ENDBRANCH   9  12
BRANCH   1  18
ATOM     18  S   UNL     1       1.528   3.503  21.586  0.00  0.00    +0.000 S 
ATOM     19  H   UNL     1       0.380   4.195  21.523  0.00  0.00    +0.000 HD
ENDBRANCH   1  18
BRANCH   8  20
ATOM     20  C   UNL     1       4.529   6.675  17.290  0.00  0.00    +0.000 C 
BRANCH  20  21
ATOM     21  C   UNL     1       6.052   6.519  17.130  0.00  0.00    +0.000 C 
ATOM     22  C   UNL     1       6.700   5.904  18.373  0.00  0.00    +0.000 C 
ATOM     23  C   UNL     1       7.964   6.695  18.618  0.00  0.00    +0.000 C 
ATOM     24  C   UNL     1       7.871   7.889  17.699  0.00  0.00    +0.000 C 
ATOM     25  O   UNL     1       6.655   7.799  16.942  0.00  0.00    +0.000 OA
ENDBRANCH  20  21
ENDBRANCH   8  20
TORSDOF 4
ENDMDL
MODEL 4
REMARK VINA RESULT:      -5.9      2.023      4.953
REMARK  Name = 
REMARK  4 active torsions:
REMARK  status: ('A' for Active; 'I' for Inactive)
REMARK    1  A    between atoms: S_1  and  C_2
REMARK    2  A    between atoms: N_9  and  C_10
REMARK    3  A    between atoms: C_10  and  C_11
REMARK    4  A    between atoms: C_16  and  C_17
REMARK                            x       y       z     vdW  Elec       q    Type
REMARK                         _______ _______ _______ _____ _____    ______ ____
ROOT
ATOM      1  C   UNL     1       2.462   4.212  20.372  0.00  0.00    +0.000 C 
ATOM      2  C   UNL     1       2.757   3.629  19.194  0.00  0.00    +0.000 C 
ATOM      3  C   UNL     1       2.326   2.230  18.806  0.00  0.00    +0.000 C 
ATOM      4  C   UNL     1       2.501   1.871  17.339  0.00  0.00    +0.000 C 
ATOM      5  C   UNL     1       3.871   2.306  16.866  0.00  0.00    +0.000 C 
ATOM      6  C   UNL     1       3.977   3.823  16.892  0.00  0.00    +0.000 C 
ATOM      7  C   UNL     1       3.566   4.460  18.213  0.00  0.00    +0.000 C 
ATOM      8  N   UNL     1       3.874   5.723  18.396  0.00  0.00    +0.000 N 
ATOM      9  C   UNL     1       3.455   6.397  19.684  0.00  0.00    +0.000 C 
ATOM     10  N   UNL     1       2.927   5.476  20.653  0.00  0.00    +0.000 N 
ATOM     11  H   UNL     1       2.455   5.890  21.458  0.00  0.00    +0.000 HD
ENDROOT
BRANCH   9  12
ATOM     12  C   UNL     1       2.452   7.518  19.453  0.00  0.00    +0.000 A 
ATOM     13  C   UNL     1       1.663   8.044  20.500  0.00  0.00    +0.000 A 
ATOM     14  C   UNL     1       0.721   9.041  20.246  0.00  0.00    +0.000 A 
ATOM     15  C   UNL     1       0.560   9.539  18.955  0.00  0.00    +0.000 A 
ATOM     16  C   UNL     1       1.348   9.051  17.917  0.00  0.00    +0.000 A 
ATOM     17  C   UNL     1       2.291   8.052  18.163  0.00  0.00    +0.000 A 
ENDBRANCH   9  12
BRANCH   1  18
ATOM     18  S   UNL     1       1.493   3.433  21.609  0.00  0.00    +0.000 S 
ATOM     19  H   UNL     1       1.892   4.061  22.724  0.00  0.00    +0.000 HD
ENDBRANCH   1  18
BRANCH   8  20
ATOM     20  C   UNL     1       4.505   6.657  17.359  0.00  0.00    +0.000 C 
BRANCH  20  21
ATOM     21  C   UNL     1       6.023   6.478  17.179  0.00  0.00    +0.000 C 
ATOM     22  C   UNL     1       6.683   5.877  18.422  0.00  0.00    +0.000 C 
ATOM     23  C   UNL     1       7.962   6.657  18.632  0.00  0.00    +0.000 C 
ATOM     24  C   UNL     1       7.869   7.834  17.691  0.00  0.00    +0.000 C 
ATOM     25  O   UNL     1       6.640   7.745  16.956  0.00  0.00    +0.000 OA
ENDBRANCH  20  21
ENDBRANCH   8  20
TORSDOF 4
ENDMDL
MODEL 5
REMARK VINA RESULT:      -5.9      8.307     11.380
REMARK  Name = 
REMARK  4 active torsions:
REMARK  status: ('A' for Active; 'I' for Inactive)
REMARK    1  A    between atoms: S_1  and  C_2
REMARK    2  A    between atoms: N_9  and  C_10
REMARK    3  A    between atoms: C_10  and  C_11
REMARK    4  A    between atoms: C_16  and  C_17
REMARK                            x       y       z     vdW  Elec       q    Type
REMARK                         _______ _______ _______ _____ _____    ______ ____
ROOT
ATOM      1  C   UNL     1      -1.897  13.143  19.573  0.00  0.00    +0.000 C 
ATOM      2  C   UNL     1      -2.143  12.046  18.830  0.00  0.00    +0.000 C 
ATOM      3  C   UNL     1      -1.074  11.247  18.114  0.00  0.00    +0.000 C 
ATOM      4  C   UNL     1      -1.511   9.892  17.581  0.00  0.00    +0.000 C 
ATOM      5  C   UNL     1      -2.838  10.028  16.867  0.00  0.00    +0.000 C 
ATOM      6  C   UNL     1      -3.930  10.408  17.856  0.00  0.00    +0.000 C 
ATOM      7  C   UNL     1      -3.593  11.606  18.734  0.00  0.00    +0.000 C 
ATOM      8  N   UNL     1      -4.574  12.146  19.420  0.00  0.00    +0.000 N 
ATOM      9  C   UNL     1      -4.270  13.319  20.325  0.00  0.00    +0.000 C 
ATOM     10  N   UNL     1      -2.936  13.828  20.158  0.00  0.00    +0.000 N 
ATOM     11  H   UNL     1      -2.613  14.487  20.868  0.00  0.00    +0.000 HD
ENDROOT
BRANCH   9  12
ATOM     12  C   UNL     1      -4.508  12.997  21.794  0.00  0.00    +0.000 A 
ATOM     13  C   UNL     1      -5.759  13.204  22.414  0.00  0.00    +0.000 A 
ATOM     14  C   UNL     1      -5.931  12.940  23.772  0.00  0.00    +0.000 A 
ATOM     15  C   UNL     1      -4.868  12.452  24.530  0.00  0.00    +0.000 A 
ATOM     16  C   UNL     1      -3.635  12.216  23.929  0.00  0.00    +0.000 A 
ATOM     17  C   UNL     1      -3.456  12.481  22.570  0.00  0.00    +0.000 A 
ENDBRANCH   9  12
BRANCH   1  18
ATOM     18  S   UNL     1      -0.283  13.773  19.845  0.00  0.00    +0.000 S 
ATOM     19  H   UNL     1      -0.450  15.088  19.646  0.00  0.00    +0.000 HD
ENDBRANCH   1  18
BRANCH   8  20
ATOM     20  C   UNL     1      -6.007  11.615  19.516  0.00  0.00    +0.000 C 
BRANCH  20  21
ATOM     21  C   UNL     1      -7.027  12.369  18.645  0.00  0.00    +0.000 C 
ATOM     22  C   UNL     1      -6.369  13.032  17.432  0.00  0.00    +0.000 C 
ATOM     23  C   UNL     1      -6.988  14.407  17.323  0.00  0.00    +0.000 C 
ATOM     24  C   UNL     1      -7.762  14.597  18.604  0.00  0.00    +0.000 C 
ATOM     25  O   UNL     1      -7.639  13.412  19.403  0.00  0.00    +0.000 OA
ENDBRANCH  20  21
ENDBRANCH   8  20
TORSDOF 4
ENDMDL
MODEL 6
REMARK VINA RESULT:      -5.9      1.577      2.035
REMARK  Name = 
REMARK  4 active torsions:
REMARK  status: ('A' for Active; 'I' for Inactive)
REMARK    1  A    between atoms: S_1  and  C_2
REMARK    2  A    between atoms: N_9  and  C_10
REMARK    3  A    between atoms: C_10  and  C_11
REMARK    4  A    between atoms: C_16  and  C_17
REMARK                            x       y       z     vdW  Elec       q    Type
REMARK                         _______ _______ _______ _____ _____    ______ ____
ROOT
ATOM      1  C   UNL     1       5.068   4.424  15.686  0.00  0.00    +0.000 C 
ATOM      2  C   UNL     1       4.222   3.917  16.604  0.00  0.00    +0.000 C 
ATOM      3  C   UNL     1       3.854   2.452  16.703  0.00  0.00    +0.000 C 
ATOM      4  C   UNL     1       3.127   2.041  17.974  0.00  0.00    +0.000 C 
ATOM      5  C   UNL     1       2.024   3.032  18.275  0.00  0.00    +0.000 C 
ATOM      6  C   UNL     1       2.618   4.391  18.611  0.00  0.00    +0.000 C 
ATOM      7  C   UNL     1       3.627   4.905  17.592  0.00  0.00    +0.000 C 
ATOM      8  N   UNL     1       3.982   6.166  17.677  0.00  0.00    +0.000 N 
ATOM      9  C   UNL     1       5.005   6.704  16.701  0.00  0.00    +0.000 C 
ATOM     10  N   UNL     1       5.318   5.776  15.648  0.00  0.00    +0.000 N 
ATOM     11  H   UNL     1       6.132   6.003  15.075  0.00  0.00    +0.000 HD
ENDROOT
BRANCH   9  12
ATOM     12  C   UNL     1       6.291   7.140  17.388  0.00  0.00    +0.000 A 
ATOM     13  C   UNL     1       7.039   6.265  18.205  0.00  0.00    +0.000 A 
ATOM     14  C   UNL     1       8.189   6.710  18.855  0.00  0.00    +0.000 A 
ATOM     15  C   UNL     1       8.621   8.024  18.693  0.00  0.00    +0.000 A 
ATOM     16  C   UNL     1       7.911   8.893  17.871  0.00  0.00    +0.000 A 
ATOM     17  C   UNL     1       6.757   8.455  17.218  0.00  0.00    +0.000 A 
ENDBRANCH   9  12
BRANCH   1  18
ATOM     18  S   UNL     1       5.895   3.434  14.497  0.00  0.00    +0.000 S 
ATOM     19  H   UNL     1       6.502   2.515  15.261  0.00  0.00    +0.000 HD
ENDBRANCH   1  18
BRANCH   8  20
ATOM     20  C   UNL     1       3.568   7.148  18.778  0.00  0.00    +0.000 C 
BRANCH  20  21
ATOM     21  C   UNL     1       2.168   7.758  18.596  0.00  0.00    +0.000 C 
ATOM     22  C   UNL     1       2.192   8.993  17.691  0.00  0.00    +0.000 C 
ATOM     23  C   UNL     1       1.292  10.011  18.353  0.00  0.00    +0.000 C 
ATOM     24  C   UNL     1       0.999   9.452  19.724  0.00  0.00    +0.000 C 
ATOM     25  O   UNL     1       1.653   8.182  19.858  0.00  0.00    +0.000 OA
ENDBRANCH  20  21
ENDBRANCH   8  20
TORSDOF 4
ENDMDL
MODEL 7
REMARK VINA RESULT:      -5.9      1.558      2.235
REMARK  Name = 
REMARK  4 active torsions:
REMARK  status: ('A' for Active; 'I' for Inactive)
REMARK    1  A    between atoms: S_1  and  C_2
REMARK    2  A    between atoms: N_9  and  C_10
REMARK    3  A    between atoms: C_10  and  C_11
REMARK    4  A    between atoms: C_16  and  C_17
REMARK                            x       y       z     vdW  Elec       q    Type
REMARK                         _______ _______ _______ _____ _____    ______ ____
ROOT
ATOM      1  C   UNL     1       5.050   4.445  15.719  0.00  0.00    +0.000 C 
ATOM      2  C   UNL     1       4.222   3.906  16.635  0.00  0.00    +0.000 C 
ATOM      3  C   UNL     1       3.886   2.432  16.714  0.00  0.00    +0.000 C 
ATOM      4  C   UNL     1       3.176   1.986  17.983  0.00  0.00    +0.000 C 
ATOM      5  C   UNL     1       2.054   2.948  18.306  0.00  0.00    +0.000 C 
ATOM      6  C   UNL     1       2.621   4.315  18.658  0.00  0.00    +0.000 C 
ATOM      7  C   UNL     1       3.612   4.866  17.641  0.00  0.00    +0.000 C 
ATOM      8  N   UNL     1       3.939   6.133  17.743  0.00  0.00    +0.000 N 
ATOM      9  C   UNL     1       4.944   6.707  16.768  0.00  0.00    +0.000 C 
ATOM     10  N   UNL     1       5.270   5.802  15.700  0.00  0.00    +0.000 N 
ATOM     11  H   UNL     1       6.075   6.055  15.125  0.00  0.00    +0.000 HD
ENDROOT
BRANCH   9  12
ATOM     12  C   UNL     1       6.224   7.162  17.453  0.00  0.00    +0.000 A 
ATOM     13  C   UNL     1       6.738   8.468  17.291  0.00  0.00    +0.000 A 
ATOM     14  C   UNL     1       7.937   8.839  17.898  0.00  0.00    +0.000 A 
ATOM     15  C   UNL     1       8.636   7.925  18.685  0.00  0.00    +0.000 A 
ATOM     16  C   UNL     1       8.130   6.643  18.877  0.00  0.00    +0.000 A 
ATOM     17  C   UNL     1       6.931   6.264  18.272  0.00  0.00    +0.000 A 
ENDBRANCH   9  12
BRANCH   1  18
ATOM     18  S   UNL     1       5.890   3.491  14.510  0.00  0.00    +0.000 S 
ATOM     19  H   UNL     1       6.624   4.416  13.874  0.00  0.00    +0.000 HD
ENDBRANCH   1  18
BRANCH   8  20
ATOM     20  C   UNL     1       3.511   7.089  18.860  0.00  0.00    +0.000 C 
BRANCH  20  21
ATOM     21  C   UNL     1       2.119   7.715  18.667  0.00  0.00    +0.000 C 
ATOM     22  C   UNL     1       2.152   8.908  17.709  0.00  0.00    +0.000 C 
ATOM     23  C   UNL     1       1.276   9.969  18.336  0.00  0.00    +0.000 C 
ATOM     24  C   UNL     1       0.992   9.476  19.733  0.00  0.00    +0.000 C 
ATOM     25  O   UNL     1       1.626   8.202  19.915  0.00  0.00    +0.000 OA
ENDBRANCH  20  21
ENDBRANCH   8  20
TORSDOF 4
ENDMDL
MODEL 8
REMARK VINA RESULT:      -5.8      8.388     11.367
REMARK  Name = 
REMARK  4 active torsions:
REMARK  status: ('A' for Active; 'I' for Inactive)
REMARK    1  A    between atoms: S_1  and  C_2
REMARK    2  A    between atoms: N_9  and  C_10
REMARK    3  A    between atoms: C_10  and  C_11
REMARK    4  A    between atoms: C_16  and  C_17
REMARK                            x       y       z     vdW  Elec       q    Type
REMARK                         _______ _______ _______ _____ _____    ______ ____
ROOT
ATOM      1  C   UNL     1      -1.810  13.077  19.643  0.00  0.00    +0.000 C 
ATOM      2  C   UNL     1      -2.163  12.029  18.874  0.00  0.00    +0.000 C 
ATOM      3  C   UNL     1      -1.180  11.160  18.118  0.00  0.00    +0.000 C 
ATOM      4  C   UNL     1      -1.745   9.865  17.555  0.00  0.00    +0.000 C 
ATOM      5  C   UNL     1      -3.064  10.140  16.867  0.00  0.00    +0.000 C 
ATOM      6  C   UNL     1      -4.103  10.586  17.884  0.00  0.00    +0.000 C 
ATOM      7  C   UNL     1      -3.649  11.723  18.790  0.00  0.00    +0.000 C 
ATOM      8  N   UNL     1      -4.567  12.327  19.507  0.00  0.00    +0.000 N 
ATOM      9  C   UNL     1      -4.147  13.441  20.440  0.00  0.00    +0.000 C 
ATOM     10  N   UNL     1      -2.776  13.834  20.265  0.00  0.00    +0.000 N 
ATOM     11  H   UNL     1      -2.385  14.440  20.987  0.00  0.00    +0.000 HD
ENDROOT
BRANCH   9  12
ATOM     12  C   UNL     1      -4.392  13.098  21.902  0.00  0.00    +0.000 A 
ATOM     13  C   UNL     1      -3.389  12.524  22.715  0.00  0.00    +0.000 A 
ATOM     14  C   UNL     1      -3.660  12.181  24.040  0.00  0.00    +0.000 A 
ATOM     15  C   UNL     1      -4.922  12.414  24.580  0.00  0.00    +0.000 A 
ATOM     16  C   UNL     1      -5.914  13.003  23.801  0.00  0.00    +0.000 A 
ATOM     17  C   UNL     1      -5.651  13.348  22.474  0.00  0.00    +0.000 A 
ENDBRANCH   9  12
BRANCH   1  18
ATOM     18  S   UNL     1      -0.142  13.552  19.906  0.00  0.00    +0.000 S 
ATOM     19  H   UNL     1       0.274  12.651  20.807  0.00  0.00    +0.000 HD
ENDBRANCH   1  18
BRANCH   8  20
ATOM     20  C   UNL     1      -6.040  11.923  19.612  0.00  0.00    +0.000 C 
BRANCH  20  21
ATOM     21  C   UNL     1      -7.007  12.822  18.822  0.00  0.00    +0.000 C 
ATOM     22  C   UNL     1      -6.762  12.743  17.312  0.00  0.00    +0.000 C 
ATOM     23  C   UNL     1      -6.847  14.163  16.802  0.00  0.00    +0.000 C 
ATOM     24  C   UNL     1      -6.864  15.030  18.038  0.00  0.00    +0.000 C 
ATOM     25  O   UNL     1      -6.822  14.187  19.198  0.00  0.00    +0.000 OA
ENDBRANCH  20  21
ENDBRANCH   8  20
TORSDOF 4
ENDMDL
MODEL 9
REMARK VINA RESULT:      -5.8      2.146      5.160
REMARK  Name = 
REMARK  4 active torsions:
REMARK  status: ('A' for Active; 'I' for Inactive)
REMARK    1  A    between atoms: S_1  and  C_2
REMARK    2  A    between atoms: N_9  and  C_10
REMARK    3  A    between atoms: C_10  and  C_11
REMARK    4  A    between atoms: C_16  and  C_17
REMARK                            x       y       z     vdW  Elec       q    Type
REMARK                         _______ _______ _______ _____ _____    ______ ____
ROOT
ATOM      1  C   UNL     1       2.418   4.249  20.449  0.00  0.00    +0.000 C 
ATOM      2  C   UNL     1       2.697   3.642  19.279  0.00  0.00    +0.000 C 
ATOM      3  C   UNL     1       2.268   2.233  18.929  0.00  0.00    +0.000 C 
ATOM      4  C   UNL     1       2.421   1.843  17.467  0.00  0.00    +0.000 C 
ATOM      5  C   UNL     1       3.780   2.275  16.963  0.00  0.00    +0.000 C 
ATOM      6  C   UNL     1       3.878   3.793  16.954  0.00  0.00    +0.000 C 
ATOM      7  C   UNL     1       3.485   4.456  18.267  0.00  0.00    +0.000 C 
ATOM      8  N   UNL     1       3.788   5.724  18.418  0.00  0.00    +0.000 N 
ATOM      9  C   UNL     1       3.386   6.424  19.697  0.00  0.00    +0.000 C 
ATOM     10  N   UNL     1       2.879   5.521  20.695  0.00  0.00    +0.000 N 
ATOM     11  H   UNL     1       2.419   5.950  21.499  0.00  0.00    +0.000 HD
ENDROOT
BRANCH   9  12
ATOM     12  C   UNL     1       2.372   7.534  19.460  0.00  0.00    +0.000 A 
ATOM     13  C   UNL     1       2.161   8.094  18.181  0.00  0.00    +0.000 A 
ATOM     14  C   UNL     1       1.256   9.141  18.005  0.00  0.00    +0.000 A 
ATOM     15  C   UNL     1       0.539   9.636  19.092  0.00  0.00    +0.000 A 
ATOM     16  C   UNL     1       0.715   9.077  20.354  0.00  0.00    +0.000 A 
ATOM     17  C   UNL     1       1.620   8.030  20.538  0.00  0.00    +0.000 A 
ENDBRANCH   9  12
BRANCH   1  18
ATOM     18  S   UNL     1       1.474   3.492  21.719  0.00  0.00    +0.000 S 
ATOM     19  H   UNL     1       1.945   2.237  21.717  0.00  0.00    +0.000 HD
ENDBRANCH   1  18
BRANCH   8  20
ATOM     20  C   UNL     1       4.396   6.639  17.351  0.00  0.00    +0.000 C 
BRANCH  20  21
ATOM     21  C   UNL     1       5.923   6.519  17.202  0.00  0.00    +0.000 C 
ATOM     22  C   UNL     1       6.319   5.712  15.963  0.00  0.00    +0.000 C 
ATOM     23  C   UNL     1       7.444   4.803  16.401  0.00  0.00    +0.000 C 
ATOM     24  C   UNL     1       7.480   4.911  17.906  0.00  0.00    +0.000 C 
ATOM     25  O   UNL     1       6.471   5.838  18.330  0.00  0.00    +0.000 OA
ENDBRANCH  20  21
ENDBRANCH   8  20
TORSDOF 4
ENDMDL
