MODEL 1
REMARK VINA RESULT:      -7.3      0.000      0.000
REMARK  Name = 
REMARK  6 active torsions:
REMARK  status: ('A' for Active; 'I' for Inactive)
REMARK    1  A    between atoms: C_1  and  C_2
REMARK    2  A    between atoms: C_2  and  C_3
REMARK    3  A    between atoms: C_2  and  C_4
REMARK    4  A    between atoms: C_13  and  O_14
REMARK    5  A    between atoms: C_18  and  C_19
REMARK    6  A    between atoms: C_18  and  C_20
REMARK                            x       y       z     vdW  Elec       q    Type
REMARK                         _______ _______ _______ _____ _____    ______ ____
ROOT
ATOM      1  C   UNL     1       2.723   6.119  18.816  0.00  0.00    +0.000 A 
ATOM      2  C   UNL     1       2.440   7.288  18.092  0.00  0.00    +0.000 A 
ATOM      3  C   UNL     1       1.819   8.402  18.689  0.00  0.00    +0.000 A 
ATOM      4  C   UNL     1       1.580   9.553  17.938  0.00  0.00    +0.000 A 
ATOM      5  C   UNL     1       1.017  10.686  18.525  0.00  0.00    +0.000 A 
ATOM      6  C   UNL     1       0.644  10.709  19.880  0.00  0.00    +0.000 A 
ATOM      7  C   UNL     1       0.826   9.533  20.638  0.00  0.00    +0.000 A 
ATOM      8  C   UNL     1       1.444   8.376  20.052  0.00  0.00    +0.000 A 
ATOM      9  C   UNL     1       1.737   7.192  20.767  0.00  0.00    +0.000 A 
ATOM     10  C   UNL     1       2.351   6.093  20.160  0.00  0.00    +0.000 A 
ATOM     11  C   UNL     1       0.477   9.521  22.106  0.00  0.00    +0.000 C 
ATOM     12  C   UNL     1      -0.535  10.544  22.587  0.00  0.00    +0.000 C 
ATOM     13  C   UNL     1      -0.666  11.836  21.802  0.00  0.00    +0.000 C 
ATOM     14  C   UNL     1       0.200  12.020  20.534  0.00  0.00    +0.000 C 
ATOM     15  C   UNL     1       1.478  12.807  20.907  0.00  0.00    +0.000 C 
ATOM     16  C   UNL     1      -0.635  12.905  19.571  0.00  0.00    +0.000 C 
ENDROOT
BRANCH   1  18
ATOM     17  C   UNL     1       2.230   3.986  17.626  0.00  0.00    +0.000 C 
ATOM     18  C   UNL     1       3.340   4.892  18.167  0.00  0.00    +0.000 C 
ATOM     19  C   UNL     1       4.362   5.197  17.062  0.00  0.00    +0.000 C 
ENDBRANCH   1  18
BRANCH  10  20
ATOM     20  O   UNL     1       2.584   4.961  20.891  0.00  0.00    +0.000 OA
ATOM     21  H   UNL     1       2.410   4.183  20.336  0.00  0.00    +0.000 HD
ENDBRANCH  10  20
TORSDOF 2
ENDMDL
MODEL 2
REMARK VINA RESULT:      -7.3      1.654      6.459
REMARK  Name = 
REMARK  6 active torsions:
REMARK  status: ('A' for Active; 'I' for Inactive)
REMARK    1  A    between atoms: C_1  and  C_2
REMARK    2  A    between atoms: C_2  and  C_3
REMARK    3  A    between atoms: C_2  and  C_4
REMARK    4  A    between atoms: C_13  and  O_14
REMARK    5  A    between atoms: C_18  and  C_19
REMARK    6  A    between atoms: C_18  and  C_20
REMARK                            x       y       z     vdW  Elec       q    Type
REMARK                         _______ _______ _______ _____ _____    ______ ____
ROOT
ATOM      1  C   UNL     1       0.701   9.800  20.329  0.00  0.00    +0.000 A 
ATOM      2  C   UNL     1       1.489   9.466  19.216  0.00  0.00    +0.000 A 
ATOM      3  C   UNL     1       2.031   8.177  19.047  0.00  0.00    +0.000 A 
ATOM      4  C   UNL     1       2.787   7.882  17.912  0.00  0.00    +0.000 A 
ATOM      5  C   UNL     1       3.285   6.596  17.699  0.00  0.00    +0.000 A 
ATOM      6  C   UNL     1       3.073   5.558  18.624  0.00  0.00    +0.000 A 
ATOM      7  C   UNL     1       2.360   5.857  19.804  0.00  0.00    +0.000 A 
ATOM      8  C   UNL     1       1.807   7.167  20.010  0.00  0.00    +0.000 A 
ATOM      9  C   UNL     1       1.011   7.519  21.124  0.00  0.00    +0.000 A 
ATOM     10  C   UNL     1       0.483   8.804  21.280  0.00  0.00    +0.000 A 
ATOM     11  C   UNL     1       2.073   4.767  20.807  0.00  0.00    +0.000 C 
ATOM     12  C   UNL     1       2.991   3.559  20.801  0.00  0.00    +0.000 C 
ATOM     13  C   UNL     1       3.694   3.208  19.503  0.00  0.00    +0.000 C 
ATOM     14  C   UNL     1       3.475   4.122  18.275  0.00  0.00    +0.000 C 
ATOM     15  C   UNL     1       2.350   3.527  17.397  0.00  0.00    +0.000 C 
ATOM     16  C   UNL     1       4.793   4.063  17.457  0.00  0.00    +0.000 C 
ENDROOT
BRANCH   1  18
ATOM     17  C   UNL     1       1.257  12.227  20.241  0.00  0.00    +0.000 C 
ATOM     18  C   UNL     1       0.161  11.203  20.548  0.00  0.00    +0.000 C 
ATOM     19  C   UNL     1      -1.111  11.531  19.753  0.00  0.00    +0.000 C 
ENDBRANCH   1  18
BRANCH  10  20
ATOM     20  O   UNL     1      -0.257   9.099  22.392  0.00  0.00    +0.000 OA
ATOM     21  H   UNL     1       0.090   8.595  23.146  0.00  0.00    +0.000 HD
ENDBRANCH  10  20
TORSDOF 2
ENDMDL
MODEL 3
REMARK VINA RESULT:      -7.2      2.034      7.026
REMARK  Name = 
REMARK  6 active torsions:
REMARK  status: ('A' for Active; 'I' for Inactive)
REMARK    1  A    between atoms: C_1  and  C_2
REMARK    2  A    between atoms: C_2  and  C_3
REMARK    3  A    between atoms: C_2  and  C_4
REMARK    4  A    between atoms: C_13  and  O_14
REMARK    5  A    between atoms: C_18  and  C_19
REMARK    6  A    between atoms: C_18  and  C_20
REMARK                            x       y       z     vdW  Elec       q    Type
REMARK                         _______ _______ _______ _____ _____    ______ ____
ROOT
ATOM      1  C   UNL     1       1.218   9.602  19.401  0.00  0.00    +0.000 A 
ATOM      2  C   UNL     1       1.248   8.366  20.065  0.00  0.00    +0.000 A 
ATOM      3  C   UNL     1       2.014   7.283  19.590  0.00  0.00    +0.000 A 
ATOM      4  C   UNL     1       2.033   6.080  20.296  0.00  0.00    +0.000 A 
ATOM      5  C   UNL     1       2.829   5.016  19.873  0.00  0.00    +0.000 A 
ATOM      6  C   UNL     1       3.617   5.097  18.712  0.00  0.00    +0.000 A 
ATOM      7  C   UNL     1       3.562   6.287  17.955  0.00  0.00    +0.000 A 
ATOM      8  C   UNL     1       2.779   7.403  18.408  0.00  0.00    +0.000 A 
ATOM      9  C   UNL     1       2.739   8.655  17.752  0.00  0.00    +0.000 A 
ATOM     10  C   UNL     1       1.972   9.719  18.233  0.00  0.00    +0.000 A 
ATOM     11  C   UNL     1       4.420   6.437  16.723  0.00  0.00    +0.000 C 
ATOM     12  C   UNL     1       4.879   5.163  16.038  0.00  0.00    +0.000 C 
ATOM     13  C   UNL     1       5.003   3.909  16.883  0.00  0.00    +0.000 C 
ATOM     14  C   UNL     1       4.613   3.983  18.377  0.00  0.00    +0.000 C 
ATOM     15  C   UNL     1       5.886   4.232  19.219  0.00  0.00    +0.000 C 
ATOM     16  C   UNL     1       4.069   2.578  18.748  0.00  0.00    +0.000 C 
ENDROOT
BRANCH   1  18
ATOM     17  C   UNL     1      -1.044  10.636  19.252  0.00  0.00    +0.000 C 
ATOM     18  C   UNL     1       0.350  10.756  19.874  0.00  0.00    +0.000 C 
ATOM     19  C   UNL     1       0.243  10.893  21.399  0.00  0.00    +0.000 C 
ENDBRANCH   1  18
BRANCH  10  20
ATOM     20  O   UNL     1       1.946  10.900  17.543  0.00  0.00    +0.000 OA
ATOM     21  H   UNL     1       2.643  10.886  16.866  0.00  0.00    +0.000 HD
ENDBRANCH  10  20
TORSDOF 2
ENDMDL
MODEL 4
REMARK VINA RESULT:      -7.2      1.647      3.294
REMARK  Name = 
REMARK  6 active torsions:
REMARK  status: ('A' for Active; 'I' for Inactive)
REMARK    1  A    between atoms: C_1  and  C_2
REMARK    2  A    between atoms: C_2  and  C_3
REMARK    3  A    between atoms: C_2  and  C_4
REMARK    4  A    between atoms: C_13  and  O_14
REMARK    5  A    between atoms: C_18  and  C_19
REMARK    6  A    between atoms: C_18  and  C_20
REMARK                            x       y       z     vdW  Elec       q    Type
REMARK                         _______ _______ _______ _____ _____    ______ ____
ROOT
ATOM      1  C   UNL     1       3.417   4.525  18.675  0.00  0.00    +0.000 A 
ATOM      2  C   UNL     1       2.688   4.999  19.777  0.00  0.00    +0.000 A 
ATOM      3  C   UNL     1       2.224   6.327  19.848  0.00  0.00    +0.000 A 
ATOM      4  C   UNL     1       1.481   6.748  20.951  0.00  0.00    +0.000 A 
ATOM      5  C   UNL     1       0.966   8.042  21.015  0.00  0.00    +0.000 A 
ATOM      6  C   UNL     1       1.195   8.981  19.993  0.00  0.00    +0.000 A 
ATOM      7  C   UNL     1       1.994   8.587  18.899  0.00  0.00    +0.000 A 
ATOM      8  C   UNL     1       2.492   7.242  18.805  0.00  0.00    +0.000 A 
ATOM      9  C   UNL     1       3.227   6.750  17.703  0.00  0.00    +0.000 A 
ATOM     10  C   UNL     1       3.683   5.430  17.647  0.00  0.00    +0.000 A 
ATOM     11  C   UNL     1       2.236   9.546  17.759  0.00  0.00    +0.000 C 
ATOM     12  C   UNL     1       2.090  11.027  18.054  0.00  0.00    +0.000 C 
ATOM     13  C   UNL     1       1.169  11.436  19.188  0.00  0.00    +0.000 C 
ATOM     14  C   UNL     1       0.468  10.328  20.007  0.00  0.00    +0.000 C 
ATOM     15  C   UNL     1      -0.949  10.095  19.431  0.00  0.00    +0.000 C 
ATOM     16  C   UNL     1       0.306  10.894  21.443  0.00  0.00    +0.000 C 
ENDROOT
BRANCH   1  18
ATOM     17  C   UNL     1       4.323   2.640  20.029  0.00  0.00    +0.000 C 
ATOM     18  C   UNL     1       3.970   3.111  18.615  0.00  0.00    +0.000 C 
ATOM     19  C   UNL     1       3.049   2.092  17.930  0.00  0.00    +0.000 C 
ENDBRANCH   1  18
BRANCH  10  20
ATOM     20  O   UNL     1       4.416   5.013  16.570  0.00  0.00    +0.000 OA
ATOM     21  H   UNL     1       5.307   5.395  16.626  0.00  0.00    +0.000 HD
ENDBRANCH  10  20
TORSDOF 2
ENDMDL
MODEL 5
REMARK VINA RESULT:      -7.2      1.886      6.351
REMARK  Name = 
REMARK  6 active torsions:
REMARK  status: ('A' for Active; 'I' for Inactive)
REMARK    1  A    between atoms: C_1  and  C_2
REMARK    2  A    between atoms: C_2  and  C_3
REMARK    3  A    between atoms: C_2  and  C_4
REMARK    4  A    between atoms: C_13  and  O_14
REMARK    5  A    between atoms: C_18  and  C_19
REMARK    6  A    between atoms: C_18  and  C_20
REMARK                            x       y       z     vdW  Elec       q    Type
REMARK                         _______ _______ _______ _____ _____    ______ ____
ROOT
ATOM      1  C   UNL     1       1.093  10.515  19.297  0.00  0.00    +0.000 A 
ATOM      2  C   UNL     1       1.901   9.886  18.337  0.00  0.00    +0.000 A 
ATOM      3  C   UNL     1       2.277   8.533  18.450  0.00  0.00    +0.000 A 
ATOM      4  C   UNL     1       3.060   7.942  17.458  0.00  0.00    +0.000 A 
ATOM      5  C   UNL     1       3.395   6.590  17.523  0.00  0.00    +0.000 A 
ATOM      6  C   UNL     1       2.986   5.777  18.595  0.00  0.00    +0.000 A 
ATOM      7  C   UNL     1       2.243   6.375  19.634  0.00  0.00    +0.000 A 
ATOM      8  C   UNL     1       1.857   7.757  19.554  0.00  0.00    +0.000 A 
ATOM      9  C   UNL     1       1.042   8.404  20.511  0.00  0.00    +0.000 A 
ATOM     10  C   UNL     1       0.681   9.749  20.387  0.00  0.00    +0.000 A 
ATOM     11  C   UNL     1       1.747   5.535  20.786  0.00  0.00    +0.000 C 
ATOM     12  C   UNL     1       2.494   4.247  21.078  0.00  0.00    +0.000 C 
ATOM     13  C   UNL     1       3.229   3.578  19.931  0.00  0.00    +0.000 C 
ATOM     14  C   UNL     1       3.216   4.264  18.545  0.00  0.00    +0.000 C 
ATOM     15  C   UNL     1       2.081   3.652  17.691  0.00  0.00    +0.000 C 
ATOM     16  C   UNL     1       4.565   3.896  17.872  0.00  0.00    +0.000 C 
ENDROOT
BRANCH   1  18
ATOM     17  C   UNL     1       1.877  12.760  18.555  0.00  0.00    +0.000 C 
ATOM     18  C   UNL     1       0.731  11.988  19.214  0.00  0.00    +0.000 C 
ATOM     19  C   UNL     1      -0.592  12.283  18.493  0.00  0.00    +0.000 C 
ENDBRANCH   1  18
BRANCH  10  20
ATOM     20  O   UNL     1      -0.084  10.334  21.358  0.00  0.00    +0.000 OA
ATOM     21  H   UNL     1      -0.991   9.990  21.297  0.00  0.00    +0.000 HD
ENDBRANCH  10  20
TORSDOF 2
ENDMDL
MODEL 6
REMARK VINA RESULT:      -7.1      1.361      1.912
REMARK  Name = 
REMARK  6 active torsions:
REMARK  status: ('A' for Active; 'I' for Inactive)
REMARK    1  A    between atoms: C_1  and  C_2
REMARK    2  A    between atoms: C_2  and  C_3
REMARK    3  A    between atoms: C_2  and  C_4
REMARK    4  A    between atoms: C_13  and  O_14
REMARK    5  A    between atoms: C_18  and  C_19
REMARK    6  A    between atoms: C_18  and  C_20
REMARK                            x       y       z     vdW  Elec       q    Type
REMARK                         _______ _______ _______ _____ _____    ______ ____
ROOT
ATOM      1  C   UNL     1       4.316   5.468  18.098  0.00  0.00    +0.000 A 
ATOM      2  C   UNL     1       3.895   6.649  17.469  0.00  0.00    +0.000 A 
ATOM      3  C   UNL     1       2.973   7.527  18.072  0.00  0.00    +0.000 A 
ATOM      4  C   UNL     1       2.602   8.704  17.420  0.00  0.00    +0.000 A 
ATOM      5  C   UNL     1       1.733   9.612  18.025  0.00  0.00    +0.000 A 
ATOM      6  C   UNL     1       1.176   9.371  19.294  0.00  0.00    +0.000 A 
ATOM      7  C   UNL     1       1.497   8.158  19.939  0.00  0.00    +0.000 A 
ATOM      8  C   UNL     1       2.424   7.237  19.342  0.00  0.00    +0.000 A 
ATOM      9  C   UNL     1       2.860   6.044  19.963  0.00  0.00    +0.000 A 
ATOM     10  C   UNL     1       3.773   5.181  19.350  0.00  0.00    +0.000 A 
ATOM     11  C   UNL     1       0.955   7.872  21.318  0.00  0.00    +0.000 C 
ATOM     12  C   UNL     1      -0.309   8.601  21.732  0.00  0.00    +0.000 C 
ATOM     13  C   UNL     1      -0.601   9.940  21.082  0.00  0.00    +0.000 C 
ATOM     14  C   UNL     1       0.375  10.466  20.003  0.00  0.00    +0.000 C 
ATOM     15  C   UNL     1       1.390  11.426  20.667  0.00  0.00    +0.000 C 
ATOM     16  C   UNL     1      -0.486  11.298  19.016  0.00  0.00    +0.000 C 
ENDROOT
BRANCH   1  18
ATOM     17  C   UNL     1       5.007   4.470  15.922  0.00  0.00    +0.000 C 
ATOM     18  C   UNL     1       5.266   4.487  17.431  0.00  0.00    +0.000 C 
ATOM     19  C   UNL     1       6.754   4.745  17.712  0.00  0.00    +0.000 C 
ENDBRANCH   1  18
BRANCH  10  20
ATOM     20  O   UNL     1       4.138   4.025  19.983  0.00  0.00    +0.000 OA
ATOM     21  H   UNL     1       4.156   4.180  20.942  0.00  0.00    +0.000 HD
ENDBRANCH  10  20
TORSDOF 2
ENDMDL
MODEL 7
REMARK VINA RESULT:      -7.1      1.001      1.212
REMARK  Name = 
REMARK  6 active torsions:
REMARK  status: ('A' for Active; 'I' for Inactive)
REMARK    1  A    between atoms: C_1  and  C_2
REMARK    2  A    between atoms: C_2  and  C_3
REMARK    3  A    between atoms: C_2  and  C_4
REMARK    4  A    between atoms: C_13  and  O_14
REMARK    5  A    between atoms: C_18  and  C_19
REMARK    6  A    between atoms: C_18  and  C_20
REMARK                            x       y       z     vdW  Elec       q    Type
REMARK                         _______ _______ _______ _____ _____    ______ ____
ROOT
ATOM      1  C   UNL     1       2.369   7.156  19.177  0.00  0.00    +0.000 A 
ATOM      2  C   UNL     1       1.986   8.336  18.520  0.00  0.00    +0.000 A 
ATOM      3  C   UNL     1       1.241   9.341  19.169  0.00  0.00    +0.000 A 
ATOM      4  C   UNL     1       0.904  10.509  18.485  0.00  0.00    +0.000 A 
ATOM      5  C   UNL     1       0.216  11.539  19.126  0.00  0.00    +0.000 A 
ATOM      6  C   UNL     1      -0.189  11.435  20.469  0.00  0.00    +0.000 A 
ATOM      7  C   UNL     1       0.095  10.236  21.156  0.00  0.00    +0.000 A 
ATOM      8  C   UNL     1       0.841   9.187  20.516  0.00  0.00    +0.000 A 
ATOM      9  C   UNL     1       1.236   7.995  21.163  0.00  0.00    +0.000 A 
ATOM     10  C   UNL     1       1.972   7.004  20.505  0.00  0.00    +0.000 A 
ATOM     11  C   UNL     1      -0.284  10.092  22.609  0.00  0.00    +0.000 C 
ATOM     12  C   UNL     1      -1.405  10.975  23.125  0.00  0.00    +0.000 C 
ATOM     13  C   UNL     1      -1.649  12.296  22.420  0.00  0.00    +0.000 C 
ATOM     14  C   UNL     1      -0.778  12.649  21.192  0.00  0.00    +0.000 C 
ATOM     15  C   UNL     1       0.405  13.534  21.651  0.00  0.00    +0.000 C 
ATOM     16  C   UNL     1      -1.677  13.508  20.262  0.00  0.00    +0.000 C 
ENDROOT
BRANCH   1  18
ATOM     17  C   UNL     1       2.123   5.077  17.827  0.00  0.00    +0.000 C 
ATOM     18  C   UNL     1       3.122   6.042  18.469  0.00  0.00    +0.000 C 
ATOM     19  C   UNL     1       4.144   6.521  17.427  0.00  0.00    +0.000 C 
ENDBRANCH   1  18
BRANCH  10  20
ATOM     20  O   UNL     1       2.303   5.856  21.170  0.00  0.00    +0.000 OA
ATOM     21  H   UNL     1       1.857   5.849  22.033  0.00  0.00    +0.000 HD
ENDBRANCH  10  20
TORSDOF 2
ENDMDL
MODEL 8
REMARK VINA RESULT:      -7.0      4.248      6.761
REMARK  Name = 
REMARK  6 active torsions:
REMARK  status: ('A' for Active; 'I' for Inactive)
REMARK    1  A    between atoms: C_1  and  C_2
REMARK    2  A    between atoms: C_2  and  C_3
REMARK    3  A    between atoms: C_2  and  C_4
REMARK    4  A    between atoms: C_13  and  O_14
REMARK    5  A    between atoms: C_18  and  C_19
REMARK    6  A    between atoms: C_18  and  C_20
REMARK                            x       y       z     vdW  Elec       q    Type
REMARK                         _______ _______ _______ _____ _____    ______ ____
ROOT
ATOM      1  C   UNL     1       5.531   4.819  15.110  0.00  0.00    +0.000 A 
ATOM      2  C   UNL     1       5.293   3.657  15.859  0.00  0.00    +0.000 A 
ATOM      3  C   UNL     1       4.525   3.677  17.041  0.00  0.00    +0.000 A 
ATOM      4  C   UNL     1       4.292   2.493  17.741  0.00  0.00    +0.000 A 
ATOM      5  C   UNL     1       3.489   2.482  18.881  0.00  0.00    +0.000 A 
ATOM      6  C   UNL     1       2.907   3.658  19.386  0.00  0.00    +0.000 A 
ATOM      7  C   UNL     1       3.181   4.872  18.722  0.00  0.00    +0.000 A 
ATOM      8  C   UNL     1       3.972   4.885  17.522  0.00  0.00    +0.000 A 
ATOM      9  C   UNL     1       4.220   6.046  16.755  0.00  0.00    +0.000 A 
ATOM     10  C   UNL     1       4.987   6.011  15.587  0.00  0.00    +0.000 A 
ATOM     11  C   UNL     1       2.548   6.154  19.203  0.00  0.00    +0.000 C 
ATOM     12  C   UNL     1       2.099   6.206  20.652  0.00  0.00    +0.000 C 
ATOM     13  C   UNL     1       1.738   4.898  21.330  0.00  0.00    +0.000 C 
ATOM     14  C   UNL     1       1.889   3.584  20.527  0.00  0.00    +0.000 C 
ATOM     15  C   UNL     1       0.522   3.214  19.905  0.00  0.00    +0.000 C 
ATOM     16  C   UNL     1       2.247   2.487  21.565  0.00  0.00    +0.000 C 
ENDROOT
BRANCH   1  18
ATOM     17  C   UNL     1       7.871   4.984  14.272  0.00  0.00    +0.000 C 
ATOM     18  C   UNL     1       6.405   4.818  13.867  0.00  0.00    +0.000 C 
ATOM     19  C   UNL     1       6.239   3.583  12.968  0.00  0.00    +0.000 C 
ENDBRANCH   1  18
BRANCH  10  20
ATOM     20  O   UNL     1       5.221   7.170  14.898  0.00  0.00    +0.000 OA
ATOM     21  H   UNL     1       4.780   7.905  15.356  0.00  0.00    +0.000 HD
ENDBRANCH  10  20
TORSDOF 2
ENDMDL
MODEL 9
REMARK VINA RESULT:      -7.0      1.609      3.157
REMARK  Name = 
REMARK  6 active torsions:
REMARK  status: ('A' for Active; 'I' for Inactive)
REMARK    1  A    between atoms: C_1  and  C_2
REMARK    2  A    between atoms: C_2  and  C_3
REMARK    3  A    between atoms: C_2  and  C_4
REMARK    4  A    between atoms: C_13  and  O_14
REMARK    5  A    between atoms: C_18  and  C_19
REMARK    6  A    between atoms: C_18  and  C_20
REMARK                            x       y       z     vdW  Elec       q    Type
REMARK                         _______ _______ _______ _____ _____    ______ ____
ROOT
ATOM      1  C   UNL     1       2.360   4.662  19.681  0.00  0.00    +0.000 A 
ATOM      2  C   UNL     1       1.701   5.446  20.641  0.00  0.00    +0.000 A 
ATOM      3  C   UNL     1       1.481   6.824  20.454  0.00  0.00    +0.000 A 
ATOM      4  C   UNL     1       0.799   7.560  21.424  0.00  0.00    +0.000 A 
ATOM      5  C   UNL     1       0.522   8.913  21.231  0.00  0.00    +0.000 A 
ATOM      6  C   UNL     1       0.938   9.597  20.075  0.00  0.00    +0.000 A 
ATOM      7  C   UNL     1       1.680   8.880  19.113  0.00  0.00    +0.000 A 
ATOM      8  C   UNL     1       1.932   7.475  19.283  0.00  0.00    +0.000 A 
ATOM      9  C   UNL     1       2.592   6.672  18.325  0.00  0.00    +0.000 A 
ATOM     10  C   UNL     1       2.806   5.306  18.527  0.00  0.00    +0.000 A 
ATOM     11  C   UNL     1       2.115   9.559  17.838  0.00  0.00    +0.000 C 
ATOM     12  C   UNL     1       2.229  11.072  17.861  0.00  0.00    +0.000 C 
ATOM     13  C   UNL     1       1.369  11.833  18.854  0.00  0.00    +0.000 C 
ATOM     14  C   UNL     1       0.463  11.028  19.814  0.00  0.00    +0.000 C 
ATOM     15  C   UNL     1      -0.959  10.941  19.211  0.00  0.00    +0.000 C 
ATOM     16  C   UNL     1       0.372  11.865  21.118  0.00  0.00    +0.000 C 
ENDROOT
BRANCH   1  18
ATOM     17  C   UNL     1       2.547   2.861  21.391  0.00  0.00    +0.000 C 
ATOM     18  C   UNL     1       2.652   3.187  19.899  0.00  0.00    +0.000 C 
ATOM     19  C   UNL     1       1.771   2.231  19.082  0.00  0.00    +0.000 C 
ENDBRANCH   1  18
BRANCH  10  20
ATOM     20  O   UNL     1       3.477   4.581  17.581  0.00  0.00    +0.000 OA
ATOM     21  H   UNL     1       4.240   5.095  17.269  0.00  0.00    +0.000 HD
ENDBRANCH  10  20
TORSDOF 2
ENDMDL
