MODEL 1
REMARK VINA RESULT:      -8.3      0.000      0.000
REMARK  Name = 
REMARK  11 active torsions:
REMARK  status: ('A' for Active; 'I' for Inactive)
REMARK    1  A    between atoms: C_1  and  N_2
REMARK    2  A    between atoms: N_2  and  C_3
REMARK    3  A    between atoms: C_3  and  C_4
REMARK    4  A    between atoms: C_10  and  C_11
REMARK    5  A    between atoms: C_14  and  C_15
REMARK    6  A    between atoms: C_15  and  C_16
REMARK    7  A    between atoms: C_22  and  O_23
REMARK    8  A    between atoms: O_23  and  C_24
REMARK    9  A    between atoms: C_24  and  C_25
REMARK   10  A    between atoms: C_25  and  C_26
REMARK   11  A    between atoms: C_25  and  C_27
REMARK                            x       y       z     vdW  Elec       q    Type
REMARK                         _______ _______ _______ _____ _____    ______ ____
ROOT
ATOM      1  C   UNL     1       1.724   8.522  19.342  0.00  0.00    +0.000 A 
ATOM      2  C   UNL     1       1.881   8.602  17.971  0.00  0.00    +0.000 A 
ATOM      3  C   UNL     1       2.807   7.637  17.636  0.00  0.00    +0.000 A 
ATOM      4  C   UNL     1       3.157   7.017  18.818  0.00  0.00    +0.000 A 
ATOM      5  O   UNL     1       2.495   7.565  19.821  0.00  0.00    +0.000 OA
ENDROOT
BRANCH   1  12
ATOM      6  C   UNL     1      -1.336  12.055  20.821  0.00  0.00    +0.000 A 
ATOM      7  C   UNL     1      -1.954  12.314  22.066  0.00  0.00    +0.000 A 
ATOM      8  C   UNL     1      -1.738  11.453  23.167  0.00  0.00    +0.000 A 
ATOM      9  C   UNL     1      -0.910  10.324  23.039  0.00  0.00    +0.000 A 
ATOM     10  C   UNL     1      -0.308  10.099  21.802  0.00  0.00    +0.000 A 
ATOM     11  N   UNL     1       0.516   9.092  21.455  0.00  0.00    +0.000 NA
ATOM     12  C   UNL     1       0.820   9.358  20.153  0.00  0.00    +0.000 A 
ATOM     13  N   UNL     1       0.206  10.476  19.692  0.00  0.00    +0.000 N 
ATOM     14  C   UNL     1      -0.502  10.931  20.741  0.00  0.00    +0.000 A 
ATOM     15  H   UNL     1       0.274  10.889  18.735  0.00  0.00    +0.000 HD
BRANCH   6  16
ATOM     16  C   UNL     1      -1.593  12.940  19.629  0.00  0.00    +0.000 C 
BRANCH  16  18
ATOM     17  C   UNL     1      -3.501  11.740  18.697  0.00  0.00    +0.000 C 
ATOM     18  N   UNL     1      -2.110  12.162  18.493  0.00  0.00    +0.000 NA
ATOM     19  H   UNL     1      -2.075  12.771  17.642  0.00  0.00    +0.000 HD
ENDBRANCH  16  18
ENDBRANCH   6  16
ENDBRANCH   1  12
BRANCH   4  20
ATOM     20  C   UNL     1       4.117   5.858  18.965  0.00  0.00    +0.000 C 
BRANCH  20  21
ATOM     21  C   UNL     1       3.406   4.521  18.963  0.00  0.00    +0.000 A 
ATOM     22  C   UNL     1       2.723   4.157  20.142  0.00  0.00    +0.000 A 
ATOM     23  C   UNL     1       2.019   2.958  20.228  0.00  0.00    +0.000 A 
ATOM     24 CL   UNL     1       1.177   2.536  21.707  0.00  0.00    +0.000 Cl
ATOM     25  C   UNL     1       1.979   2.100  19.137  0.00  0.00    +0.000 A 
ATOM     26  C   UNL     1       2.627   2.439  17.956  0.00  0.00    +0.000 A 
ATOM     27  C   UNL     1       3.350   3.652  17.829  0.00  0.00    +0.000 A 
BRANCH  27  28
ATOM     28  O   UNL     1       3.955   3.982  16.645  0.00  0.00    +0.000 OA
BRANCH  28  29
ATOM     29  C   UNL     1       5.265   3.615  16.328  0.00  0.00    +0.000 C 
BRANCH  29  30
ATOM     30  C   UNL     1       5.973   4.603  15.386  0.00  0.00    +0.000 C 
ATOM     31  C   UNL     1       5.986   4.016  13.958  0.00  0.00    +0.000 C 
ATOM     32  C   UNL     1       5.296   5.973  15.377  0.00  0.00    +0.000 C 
ENDBRANCH  29  30
ENDBRANCH  28  29
ENDBRANCH  27  28
ENDBRANCH  20  21
ENDBRANCH   4  20
TORSDOF 8
ENDMDL
MODEL 2
REMARK VINA RESULT:      -8.1      0.669      1.104
REMARK  Name = 
REMARK  11 active torsions:
REMARK  status: ('A' for Active; 'I' for Inactive)
REMARK    1  A    between atoms: C_1  and  N_2
REMARK    2  A    between atoms: N_2  and  C_3
REMARK    3  A    between atoms: C_3  and  C_4
REMARK    4  A    between atoms: C_10  and  C_11
REMARK    5  A    between atoms: C_14  and  C_15
REMARK    6  A    between atoms: C_15  and  C_16
REMARK    7  A    between atoms: C_22  and  O_23
REMARK    8  A    between atoms: O_23  and  C_24
REMARK    9  A    between atoms: C_24  and  C_25
REMARK   10  A    between atoms: C_25  and  C_26
REMARK   11  A    between atoms: C_25  and  C_27
REMARK                            x       y       z     vdW  Elec       q    Type
REMARK                         _______ _______ _______ _____ _____    ______ ____
ROOT
ATOM      1  C   UNL     1       1.713   8.550  19.256  0.00  0.00    +0.000 A 
ATOM      2  C   UNL     1       1.893   8.626  17.888  0.00  0.00    +0.000 A 
ATOM      3  C   UNL     1       2.827   7.661  17.572  0.00  0.00    +0.000 A 
ATOM      4  C   UNL     1       3.158   7.046  18.763  0.00  0.00    +0.000 A 
ATOM      5  O   UNL     1       2.478   7.598  19.752  0.00  0.00    +0.000 OA
ENDROOT
BRANCH   1  12
ATOM      6  C   UNL     1      -1.606  11.899  20.599  0.00  0.00    +0.000 A 
ATOM      7  C   UNL     1      -2.129  12.261  21.862  0.00  0.00    +0.000 A 
ATOM      8  C   UNL     1      -1.705  11.593  23.034  0.00  0.00    +0.000 A 
ATOM      9  C   UNL     1      -0.759  10.555  22.960  0.00  0.00    +0.000 A 
ATOM     10  C   UNL     1      -0.254  10.225  21.704  0.00  0.00    +0.000 A 
ATOM     11  N   UNL     1       0.651   9.276  21.399  0.00  0.00    +0.000 NA
ATOM     12  C   UNL     1       0.794   9.388  20.048  0.00  0.00    +0.000 A 
ATOM     13  N   UNL     1       0.005  10.356  19.518  0.00  0.00    +0.000 N 
ATOM     14  C   UNL     1      -0.651  10.873  20.573  0.00  0.00    +0.000 A 
ATOM     15  H   UNL     1      -0.070  10.635  18.515  0.00  0.00    +0.000 HD
BRANCH   6  16
ATOM     16  C   UNL     1      -2.084  12.573  19.340  0.00  0.00    +0.000 C 
BRANCH  16  18
ATOM     17  C   UNL     1      -0.379  14.297  19.078  0.00  0.00    +0.000 C 
ATOM     18  N   UNL     1      -0.951  13.059  18.537  0.00  0.00    +0.000 NA
ATOM     19  H   UNL     1      -0.207  12.323  18.550  0.00  0.00    +0.000 HD
ENDBRANCH  16  18
ENDBRANCH   6  16
ENDBRANCH   1  12
BRANCH   4  20
ATOM     20  C   UNL     1       4.118   5.890  18.930  0.00  0.00    +0.000 C 
BRANCH  20  21
ATOM     21  C   UNL     1       3.408   4.552  18.930  0.00  0.00    +0.000 A 
ATOM     22  C   UNL     1       2.755   4.174  20.120  0.00  0.00    +0.000 A 
ATOM     23  C   UNL     1       2.055   2.973  20.210  0.00  0.00    +0.000 A 
ATOM     24 CL   UNL     1       1.249   2.533  21.703  0.00  0.00    +0.000 Cl
ATOM     25  C   UNL     1       1.990   2.127  19.110  0.00  0.00    +0.000 A 
ATOM     26  C   UNL     1       2.609   2.481  17.918  0.00  0.00    +0.000 A 
ATOM     27  C   UNL     1       3.327   3.696  17.788  0.00  0.00    +0.000 A 
BRANCH  27  28
ATOM     28  O   UNL     1       3.903   4.041  16.593  0.00  0.00    +0.000 OA
BRANCH  28  29
ATOM     29  C   UNL     1       5.178   3.616  16.210  0.00  0.00    +0.000 C 
BRANCH  29  30
ATOM     30  C   UNL     1       6.187   4.765  16.042  0.00  0.00    +0.000 C 
ATOM     31  C   UNL     1       7.283   4.634  17.123  0.00  0.00    +0.000 C 
ATOM     32  C   UNL     1       6.826   4.769  14.655  0.00  0.00    +0.000 C 
ENDBRANCH  29  30
ENDBRANCH  28  29
ENDBRANCH  27  28
ENDBRANCH  20  21
ENDBRANCH   4  20
TORSDOF 8
ENDMDL
MODEL 3
REMARK VINA RESULT:      -8.0      1.660      2.113
REMARK  Name = 
REMARK  11 active torsions:
REMARK  status: ('A' for Active; 'I' for Inactive)
REMARK    1  A    between atoms: C_1  and  N_2
REMARK    2  A    between atoms: N_2  and  C_3
REMARK    3  A    between atoms: C_3  and  C_4
REMARK    4  A    between atoms: C_10  and  C_11
REMARK    5  A    between atoms: C_14  and  C_15
REMARK    6  A    between atoms: C_15  and  C_16
REMARK    7  A    between atoms: C_22  and  O_23
REMARK    8  A    between atoms: O_23  and  C_24
REMARK    9  A    between atoms: C_24  and  C_25
REMARK   10  A    between atoms: C_25  and  C_26
REMARK   11  A    between atoms: C_25  and  C_27
REMARK                            x       y       z     vdW  Elec       q    Type
REMARK                         _______ _______ _______ _____ _____    ______ ____
ROOT
ATOM      1  C   UNL     1       1.655   8.673  19.051  0.00  0.00    +0.000 A 
ATOM      2  C   UNL     1       2.117   8.463  17.766  0.00  0.00    +0.000 A 
ATOM      3  C   UNL     1       2.996   7.404  17.844  0.00  0.00    +0.000 A 
ATOM      4  C   UNL     1       3.017   7.022  19.171  0.00  0.00    +0.000 A 
ATOM      5  O   UNL     1       2.206   7.797  19.868  0.00  0.00    +0.000 OA
ENDROOT
BRANCH   1  12
ATOM      6  C   UNL     1      -2.169  11.739  19.137  0.00  0.00    +0.000 A 
ATOM      7  C   UNL     1      -2.576  12.720  20.071  0.00  0.00    +0.000 A 
ATOM      8  C   UNL     1      -1.830  12.941  21.252  0.00  0.00    +0.000 A 
ATOM      9  C   UNL     1      -0.674  12.186  21.518  0.00  0.00    +0.000 A 
ATOM     10  C   UNL     1      -0.292  11.233  20.576  0.00  0.00    +0.000 A 
ATOM     11  N   UNL     1       0.770  10.405  20.621  0.00  0.00    +0.000 NA
ATOM     12  C   UNL     1       0.681   9.702  19.456  0.00  0.00    +0.000 A 
ATOM     13  N   UNL     1      -0.396  10.060  18.712  0.00  0.00    +0.000 N 
ATOM     14  C   UNL     1      -1.000  11.023  19.431  0.00  0.00    +0.000 A 
ATOM     15  H   UNL     1      -0.685   9.672  17.787  0.00  0.00    +0.000 HD
BRANCH   6  16
ATOM     16  C   UNL     1      -2.980  11.464  17.898  0.00  0.00    +0.000 C 
BRANCH  16  18
ATOM     17  C   UNL     1      -2.709  10.751  15.582  0.00  0.00    +0.000 C 
ATOM     18  N   UNL     1      -2.142  11.526  16.692  0.00  0.00    +0.000 NA
ATOM     19  H   UNL     1      -2.081  12.527  16.392  0.00  0.00    +0.000 HD
ENDBRANCH  16  18
ENDBRANCH   6  16
ENDBRANCH   1  12
BRANCH   4  20
ATOM     20  C   UNL     1       3.804   5.870  19.753  0.00  0.00    +0.000 C 
BRANCH  20  21
ATOM     21  C   UNL     1       3.508   4.561  19.052  0.00  0.00    +0.000 A 
ATOM     22  C   UNL     1       2.192   4.066  19.149  0.00  0.00    +0.000 A 
ATOM     23  C   UNL     1       1.816   2.882  18.518  0.00  0.00    +0.000 A 
ATOM     24 CL   UNL     1       0.170   2.295  18.654  0.00  0.00    +0.000 Cl
ATOM     25  C   UNL     1       2.748   2.170  17.773  0.00  0.00    +0.000 A 
ATOM     26  C   UNL     1       4.048   2.642  17.645  0.00  0.00    +0.000 A 
ATOM     27  C   UNL     1       4.466   3.845  18.269  0.00  0.00    +0.000 A 
BRANCH  27  28
ATOM     28  O   UNL     1       5.744   4.308  18.103  0.00  0.00    +0.000 OA
BRANCH  28  29
ATOM     29  C   UNL     1       6.113   5.182  17.077  0.00  0.00    +0.000 C 
BRANCH  29  30
ATOM     30  C   UNL     1       7.271   6.122  17.452  0.00  0.00    +0.000 C 
ATOM     31  C   UNL     1       6.794   7.585  17.320  0.00  0.00    +0.000 C 
ATOM     32  C   UNL     1       7.779   5.870  18.870  0.00  0.00    +0.000 C 
ENDBRANCH  29  30
ENDBRANCH  28  29
ENDBRANCH  27  28
ENDBRANCH  20  21
ENDBRANCH   4  20
TORSDOF 8
ENDMDL
MODEL 4
REMARK VINA RESULT:      -7.7      0.884      1.184
REMARK  Name = 
REMARK  11 active torsions:
REMARK  status: ('A' for Active; 'I' for Inactive)
REMARK    1  A    between atoms: C_1  and  N_2
REMARK    2  A    between atoms: N_2  and  C_3
REMARK    3  A    between atoms: C_3  and  C_4
REMARK    4  A    between atoms: C_10  and  C_11
REMARK    5  A    between atoms: C_14  and  C_15
REMARK    6  A    between atoms: C_15  and  C_16
REMARK    7  A    between atoms: C_22  and  O_23
REMARK    8  A    between atoms: O_23  and  C_24
REMARK    9  A    between atoms: C_24  and  C_25
REMARK   10  A    between atoms: C_25  and  C_26
REMARK   11  A    between atoms: C_25  and  C_27
REMARK                            x       y       z     vdW  Elec       q    Type
REMARK                         _______ _______ _______ _____ _____    ______ ____
ROOT
ATOM      1  C   UNL     1       2.015   8.391  18.941  0.00  0.00    +0.000 A 
ATOM      2  C   UNL     1       2.507   8.401  17.650  0.00  0.00    +0.000 A 
ATOM      3  C   UNL     1       3.402   7.355  17.575  0.00  0.00    +0.000 A 
ATOM      4  C   UNL     1       3.399   6.759  18.820  0.00  0.00    +0.000 A 
ATOM      5  O   UNL     1       2.561   7.399  19.616  0.00  0.00    +0.000 OA
ENDROOT
BRANCH   1  12
ATOM      6  C   UNL     1      -1.699  11.562  19.374  0.00  0.00    +0.000 A 
ATOM      7  C   UNL     1      -2.222  12.263  20.485  0.00  0.00    +0.000 A 
ATOM      8  C   UNL     1      -1.663  12.088  21.772  0.00  0.00    +0.000 A 
ATOM      9  C   UNL     1      -0.582  11.211  21.967  0.00  0.00    +0.000 A 
ATOM     10  C   UNL     1      -0.081  10.540  20.853  0.00  0.00    +0.000 A 
ATOM     11  N   UNL     1       0.939   9.663  20.805  0.00  0.00    +0.000 NA
ATOM     12  C   UNL     1       1.015   9.328  19.485  0.00  0.00    +0.000 A 
ATOM     13  N   UNL     1       0.076   9.955  18.733  0.00  0.00    +0.000 N 
ATOM     14  C   UNL     1      -0.608  10.713  19.608  0.00  0.00    +0.000 A 
ATOM     15  H   UNL     1      -0.075   9.866  17.704  0.00  0.00    +0.000 HD
BRANCH   6  16
ATOM     16  C   UNL     1      -2.314  11.706  18.006  0.00  0.00    +0.000 C 
BRANCH  16  18
ATOM     17  C   UNL     1      -4.592  11.484  17.162  0.00  0.00    +0.000 C 
ATOM     18  N   UNL     1      -3.479  10.821  17.853  0.00  0.00    +0.000 NA
ATOM     19  H   UNL     1      -3.184   9.997  17.280  0.00  0.00    +0.000 HD
ENDBRANCH  16  18
ENDBRANCH   6  16
ENDBRANCH   1  12
BRANCH   4  20
ATOM     20  C   UNL     1       4.192   5.537  19.224  0.00  0.00    +0.000 C 
BRANCH  20  21
ATOM     21  C   UNL     1       3.353   4.277  19.203  0.00  0.00    +0.000 A 
ATOM     22  C   UNL     1       2.723   3.908  20.409  0.00  0.00    +0.000 A 
ATOM     23  C   UNL     1       1.911   2.779  20.484  0.00  0.00    +0.000 A 
ATOM     24 CL   UNL     1       1.137   2.349  21.997  0.00  0.00    +0.000 Cl
ATOM     25  C   UNL     1       1.709   1.997  19.354  0.00  0.00    +0.000 A 
ATOM     26  C   UNL     1       2.303   2.345  18.147  0.00  0.00    +0.000 A 
ATOM     27  C   UNL     1       3.132   3.489  18.032  0.00  0.00    +0.000 A 
BRANCH  27  28
ATOM     28  O   UNL     1       3.682   3.832  16.825  0.00  0.00    +0.000 OA
BRANCH  28  29
ATOM     29  C   UNL     1       5.055   3.782  16.569  0.00  0.00    +0.000 C 
BRANCH  29  30
ATOM     30  C   UNL     1       5.530   4.822  15.540  0.00  0.00    +0.000 C 
ATOM     31  C   UNL     1       6.827   5.484  16.055  0.00  0.00    +0.000 C 
ATOM     32  C   UNL     1       5.776   4.200  14.167  0.00  0.00    +0.000 C 
ENDBRANCH  29  30
ENDBRANCH  28  29
ENDBRANCH  27  28
ENDBRANCH  20  21
ENDBRANCH   4  20
TORSDOF 8
ENDMDL
MODEL 5
REMARK VINA RESULT:      -7.7      2.345      3.707
REMARK  Name = 
REMARK  11 active torsions:
REMARK  status: ('A' for Active; 'I' for Inactive)
REMARK    1  A    between atoms: C_1  and  N_2
REMARK    2  A    between atoms: N_2  and  C_3
REMARK    3  A    between atoms: C_3  and  C_4
REMARK    4  A    between atoms: C_10  and  C_11
REMARK    5  A    between atoms: C_14  and  C_15
REMARK    6  A    between atoms: C_15  and  C_16
REMARK    7  A    between atoms: C_22  and  O_23
REMARK    8  A    between atoms: O_23  and  C_24
REMARK    9  A    between atoms: C_24  and  C_25
REMARK   10  A    between atoms: C_25  and  C_26
REMARK   11  A    between atoms: C_25  and  C_27
REMARK                            x       y       z     vdW  Elec       q    Type
REMARK                         _______ _______ _______ _____ _____    ______ ____
ROOT
ATOM      1  C   UNL     1       1.393   9.143  19.594  0.00  0.00    +0.000 A 
ATOM      2  C   UNL     1       1.574   9.166  18.224  0.00  0.00    +0.000 A 
ATOM      3  C   UNL     1       2.174   7.968  17.899  0.00  0.00    +0.000 A 
ATOM      4  C   UNL     1       2.317   7.278  19.086  0.00  0.00    +0.000 A 
ATOM      5  O   UNL     1       1.842   8.004  20.082  0.00  0.00    +0.000 OA
ENDROOT
BRANCH   1  12
ATOM      6  C   UNL     1       0.263  13.508  21.518  0.00  0.00    +0.000 A 
ATOM      7  C   UNL     1      -0.651  13.891  22.527  0.00  0.00    +0.000 A 
ATOM      8  C   UNL     1      -1.460  12.925  23.168  0.00  0.00    +0.000 A 
ATOM      9  C   UNL     1      -1.372  11.569  22.808  0.00  0.00    +0.000 A 
ATOM     10  C   UNL     1      -0.457  11.219  21.816  0.00  0.00    +0.000 A 
ATOM     11  N   UNL     1      -0.205   9.994  21.318  0.00  0.00    +0.000 NA
ATOM     12  C   UNL     1       0.774  10.215  20.396  0.00  0.00    +0.000 A 
ATOM     13  N   UNL     1       1.119  11.524  20.305  0.00  0.00    +0.000 N 
ATOM     14  C   UNL     1       0.334  12.144  21.204  0.00  0.00    +0.000 A 
ATOM     15  H   UNL     1       1.836  11.948  19.677  0.00  0.00    +0.000 HD
BRANCH   6  16
ATOM     16  C   UNL     1       1.098  14.535  20.798  0.00  0.00    +0.000 C 
BRANCH  16  18
ATOM     17  C   UNL     1       2.150  14.596  18.599  0.00  0.00    +0.000 C 
ATOM     18  N   UNL     1       0.893  14.459  19.344  0.00  0.00    +0.000 NA
ATOM     19  H   UNL     1       0.485  13.521  19.124  0.00  0.00    +0.000 HD
ENDBRANCH  16  18
ENDBRANCH   6  16
ENDBRANCH   1  12
BRANCH   4  20
ATOM     20  C   UNL     1       2.888   5.887  19.243  0.00  0.00    +0.000 C 
BRANCH  20  21
ATOM     21  C   UNL     1       3.910   5.563  18.173  0.00  0.00    +0.000 A 
ATOM     22  C   UNL     1       5.076   6.354  18.141  0.00  0.00    +0.000 A 
ATOM     23  C   UNL     1       6.084   6.118  17.209  0.00  0.00    +0.000 A 
ATOM     24 CL   UNL     1       7.524   7.118  17.198  0.00  0.00    +0.000 Cl
ATOM     25  C   UNL     1       5.950   5.082  16.294  0.00  0.00    +0.000 A 
ATOM     26  C   UNL     1       4.821   4.274  16.312  0.00  0.00    +0.000 A 
ATOM     27  C   UNL     1       3.776   4.482  17.248  0.00  0.00    +0.000 A 
BRANCH  27  28
ATOM     28  O   UNL     1       2.685   3.653  17.269  0.00  0.00    +0.000 OA
BRANCH  28  29
ATOM     29  C   UNL     1       2.750   2.315  17.666  0.00  0.00    +0.000 C 
BRANCH  29  30
ATOM     30  C   UNL     1       2.092   2.042  19.030  0.00  0.00    +0.000 C 
ATOM     31  C   UNL     1       3.076   2.441  20.151  0.00  0.00    +0.000 C 
ATOM     32  C   UNL     1       0.780   2.805  19.197  0.00  0.00    +0.000 C 
ENDBRANCH  29  30
ENDBRANCH  28  29
ENDBRANCH  27  28
ENDBRANCH  20  21
ENDBRANCH   4  20
TORSDOF 8
ENDMDL
MODEL 6
REMARK VINA RESULT:      -7.7      1.378      1.918
REMARK  Name = 
REMARK  11 active torsions:
REMARK  status: ('A' for Active; 'I' for Inactive)
REMARK    1  A    between atoms: C_1  and  N_2
REMARK    2  A    between atoms: N_2  and  C_3
REMARK    3  A    between atoms: C_3  and  C_4
REMARK    4  A    between atoms: C_10  and  C_11
REMARK    5  A    between atoms: C_14  and  C_15
REMARK    6  A    between atoms: C_15  and  C_16
REMARK    7  A    between atoms: C_22  and  O_23
REMARK    8  A    between atoms: O_23  and  C_24
REMARK    9  A    between atoms: C_24  and  C_25
REMARK   10  A    between atoms: C_25  and  C_26
REMARK   11  A    between atoms: C_25  and  C_27
REMARK                            x       y       z     vdW  Elec       q    Type
REMARK                         _______ _______ _______ _____ _____    ______ ____
ROOT
ATOM      1  C   UNL     1       1.295   9.034  19.018  0.00  0.00    +0.000 A 
ATOM      2  C   UNL     1       1.928   9.030  17.790  0.00  0.00    +0.000 A 
ATOM      3  C   UNL     1       2.850   8.005  17.840  0.00  0.00    +0.000 A 
ATOM      4  C   UNL     1       2.722   7.437  19.092  0.00  0.00    +0.000 A 
ATOM      5  O   UNL     1       1.785   8.071  19.774  0.00  0.00    +0.000 OA
ENDROOT
BRANCH   1  12
ATOM      6  C   UNL     1      -2.750  11.805  19.049  0.00  0.00    +0.000 A 
ATOM      7  C   UNL     1      -3.295  12.675  20.021  0.00  0.00    +0.000 A 
ATOM      8  C   UNL     1      -2.651  12.853  21.267  0.00  0.00    +0.000 A 
ATOM      9  C   UNL     1      -1.462  12.163  21.561  0.00  0.00    +0.000 A 
ATOM     10  C   UNL     1      -0.943  11.318  20.581  0.00  0.00    +0.000 A 
ATOM     11  N   UNL     1       0.172  10.566  20.643  0.00  0.00    +0.000 NA
ATOM     12  C   UNL     1       0.218   9.956  19.425  0.00  0.00    +0.000 A 
ATOM     13  N   UNL     1      -0.828  10.295  18.632  0.00  0.00    +0.000 N 
ATOM     14  C   UNL     1      -1.552  11.152  19.374  0.00  0.00    +0.000 A 
ATOM     15  H   UNL     1      -1.022   9.964  17.661  0.00  0.00    +0.000 HD
BRANCH   6  16
ATOM     16  C   UNL     1      -3.450  11.574  17.735  0.00  0.00    +0.000 C 
BRANCH  16  18
ATOM     17  C   UNL     1      -3.121   9.853  16.038  0.00  0.00    +0.000 C 
ATOM     18  N   UNL     1      -3.526  10.140  17.420  0.00  0.00    +0.000 NA
ATOM     19  H   UNL     1      -2.872   9.634  18.062  0.00  0.00    +0.000 HD
ENDBRANCH  16  18
ENDBRANCH   6  16
ENDBRANCH   1  12
BRANCH   4  20
ATOM     20  C   UNL     1       3.493   6.245  19.611  0.00  0.00    +0.000 C 
BRANCH  20  21
ATOM     21  C   UNL     1       3.242   4.998  18.789  0.00  0.00    +0.000 A 
ATOM     22  C   UNL     1       2.117   4.220  19.134  0.00  0.00    +0.000 A 
ATOM     23  C   UNL     1       1.789   3.069  18.421  0.00  0.00    +0.000 A 
ATOM     24 CL   UNL     1       0.382   2.125  18.872  0.00  0.00    +0.000 Cl
ATOM     25  C   UNL     1       2.576   2.673  17.348  0.00  0.00    +0.000 A 
ATOM     26  C   UNL     1       3.681   3.428  16.974  0.00  0.00    +0.000 A 
ATOM     27  C   UNL     1       4.043   4.608  17.672  0.00  0.00    +0.000 A 
BRANCH  27  28
ATOM     28  O   UNL     1       5.117   5.355  17.266  0.00  0.00    +0.000 OA
BRANCH  28  29
ATOM     29  C   UNL     1       5.277   5.816  15.957  0.00  0.00    +0.000 C 
BRANCH  29  30
ATOM     30  C   UNL     1       6.450   5.159  15.210  0.00  0.00    +0.000 C 
ATOM     31  C   UNL     1       7.381   4.477  16.236  0.00  0.00    +0.000 C 
ATOM     32  C   UNL     1       5.974   4.135  14.181  0.00  0.00    +0.000 C 
ENDBRANCH  29  30
ENDBRANCH  28  29
ENDBRANCH  27  28
ENDBRANCH  20  21
ENDBRANCH   4  20
TORSDOF 8
ENDMDL
MODEL 7
REMARK VINA RESULT:      -7.6      1.196      1.661
REMARK  Name = 
REMARK  11 active torsions:
REMARK  status: ('A' for Active; 'I' for Inactive)
REMARK    1  A    between atoms: C_1  and  N_2
REMARK    2  A    between atoms: N_2  and  C_3
REMARK    3  A    between atoms: C_3  and  C_4
REMARK    4  A    between atoms: C_10  and  C_11
REMARK    5  A    between atoms: C_14  and  C_15
REMARK    6  A    between atoms: C_15  and  C_16
REMARK    7  A    between atoms: C_22  and  O_23
REMARK    8  A    between atoms: O_23  and  C_24
REMARK    9  A    between atoms: C_24  and  C_25
REMARK   10  A    between atoms: C_25  and  C_26
REMARK   11  A    between atoms: C_25  and  C_27
REMARK                            x       y       z     vdW  Elec       q    Type
REMARK                         _______ _______ _______ _____ _____    ______ ____
ROOT
ATOM      1  C   UNL     1       2.027   8.488  18.722  0.00  0.00    +0.000 A 
ATOM      2  C   UNL     1       2.661   8.453  17.494  0.00  0.00    +0.000 A 
ATOM      3  C   UNL     1       3.568   7.417  17.563  0.00  0.00    +0.000 A 
ATOM      4  C   UNL     1       3.431   6.872  18.824  0.00  0.00    +0.000 A 
ATOM      5  O   UNL     1       2.504   7.532  19.495  0.00  0.00    +0.000 OA
ENDROOT
BRANCH   1  12
ATOM      6  C   UNL     1      -2.087  11.153  18.798  0.00  0.00    +0.000 A 
ATOM      7  C   UNL     1      -2.566  12.131  19.700  0.00  0.00    +0.000 A 
ATOM      8  C   UNL     1      -1.813  12.483  20.844  0.00  0.00    +0.000 A 
ATOM      9  C   UNL     1      -0.578  11.863  21.105  0.00  0.00    +0.000 A 
ATOM     10  C   UNL     1      -0.128  10.908  20.194  0.00  0.00    +0.000 A 
ATOM     11  N   UNL     1       1.014  10.195  20.241  0.00  0.00    +0.000 NA
ATOM     12  C   UNL     1       0.964   9.432  19.112  0.00  0.00    +0.000 A 
ATOM     13  N   UNL     1      -0.165   9.643  18.390  0.00  0.00    +0.000 N 
ATOM     14  C   UNL     1      -0.843  10.573  19.084  0.00  0.00    +0.000 A 
ATOM     15  H   UNL     1      -0.439   9.183  17.493  0.00  0.00    +0.000 HD
BRANCH   6  16
ATOM     16  C   UNL     1      -2.901  10.738  17.601  0.00  0.00    +0.000 C 
BRANCH  16  18
ATOM     17  C   UNL     1      -2.953  10.796  15.163  0.00  0.00    +0.000 C 
ATOM     18  N   UNL     1      -2.450  11.433  16.386  0.00  0.00    +0.000 NA
ATOM     19  H   UNL     1      -2.819  12.412  16.419  0.00  0.00    +0.000 HD
ENDBRANCH  16  18
ENDBRANCH   6  16
ENDBRANCH   1  12
BRANCH   4  20
ATOM     20  C   UNL     1       4.185   5.678  19.365  0.00  0.00    +0.000 C 
BRANCH  20  21
ATOM     21  C   UNL     1       3.367   4.407  19.301  0.00  0.00    +0.000 A 
ATOM     22  C   UNL     1       2.698   4.016  20.479  0.00  0.00    +0.000 A 
ATOM     23  C   UNL     1       1.900   2.874  20.512  0.00  0.00    +0.000 A 
ATOM     24 CL   UNL     1       1.078   2.418  21.992  0.00  0.00    +0.000 Cl
ATOM     25  C   UNL     1       1.751   2.101  19.368  0.00  0.00    +0.000 A 
ATOM     26  C   UNL     1       2.385   2.470  18.188  0.00  0.00    +0.000 A 
ATOM     27  C   UNL     1       3.200   3.627  18.114  0.00  0.00    +0.000 A 
BRANCH  27  28
ATOM     28  O   UNL     1       3.789   3.990  16.932  0.00  0.00    +0.000 OA
BRANCH  28  29
ATOM     29  C   UNL     1       4.840   3.276  16.351  0.00  0.00    +0.000 C 
BRANCH  29  30
ATOM     30  C   UNL     1       6.044   4.152  15.966  0.00  0.00    +0.000 C 
ATOM     31  C   UNL     1       5.531   5.458  15.321  0.00  0.00    +0.000 C 
ATOM     32  C   UNL     1       6.923   4.480  17.171  0.00  0.00    +0.000 C 
ENDBRANCH  29  30
ENDBRANCH  28  29
ENDBRANCH  27  28
ENDBRANCH  20  21
ENDBRANCH   4  20
TORSDOF 8
ENDMDL
MODEL 8
REMARK VINA RESULT:      -7.6      2.500      3.919
REMARK  Name = 
REMARK  11 active torsions:
REMARK  status: ('A' for Active; 'I' for Inactive)
REMARK    1  A    between atoms: C_1  and  N_2
REMARK    2  A    between atoms: N_2  and  C_3
REMARK    3  A    between atoms: C_3  and  C_4
REMARK    4  A    between atoms: C_10  and  C_11
REMARK    5  A    between atoms: C_14  and  C_15
REMARK    6  A    between atoms: C_15  and  C_16
REMARK    7  A    between atoms: C_22  and  O_23
REMARK    8  A    between atoms: O_23  and  C_24
REMARK    9  A    between atoms: C_24  and  C_25
REMARK   10  A    between atoms: C_25  and  C_26
REMARK   11  A    between atoms: C_25  and  C_27
REMARK                            x       y       z     vdW  Elec       q    Type
REMARK                         _______ _______ _______ _____ _____    ______ ____
ROOT
ATOM      1  C   UNL     1       1.571   8.115  19.928  0.00  0.00    +0.000 A 
ATOM      2  C   UNL     1       1.892   7.013  20.696  0.00  0.00    +0.000 A 
ATOM      3  C   UNL     1       2.586   6.158  19.865  0.00  0.00    +0.000 A 
ATOM      4  C   UNL     1       2.657   6.790  18.640  0.00  0.00    +0.000 A 
ATOM      5  O   UNL     1       2.042   7.957  18.706  0.00  0.00    +0.000 OA
ENDROOT
BRANCH   1  12
ATOM      6  C   UNL     1      -0.684  12.464  20.125  0.00  0.00    +0.000 A 
ATOM      7  C   UNL     1      -1.307  13.161  21.185  0.00  0.00    +0.000 A 
ATOM      8  C   UNL     1      -1.369  12.594  22.479  0.00  0.00    +0.000 A 
ATOM      9  C   UNL     1      -0.817  11.325  22.729  0.00  0.00    +0.000 A 
ATOM     10  C   UNL     1      -0.202  10.665  21.667  0.00  0.00    +0.000 A 
ATOM     11  N   UNL     1       0.389   9.455  21.676  0.00  0.00    +0.000 NA
ATOM     12  C   UNL     1       0.832   9.302  20.396  0.00  0.00    +0.000 A 
ATOM     13  N   UNL     1       0.524  10.362  19.608  0.00  0.00    +0.000 N 
ATOM     14  C   UNL     1      -0.128  11.211  20.421  0.00  0.00    +0.000 A 
ATOM     15  H   UNL     1       0.749  10.487  18.596  0.00  0.00    +0.000 HD
BRANCH   6  16
ATOM     16  C   UNL     1      -0.651  13.039  18.733  0.00  0.00    +0.000 C 
BRANCH  16  18
ATOM     17  C   UNL     1       1.584  14.016  18.697  0.00  0.00    +0.000 C 
ATOM     18  N   UNL     1       0.703  12.969  18.163  0.00  0.00    +0.000 NA
ATOM     19  H   UNL     1       1.112  12.039  18.415  0.00  0.00    +0.000 HD
ENDBRANCH  16  18
ENDBRANCH   6  16
ENDBRANCH   1  12
BRANCH   4  20
ATOM     20  C   UNL     1       3.359   6.266  17.408  0.00  0.00    +0.000 C 
BRANCH  20  21
ATOM     21  C   UNL     1       4.832   6.013  17.653  0.00  0.00    +0.000 A 
ATOM     22  C   UNL     1       5.698   7.120  17.548  0.00  0.00    +0.000 A 
ATOM     23  C   UNL     1       7.066   6.991  17.779  0.00  0.00    +0.000 A 
ATOM     24 CL   UNL     1       8.117   8.389  17.645  0.00  0.00    +0.000 Cl
ATOM     25  C   UNL     1       7.596   5.755  18.124  0.00  0.00    +0.000 A 
ATOM     26  C   UNL     1       6.765   4.649  18.251  0.00  0.00    +0.000 A 
ATOM     27  C   UNL     1       5.368   4.742  18.028  0.00  0.00    +0.000 A 
BRANCH  27  28
ATOM     28  O   UNL     1       4.562   3.646  18.191  0.00  0.00    +0.000 OA
BRANCH  28  29
ATOM     29  C   UNL     1       4.414   2.980  19.411  0.00  0.00    +0.000 C 
BRANCH  29  30
ATOM     30  C   UNL     1       3.020   2.365  19.614  0.00  0.00    +0.000 C 
ATOM     31  C   UNL     1       2.487   2.774  21.005  0.00  0.00    +0.000 C 
ATOM     32  C   UNL     1       2.035   2.804  18.533  0.00  0.00    +0.000 C 
ENDBRANCH  29  30
ENDBRANCH  28  29
ENDBRANCH  27  28
ENDBRANCH  20  21
ENDBRANCH   4  20
TORSDOF 8
ENDMDL
MODEL 9
REMARK VINA RESULT:      -7.6      3.108      9.520
REMARK  Name = 
REMARK  11 active torsions:
REMARK  status: ('A' for Active; 'I' for Inactive)
REMARK    1  A    between atoms: C_1  and  N_2
REMARK    2  A    between atoms: N_2  and  C_3
REMARK    3  A    between atoms: C_3  and  C_4
REMARK    4  A    between atoms: C_10  and  C_11
REMARK    5  A    between atoms: C_14  and  C_15
REMARK    6  A    between atoms: C_15  and  C_16
REMARK    7  A    between atoms: C_22  and  O_23
REMARK    8  A    between atoms: O_23  and  C_24
REMARK    9  A    between atoms: C_24  and  C_25
REMARK   10  A    between atoms: C_25  and  C_26
REMARK   11  A    between atoms: C_25  and  C_27
REMARK                            x       y       z     vdW  Elec       q    Type
REMARK                         _______ _______ _______ _____ _____    ______ ____
ROOT
ATOM      1  C   UNL     1       1.941   8.319  19.149  0.00  0.00    +0.000 A 
ATOM      2  C   UNL     1       1.432   8.206  20.428  0.00  0.00    +0.000 A 
ATOM      3  C   UNL     1       0.790   9.398  20.690  0.00  0.00    +0.000 A 
ATOM      4  C   UNL     1       0.936  10.168  19.553  0.00  0.00    +0.000 A 
ATOM      5  O   UNL     1       1.627   9.498  18.649  0.00  0.00    +0.000 OA
ENDROOT
BRANCH   1  12
ATOM      6  C   UNL     1       3.510   4.013  17.408  0.00  0.00    +0.000 A 
ATOM      7  C   UNL     1       4.598   3.667  16.574  0.00  0.00    +0.000 A 
ATOM      8  C   UNL     1       5.462   4.667  16.069  0.00  0.00    +0.000 A 
ATOM      9  C   UNL     1       5.248   6.020  16.386  0.00  0.00    +0.000 A 
ATOM     10  C   UNL     1       4.173   6.330  17.216  0.00  0.00    +0.000 A 
ATOM     11  N   UNL     1       3.784   7.546  17.647  0.00  0.00    +0.000 NA
ATOM     12  C   UNL     1       2.702   7.279  18.433  0.00  0.00    +0.000 A 
ATOM     13  N   UNL     1       2.411   5.955  18.487  0.00  0.00    +0.000 N 
ATOM     14  C   UNL     1       3.345   5.370  17.715  0.00  0.00    +0.000 A 
ATOM     15  H   UNL     1       1.636   5.497  19.015  0.00  0.00    +0.000 HD
BRANCH   6  16
ATOM     16  C   UNL     1       2.557   2.961  17.915  0.00  0.00    +0.000 C 
BRANCH  16  18
ATOM     17  C   UNL     1       3.526   2.626  20.127  0.00  0.00    +0.000 C 
ATOM     18  N   UNL     1       2.357   3.083  19.366  0.00  0.00    +0.000 NA
ATOM     19  H   UNL     1       2.201   4.094  19.587  0.00  0.00    +0.000 HD
ENDBRANCH  16  18
ENDBRANCH   6  16
ENDBRANCH   1  12
BRANCH   4  20
ATOM     20  C   UNL     1       0.365  11.551  19.336  0.00  0.00    +0.000 C 
BRANCH  20  21
ATOM     21  C   UNL     1      -1.092  11.512  18.928  0.00  0.00    +0.000 A 
ATOM     22  C   UNL     1      -1.416  10.762  17.779  0.00  0.00    +0.000 A 
ATOM     23  C   UNL     1      -2.733  10.646  17.339  0.00  0.00    +0.000 A 
ATOM     24 CL   UNL     1      -3.103   9.702  15.909  0.00  0.00    +0.000 Cl
ATOM     25  C   UNL     1      -3.754  11.274  18.040  0.00  0.00    +0.000 A 
ATOM     26  C   UNL     1      -3.468  12.006  19.186  0.00  0.00    +0.000 A 
ATOM     27  C   UNL     1      -2.141  12.143  19.667  0.00  0.00    +0.000 A 
BRANCH  27  28
ATOM     28  O   UNL     1      -1.885  12.842  20.817  0.00  0.00    +0.000 OA
BRANCH  28  29
ATOM     29  C   UNL     1      -2.858  13.099  21.787  0.00  0.00    +0.000 C 
BRANCH  29  30
ATOM     30  C   UNL     1      -2.467  12.618  23.195  0.00  0.00    +0.000 C 
ATOM     31  C   UNL     1      -3.751  12.383  24.020  0.00  0.00    +0.000 C 
ATOM     32  C   UNL     1      -1.637  11.337  23.154  0.00  0.00    +0.000 C 
ENDBRANCH  29  30
ENDBRANCH  28  29
ENDBRANCH  27  28
ENDBRANCH  20  21
ENDBRANCH   4  20
TORSDOF 8
ENDMDL
