MODEL 1
REMARK VINA RESULT:      -7.5      0.000      0.000
REMARK  Name = 
REMARK  2 active torsions:
REMARK  status: ('A' for Active; 'I' for Inactive)
REMARK    1  A    between atoms: C_1  and  C_2
REMARK    2  A    between atoms: C_6  and  C_7
REMARK                            x       y       z     vdW  Elec       q    Type
REMARK                         _______ _______ _______ _____ _____    ______ ____
ROOT
ATOM      1  C   UNL     1      -0.253  10.967  18.908  0.00  0.00    +0.000 C 
ATOM      2  C   UNL     1       0.307  12.362  19.272  0.00  0.00    +0.000 C 
ATOM      3  C   UNL     1      -0.740  12.940  20.148  0.00  0.00    +0.000 C 
ATOM      4  O   UNL     1      -0.783  12.815  21.368  0.00  0.00    +0.000 OA
ATOM      5  N   UNL     1      -1.847  13.267  19.383  0.00  0.00    +0.000 N 
ATOM      6  C   UNL     1      -2.377  12.212  18.647  0.00  0.00    +0.000 C 
ATOM      7  C   UNL     1      -1.624  11.168  18.197  0.00  0.00    +0.000 C 
ATOM      8  C   UNL     1      -2.363  10.371  17.160  0.00  0.00    +0.000 C 
ATOM      9  O   UNL     1      -1.917   9.343  16.680  0.00  0.00    +0.000 OA
ATOM     10  C   UNL     1      -3.767  10.948  16.669  0.00  0.00    +0.000 C 
ATOM     11  O   UNL     1      -4.148  10.927  15.514  0.00  0.00    +0.000 OA
ATOM     12  C   UNL     1      -4.579  11.523  17.763  0.00  0.00    +0.000 A 
ATOM     13  C   UNL     1      -5.963  11.399  17.893  0.00  0.00    +0.000 A 
ATOM     14  C   UNL     1      -6.563  11.590  19.141  0.00  0.00    +0.000 A 
ATOM     15  C   UNL     1      -5.768  11.967  20.251  0.00  0.00    +0.000 A 
ATOM     16  C   UNL     1      -4.422  12.233  20.060  0.00  0.00    +0.000 A 
ATOM     17  C   UNL     1      -3.825  12.042  18.801  0.00  0.00    +0.000 A 
ATOM     18  H   UNL     1      -1.564  13.992  18.726  0.00  0.00    +0.000 HD
ENDROOT
BRANCH   1  24
ATOM     19  C   UNL     1       2.992   7.146  17.938  0.00  0.00    +0.000 C 
ATOM     20  C   UNL     1       2.172   7.937  18.921  0.00  0.00    +0.000 A 
ATOM     21  C   UNL     1       1.906   7.402  20.174  0.00  0.00    +0.000 A 
ATOM     22  C   UNL     1       1.149   8.134  21.094  0.00  0.00    +0.000 A 
ATOM     23  C   UNL     1       0.648   9.425  20.778  0.00  0.00    +0.000 A 
ATOM     24  C   UNL     1       0.838   9.995  19.504  0.00  0.00    +0.000 A 
ATOM     25  C   UNL     1       1.640   9.210  18.598  0.00  0.00    +0.000 A 
ENDBRANCH   1  24
TORSDOF 1
ENDMDL
MODEL 2
REMARK VINA RESULT:      -7.2      3.378      6.087
REMARK  Name = 
REMARK  2 active torsions:
REMARK  status: ('A' for Active; 'I' for Inactive)
REMARK    1  A    between atoms: C_1  and  C_2
REMARK    2  A    between atoms: C_6  and  C_7
REMARK                            x       y       z     vdW  Elec       q    Type
REMARK                         _______ _______ _______ _____ _____    ______ ____
ROOT
ATOM      1  C   UNL     1      -5.164  11.903  18.949  0.00  0.00    +0.000 C 
ATOM      2  C   UNL     1      -6.265  11.338  18.021  0.00  0.00    +0.000 C 
ATOM      3  C   UNL     1      -7.120  12.515  17.738  0.00  0.00    +0.000 C 
ATOM      4  O   UNL     1      -6.956  13.294  16.804  0.00  0.00    +0.000 OA
ATOM      5  N   UNL     1      -7.842  12.840  18.874  0.00  0.00    +0.000 N 
ATOM      6  C   UNL     1      -7.069  13.078  20.006  0.00  0.00    +0.000 C 
ATOM      7  C   UNL     1      -5.856  12.494  20.214  0.00  0.00    +0.000 C 
ATOM      8  C   UNL     1      -5.411  12.654  21.639  0.00  0.00    +0.000 C 
ATOM      9  O   UNL     1      -4.318  12.284  22.033  0.00  0.00    +0.000 OA
ATOM     10  C   UNL     1      -6.455  13.307  22.654  0.00  0.00    +0.000 C 
ATOM     11  O   UNL     1      -6.623  12.928  23.797  0.00  0.00    +0.000 OA
ATOM     12  C   UNL     1      -7.217  14.430  22.068  0.00  0.00    +0.000 A 
ATOM     13  C   UNL     1      -7.565  15.605  22.737  0.00  0.00    +0.000 A 
ATOM     14  C   UNL     1      -7.887  16.751  22.005  0.00  0.00    +0.000 A 
ATOM     15  C   UNL     1      -7.914  16.695  20.590  0.00  0.00    +0.000 A 
ATOM     16  C   UNL     1      -7.715  15.479  19.957  0.00  0.00    +0.000 A 
ATOM     17  C   UNL     1      -7.395  14.328  20.699  0.00  0.00    +0.000 A 
ATOM     18  H   UNL     1      -8.460  12.056  19.080  0.00  0.00    +0.000 HD
ENDROOT
BRANCH   1  24
ATOM     19  C   UNL     1      -3.196  10.052  14.616  0.00  0.00    +0.000 C 
ATOM     20  C   UNL     1      -3.022  10.448  16.058  0.00  0.00    +0.000 A 
ATOM     21  C   UNL     1      -1.918   9.991  16.762  0.00  0.00    +0.000 A 
ATOM     22  C   UNL     1      -1.747  10.359  18.101  0.00  0.00    +0.000 A 
ATOM     23  C   UNL     1      -2.681  11.204  18.759  0.00  0.00    +0.000 A 
ATOM     24  C   UNL     1      -3.849  11.652  18.112  0.00  0.00    +0.000 A 
ATOM     25  C   UNL     1      -3.969  11.261  16.730  0.00  0.00    +0.000 A 
ENDBRANCH   1  24
TORSDOF 1
ENDMDL
MODEL 3
REMARK VINA RESULT:      -7.2      1.218      1.642
REMARK  Name = 
REMARK  2 active torsions:
REMARK  status: ('A' for Active; 'I' for Inactive)
REMARK    1  A    between atoms: C_1  and  C_2
REMARK    2  A    between atoms: C_6  and  C_7
REMARK                            x       y       z     vdW  Elec       q    Type
REMARK                         _______ _______ _______ _____ _____    ______ ____
ROOT
ATOM      1  C   UNL     1      -1.176  11.705  20.116  0.00  0.00    +0.000 C 
ATOM      2  C   UNL     1      -0.827  13.153  20.532  0.00  0.00    +0.000 C 
ATOM      3  C   UNL     1      -2.036  13.608  21.259  0.00  0.00    +0.000 C 
ATOM      4  O   UNL     1      -2.222  13.477  22.464  0.00  0.00    +0.000 OA
ATOM      5  N   UNL     1      -3.065  13.811  20.353  0.00  0.00    +0.000 N 
ATOM      6  C   UNL     1      -3.374  12.704  19.568  0.00  0.00    +0.000 C 
ATOM      7  C   UNL     1      -2.458  11.752  19.232  0.00  0.00    +0.000 C 
ATOM      8  C   UNL     1      -2.962  10.879  18.119  0.00  0.00    +0.000 C 
ATOM      9  O   UNL     1      -2.346   9.909  17.713  0.00  0.00    +0.000 OA
ATOM     10  C   UNL     1      -4.347  11.296  17.445  0.00  0.00    +0.000 C 
ATOM     11  O   UNL     1      -4.570  11.234  16.250  0.00  0.00    +0.000 OA
ATOM     12  C   UNL     1      -5.352  11.774  18.418  0.00  0.00    +0.000 A 
ATOM     13  C   UNL     1      -6.719  11.495  18.370  0.00  0.00    +0.000 A 
ATOM     14  C   UNL     1      -7.493  11.616  19.527  0.00  0.00    +0.000 A 
ATOM     15  C   UNL     1      -6.895  12.077  20.725  0.00  0.00    +0.000 A 
ATOM     16  C   UNL     1      -5.574  12.493  20.706  0.00  0.00    +0.000 A 
ATOM     17  C   UNL     1      -4.801  12.373  19.537  0.00  0.00    +0.000 A 
ATOM     18  H   UNL     1      -2.782  14.564  19.729  0.00  0.00    +0.000 HD
ENDROOT
BRANCH   1  24
ATOM     19  C   UNL     1       1.965   7.687  19.860  0.00  0.00    +0.000 C 
ATOM     20  C   UNL     1       1.205   8.693  20.683  0.00  0.00    +0.000 A 
ATOM     21  C   UNL     1       0.996   8.452  22.033  0.00  0.00    +0.000 A 
ATOM     22  C   UNL     1       0.295   9.385  22.804  0.00  0.00    +0.000 A 
ATOM     23  C   UNL     1      -0.203  10.588  22.236  0.00  0.00    +0.000 A 
ATOM     24  C   UNL     1      -0.069  10.860  20.860  0.00  0.00    +0.000 A 
ATOM     25  C   UNL     1       0.675   9.878  20.113  0.00  0.00    +0.000 A 
ENDBRANCH   1  24
TORSDOF 1
ENDMDL
MODEL 4
REMARK VINA RESULT:      -7.0      2.310      4.281
REMARK  Name = 
REMARK  2 active torsions:
REMARK  status: ('A' for Active; 'I' for Inactive)
REMARK    1  A    between atoms: C_1  and  C_2
REMARK    2  A    between atoms: C_6  and  C_7
REMARK                            x       y       z     vdW  Elec       q    Type
REMARK                         _______ _______ _______ _____ _____    ______ ____
ROOT
ATOM      1  C   UNL     1      -2.826  11.413  18.360  0.00  0.00    +0.000 C 
ATOM      2  C   UNL     1      -3.185  10.191  17.483  0.00  0.00    +0.000 C 
ATOM      3  C   UNL     1      -4.122  10.747  16.477  0.00  0.00    +0.000 C 
ATOM      4  O   UNL     1      -3.790  11.224  15.397  0.00  0.00    +0.000 OA
ATOM      5  N   UNL     1      -5.333  11.027  17.087  0.00  0.00    +0.000 N 
ATOM      6  C   UNL     1      -5.250  11.884  18.180  0.00  0.00    +0.000 C 
ATOM      7  C   UNL     1      -4.145  11.970  18.974  0.00  0.00    +0.000 C 
ATOM      8  C   UNL     1      -4.448  12.699  20.252  0.00  0.00    +0.000 C 
ATOM      9  O   UNL     1      -3.590  12.968  21.075  0.00  0.00    +0.000 OA
ATOM     10  C   UNL     1      -5.973  13.085  20.520  0.00  0.00    +0.000 C 
ATOM     11  O   UNL     1      -6.516  13.008  21.605  0.00  0.00    +0.000 OA
ATOM     12  C   UNL     1      -6.681  13.552  19.308  0.00  0.00    +0.000 A 
ATOM     13  C   UNL     1      -7.610  14.592  19.267  0.00  0.00    +0.000 A 
ATOM     14  C   UNL     1      -7.886  15.229  18.053  0.00  0.00    +0.000 A 
ATOM     15  C   UNL     1      -7.263  14.774  16.866  0.00  0.00    +0.000 A 
ATOM     16  C   UNL     1      -6.464  13.644  16.911  0.00  0.00    +0.000 A 
ATOM     17  C   UNL     1      -6.193  13.005  18.134  0.00  0.00    +0.000 A 
ATOM     18  H   UNL     1      -5.724  10.145  17.414  0.00  0.00    +0.000 HD
ENDROOT
BRANCH   1  24
ATOM     19  C   UNL     1       1.651   8.957  18.354  0.00  0.00    +0.000 C 
ATOM     20  C   UNL     1       0.872  10.241  18.465  0.00  0.00    +0.000 A 
ATOM     21  C   UNL     1       1.481  11.363  19.006  0.00  0.00    +0.000 A 
ATOM     22  C   UNL     1       0.765  12.561  19.107  0.00  0.00    +0.000 A 
ATOM     23  C   UNL     1      -0.579  12.658  18.658  0.00  0.00    +0.000 A 
ATOM     24  C   UNL     1      -1.266  11.537  18.152  0.00  0.00    +0.000 A 
ATOM     25  C   UNL     1      -0.480  10.333  18.051  0.00  0.00    +0.000 A 
ENDBRANCH   1  24
TORSDOF 1
ENDMDL
MODEL 5
REMARK VINA RESULT:      -6.9      3.704      5.001
REMARK  Name = 
REMARK  2 active torsions:
REMARK  status: ('A' for Active; 'I' for Inactive)
REMARK    1  A    between atoms: C_1  and  C_2
REMARK    2  A    between atoms: C_6  and  C_7
REMARK                            x       y       z     vdW  Elec       q    Type
REMARK                         _______ _______ _______ _____ _____    ______ ____
ROOT
ATOM      1  C   UNL     1       1.070   8.975  19.792  0.00  0.00    +0.000 C 
ATOM      2  C   UNL     1       0.920   9.107  18.258  0.00  0.00    +0.000 C 
ATOM      3  C   UNL     1       1.535  10.423  17.960  0.00  0.00    +0.000 C 
ATOM      4  O   UNL     1       2.720  10.601  17.698  0.00  0.00    +0.000 OA
ATOM      5  N   UNL     1       0.702  11.431  18.417  0.00  0.00    +0.000 N 
ATOM      6  C   UNL     1       0.384  11.353  19.769  0.00  0.00    +0.000 C 
ATOM      7  C   UNL     1       0.332  10.176  20.455  0.00  0.00    +0.000 C 
ATOM      8  C   UNL     1      -0.358  10.345  21.778  0.00  0.00    +0.000 C 
ATOM      9  O   UNL     1      -0.444   9.445  22.595  0.00  0.00    +0.000 OA
ATOM     10  C   UNL     1      -1.022  11.767  22.070  0.00  0.00    +0.000 C 
ATOM     11  O   UNL     1      -2.096  11.917  22.621  0.00  0.00    +0.000 OA
ATOM     12  C   UNL     1      -0.202  12.904  21.601  0.00  0.00    +0.000 A 
ATOM     13  C   UNL     1      -0.039  14.114  22.277  0.00  0.00    +0.000 A 
ATOM     14  C   UNL     1       1.061  14.928  21.988  0.00  0.00    +0.000 A 
ATOM     15  C   UNL     1       1.967  14.545  20.969  0.00  0.00    +0.000 A 
ATOM     16  C   UNL     1       1.696  13.418  20.211  0.00  0.00    +0.000 A 
ATOM     17  C   UNL     1       0.587  12.606  20.504  0.00  0.00    +0.000 A 
ATOM     18  H   UNL     1      -0.168  11.373  17.890  0.00  0.00    +0.000 HD
ENDROOT
BRANCH   1  24
ATOM     19  C   UNL     1       3.870   5.473  17.348  0.00  0.00    +0.000 C 
ATOM     20  C   UNL     1       3.076   5.890  18.557  0.00  0.00    +0.000 A 
ATOM     21  C   UNL     1       2.637   4.925  19.451  0.00  0.00    +0.000 A 
ATOM     22  C   UNL     1       1.904   5.306  20.580  0.00  0.00    +0.000 A 
ATOM     23  C   UNL     1       1.602   6.670  20.838  0.00  0.00    +0.000 A 
ATOM     24  C   UNL     1       1.972   7.687  19.937  0.00  0.00    +0.000 A 
ATOM     25  C   UNL     1       2.741   7.246  18.800  0.00  0.00    +0.000 A 
ENDBRANCH   1  24
TORSDOF 1
ENDMDL
MODEL 6
REMARK VINA RESULT:      -6.8      1.389      2.456
REMARK  Name = 
REMARK  2 active torsions:
REMARK  status: ('A' for Active; 'I' for Inactive)
REMARK    1  A    between atoms: C_1  and  C_2
REMARK    2  A    between atoms: C_6  and  C_7
REMARK                            x       y       z     vdW  Elec       q    Type
REMARK                         _______ _______ _______ _____ _____    ______ ____
ROOT
ATOM      1  C   UNL     1      -1.967  11.401  18.987  0.00  0.00    +0.000 C 
ATOM      2  C   UNL     1      -1.087  12.573  19.480  0.00  0.00    +0.000 C 
ATOM      3  C   UNL     1      -1.751  13.006  20.733  0.00  0.00    +0.000 C 
ATOM      4  O   UNL     1      -1.504  12.561  21.849  0.00  0.00    +0.000 OA
ATOM      5  N   UNL     1      -2.937  13.650  20.422  0.00  0.00    +0.000 N 
ATOM      6  C   UNL     1      -3.821  12.901  19.652  0.00  0.00    +0.000 C 
ATOM      7  C   UNL     1      -3.413  11.940  18.775  0.00  0.00    +0.000 C 
ATOM      8  C   UNL     1      -4.525  11.542  17.847  0.00  0.00    +0.000 C 
ATOM      9  O   UNL     1      -4.413  10.640  17.036  0.00  0.00    +0.000 OA
ATOM     10  C   UNL     1      -5.877  12.385  17.936  0.00  0.00    +0.000 C 
ATOM     11  O   UNL     1      -6.536  12.720  16.970  0.00  0.00    +0.000 OA
ATOM     12  C   UNL     1      -6.263  12.730  19.321  0.00  0.00    +0.000 A 
ATOM     13  C   UNL     1      -7.567  12.731  19.819  0.00  0.00    +0.000 A 
ATOM     14  C   UNL     1      -7.784  12.643  21.197  0.00  0.00    +0.000 A 
ATOM     15  C   UNL     1      -6.677  12.613  22.080  0.00  0.00    +0.000 A 
ATOM     16  C   UNL     1      -5.399  12.768  21.569  0.00  0.00    +0.000 A 
ATOM     17  C   UNL     1      -5.187  12.859  20.182  0.00  0.00    +0.000 A 
ATOM     18  H   UNL     1      -2.702  14.490  19.895  0.00  0.00    +0.000 HD
ENDROOT
BRANCH   1  24
ATOM     19  C   UNL     1       1.353   8.684  21.757  0.00  0.00    +0.000 C 
ATOM     20  C   UNL     1       0.842   9.135  20.415  0.00  0.00    +0.000 A 
ATOM     21  C   UNL     1       1.648   8.991  19.295  0.00  0.00    +0.000 A 
ATOM     22  C   UNL     1       1.178   9.403  18.043  0.00  0.00    +0.000 A 
ATOM     23  C   UNL     1      -0.118   9.964  17.890  0.00  0.00    +0.000 A 
ATOM     24  C   UNL     1      -0.958  10.187  18.998  0.00  0.00    +0.000 A 
ATOM     25  C   UNL     1      -0.436   9.729  20.261  0.00  0.00    +0.000 A 
ENDBRANCH   1  24
TORSDOF 1
ENDMDL
MODEL 7
REMARK VINA RESULT:      -6.8      7.111      9.845
REMARK  Name = 
REMARK  2 active torsions:
REMARK  status: ('A' for Active; 'I' for Inactive)
REMARK    1  A    between atoms: C_1  and  C_2
REMARK    2  A    between atoms: C_6  and  C_7
REMARK                            x       y       z     vdW  Elec       q    Type
REMARK                         _______ _______ _______ _____ _____    ______ ____
ROOT
ATOM      1  C   UNL     1       5.787   5.940  16.643  0.00  0.00    +0.000 C 
ATOM      2  C   UNL     1       7.219   6.021  17.220  0.00  0.00    +0.000 C 
ATOM      3  C   UNL     1       7.286   4.868  18.151  0.00  0.00    +0.000 C 
ATOM      4  O   UNL     1       7.646   3.736  17.843  0.00  0.00    +0.000 OA
ATOM      5  N   UNL     1       6.512   5.138  19.268  0.00  0.00    +0.000 N 
ATOM      6  C   UNL     1       5.184   5.448  18.993  0.00  0.00    +0.000 C 
ATOM      7  C   UNL     1       4.782   6.034  17.830  0.00  0.00    +0.000 C 
ATOM      8  C   UNL     1       3.380   6.560  17.940  0.00  0.00    +0.000 C 
ATOM      9  O   UNL     1       2.784   7.049  16.996  0.00  0.00    +0.000 OA
ATOM     10  C   UNL     1       2.693   6.490  19.379  0.00  0.00    +0.000 C 
ATOM     11  O   UNL     1       1.993   7.369  19.844  0.00  0.00    +0.000 OA
ATOM     12  C   UNL     1       2.990   5.240  20.110  0.00  0.00    +0.000 A 
ATOM     13  C   UNL     1       2.083   4.531  20.899  0.00  0.00    +0.000 A 
ATOM     14  C   UNL     1       2.315   3.182  21.181  0.00  0.00    +0.000 A 
ATOM     15  C   UNL     1       3.498   2.561  20.713  0.00  0.00    +0.000 A 
ATOM     16  C   UNL     1       4.453   3.326  20.064  0.00  0.00    +0.000 A 
ATOM     17  C   UNL     1       4.216   4.684  19.786  0.00  0.00    +0.000 A 
ATOM     18  H   UNL     1       6.926   5.939  19.742  0.00  0.00    +0.000 HD
ENDROOT
BRANCH   1  24
ATOM     19  C   UNL     1       4.650   3.207  12.482  0.00  0.00    +0.000 C 
ATOM     20  C   UNL     1       5.592   4.119  13.221  0.00  0.00    +0.000 A 
ATOM     21  C   UNL     1       6.910   4.224  12.800  0.00  0.00    +0.000 A 
ATOM     22  C   UNL     1       7.790   5.074  13.479  0.00  0.00    +0.000 A 
ATOM     23  C   UNL     1       7.361   5.843  14.593  0.00  0.00    +0.000 A 
ATOM     24  C   UNL     1       6.051   5.735  15.100  0.00  0.00    +0.000 A 
ATOM     25  C   UNL     1       5.179   4.861  14.356  0.00  0.00    +0.000 A 
ENDBRANCH   1  24
TORSDOF 1
ENDMDL
MODEL 8
REMARK VINA RESULT:      -6.8      2.500      3.584
REMARK  Name = 
REMARK  2 active torsions:
REMARK  status: ('A' for Active; 'I' for Inactive)
REMARK    1  A    between atoms: C_1  and  C_2
REMARK    2  A    between atoms: C_6  and  C_7
REMARK                            x       y       z     vdW  Elec       q    Type
REMARK                         _______ _______ _______ _____ _____    ______ ____
ROOT
ATOM      1  C   UNL     1      -1.571  11.780  20.174  0.00  0.00    +0.000 C 
ATOM      2  C   UNL     1      -0.417  12.647  20.729  0.00  0.00    +0.000 C 
ATOM      3  C   UNL     1      -0.709  12.729  22.180  0.00  0.00    +0.000 C 
ATOM      4  O   UNL     1      -0.306  11.936  23.025  0.00  0.00    +0.000 OA
ATOM      5  N   UNL     1      -1.805  13.552  22.379  0.00  0.00    +0.000 N 
ATOM      6  C   UNL     1      -2.951  13.172  21.687  0.00  0.00    +0.000 C 
ATOM      7  C   UNL     1      -2.914  12.498  20.503  0.00  0.00    +0.000 C 
ATOM      8  C   UNL     1      -4.252  12.521  19.820  0.00  0.00    +0.000 C 
ATOM      9  O   UNL     1      -4.475  11.910  18.789  0.00  0.00    +0.000 OA
ATOM     10  C   UNL     1      -5.388  13.422  20.487  0.00  0.00    +0.000 C 
ATOM     11  O   UNL     1      -6.173  14.105  19.858  0.00  0.00    +0.000 OA
ATOM     12  C   UNL     1      -5.399  13.354  21.964  0.00  0.00    +0.000 A 
ATOM     13  C   UNL     1      -6.543  13.328  22.762  0.00  0.00    +0.000 A 
ATOM     14  C   UNL     1      -6.468  12.836  24.068  0.00  0.00    +0.000 A 
ATOM     15  C   UNL     1      -5.219  12.423  24.590  0.00  0.00    +0.000 A 
ATOM     16  C   UNL     1      -4.075  12.603  23.831  0.00  0.00    +0.000 A 
ATOM     17  C   UNL     1      -4.156  13.101  22.518  0.00  0.00    +0.000 A 
ATOM     18  H   UNL     1      -1.550  14.487  22.065  0.00  0.00    +0.000 HD
ENDROOT
BRANCH   1  24
ATOM     19  C   UNL     1       1.559   7.873  21.182  0.00  0.00    +0.000 C 
ATOM     20  C   UNL     1       0.954   8.833  20.192  0.00  0.00    +0.000 A 
ATOM     21  C   UNL     1       1.554   9.002  18.953  0.00  0.00    +0.000 A 
ATOM     22  C   UNL     1       0.994   9.888  18.026  0.00  0.00    +0.000 A 
ATOM     23  C   UNL     1      -0.187  10.619  18.324  0.00  0.00    +0.000 A 
ATOM     24  C   UNL     1      -0.807  10.530  19.585  0.00  0.00    +0.000 A 
ATOM     25  C   UNL     1      -0.203   9.591  20.497  0.00  0.00    +0.000 A 
ENDBRANCH   1  24
TORSDOF 1
ENDMDL
MODEL 9
REMARK VINA RESULT:      -6.8      4.165      6.152
REMARK  Name = 
REMARK  2 active torsions:
REMARK  status: ('A' for Active; 'I' for Inactive)
REMARK    1  A    between atoms: C_1  and  C_2
REMARK    2  A    between atoms: C_6  and  C_7
REMARK                            x       y       z     vdW  Elec       q    Type
REMARK                         _______ _______ _______ _____ _____    ______ ____
ROOT
ATOM      1  C   UNL     1       0.724  13.599  20.370  0.00  0.00    +0.000 C 
ATOM      2  C   UNL     1       0.234  14.093  21.752  0.00  0.00    +0.000 C 
ATOM      3  C   UNL     1      -0.730  15.168  21.416  0.00  0.00    +0.000 C 
ATOM      4  O   UNL     1      -1.931  15.001  21.228  0.00  0.00    +0.000 OA
ATOM      5  N   UNL     1      -0.038  16.272  20.947  0.00  0.00    +0.000 N 
ATOM      6  C   UNL     1       0.787  16.020  19.856  0.00  0.00    +0.000 C 
ATOM      7  C   UNL     1       1.367  14.808  19.626  0.00  0.00    +0.000 C 
ATOM      8  C   UNL     1       2.457  14.910  18.599  0.00  0.00    +0.000 C 
ATOM      9  O   UNL     1       3.056  13.936  18.175  0.00  0.00    +0.000 OA
ATOM     10  C   UNL     1       2.841  16.375  18.096  0.00  0.00    +0.000 C 
ATOM     11  O   UNL     1       3.979  16.748  17.886  0.00  0.00    +0.000 OA
ATOM     12  C   UNL     1       1.668  17.255  17.906  0.00  0.00    +0.000 A 
ATOM     13  C   UNL     1       1.509  18.175  16.869  0.00  0.00    +0.000 A 
ATOM     14  C   UNL     1       0.229  18.628  16.532  0.00  0.00    +0.000 A 
ATOM     15  C   UNL     1      -0.888  18.194  17.286  0.00  0.00    +0.000 A 
ATOM     16  C   UNL     1      -0.684  17.403  18.405  0.00  0.00    +0.000 A 
ATOM     17  C   UNL     1       0.606  16.954  18.740  0.00  0.00    +0.000 A 
ATOM     18  H   UNL     1       0.548  16.613  21.707  0.00  0.00    +0.000 HD
ENDROOT
BRANCH   1  24
ATOM     19  C   UNL     1      -0.353   9.495  23.212  0.00  0.00    +0.000 C 
ATOM     20  C   UNL     1       0.046  10.092  21.889  0.00  0.00    +0.000 A 
ATOM     21  C   UNL     1       0.608   9.279  20.915  0.00  0.00    +0.000 A 
ATOM     22  C   UNL     1       0.977   9.826  19.682  0.00  0.00    +0.000 A 
ATOM     23  C   UNL     1       0.780  11.204  19.397  0.00  0.00    +0.000 A 
ATOM     24  C   UNL     1       0.267  12.088  20.366  0.00  0.00    +0.000 A 
ATOM     25  C   UNL     1      -0.114  11.473  21.612  0.00  0.00    +0.000 A 
ENDBRANCH   1  24
TORSDOF 1
ENDMDL
