MODEL 1
REMARK VINA RESULT:      -9.0      0.000      0.000
REMARK  Name = 
REMARK  4 active torsions:
REMARK  status: ('A' for Active; 'I' for Inactive)
REMARK    1  A    between atoms: C_1  and  C_2
REMARK    2  A    between atoms: C_2  and  C_3
REMARK    3  A    between atoms: C_14  and  S_15
REMARK    4  A    between atoms: S_15  and  C_18
REMARK                            x       y       z     vdW  Elec       q    Type
REMARK                         _______ _______ _______ _____ _____    ______ ____
ROOT
ATOM      1  C   UNL     1       5.024   4.287  17.812  0.00  0.00    +0.000 C 
ATOM      2  C   UNL     1       3.658   3.961  18.439  0.00  0.00    +0.000 C 
ATOM      3  N   UNL     1       3.946   3.020  19.594  0.00  0.00    +0.000 NA
ATOM      4  C   UNL     1       2.794   2.897  20.524  0.00  0.00    +0.000 C 
ATOM      5  C   UNL     1       2.398   4.226  21.212  0.00  0.00    +0.000 C 
ATOM      6  C   UNL     1       2.409   5.338  20.230  0.00  0.00    +0.000 A 
ATOM      7  C   UNL     1       3.007   5.200  18.996  0.00  0.00    +0.000 A 
ATOM      8  O   UNL     1       2.927   6.359  18.287  0.00  0.00    +0.000 OA
ATOM      9  C   UNL     1       2.240   7.247  19.073  0.00  0.00    +0.000 A 
ATOM     10  C   UNL     1       1.925   8.563  18.737  0.00  0.00    +0.000 A 
ATOM     11  C   UNL     1       1.200   9.284  19.701  0.00  0.00    +0.000 A 
ATOM     12  C   UNL     1       0.839   8.724  20.932  0.00  0.00    +0.000 A 
ATOM     13  C   UNL     1       1.179   7.402  21.237  0.00  0.00    +0.000 A 
ATOM     14  C   UNL     1       1.893   6.652  20.287  0.00  0.00    +0.000 A 
ATOM     15  H   UNL     1       4.723   3.418  20.125  0.00  0.00    +0.000 HD
ENDROOT
BRANCH   2  16
ATOM     16  C   UNL     1       2.759   3.307  17.349  0.00  0.00    +0.000 C 
ATOM     17  F   UNL     1       2.745   1.951  17.450  0.00  0.00    +0.000 F 
ATOM     18  F   UNL     1       1.466   3.710  17.469  0.00  0.00    +0.000 F 
ENDBRANCH   2  16
BRANCH  11  19
ATOM     19  S   UNL     1       0.828  11.004  19.416  0.00  0.00    +0.000 S 
ATOM     20  O   UNL     1       0.851  11.664  20.711  0.00  0.00    +0.000 OA
ATOM     21  O   UNL     1       1.700  11.466  18.352  0.00  0.00    +0.000 OA
BRANCH  19  22
ATOM     22  C   UNL     1      -0.841  11.104  18.809  0.00  0.00    +0.000 A 
ATOM     23  C   UNL     1      -1.745  11.978  19.423  0.00  0.00    +0.000 A 
ATOM     24  C   UNL     1      -3.083  11.982  19.022  0.00  0.00    +0.000 A 
ATOM     25  C   UNL     1      -3.511  11.115  18.017  0.00  0.00    +0.000 A 
ATOM     26  C   UNL     1      -2.599  10.251  17.417  0.00  0.00    +0.000 A 
ATOM     27  F   UNL     1      -3.018   9.412  16.462  0.00  0.00    +0.000 F 
ATOM     28  C   UNL     1      -1.264  10.231  17.805  0.00  0.00    +0.000 A 
ENDBRANCH  19  22
ENDBRANCH  11  19
TORSDOF 3
ENDMDL
MODEL 2
REMARK VINA RESULT:      -8.7      0.938      1.320
REMARK  Name = 
REMARK  4 active torsions:
REMARK  status: ('A' for Active; 'I' for Inactive)
REMARK    1  A    between atoms: C_1  and  C_2
REMARK    2  A    between atoms: C_2  and  C_3
REMARK    3  A    between atoms: C_14  and  S_15
REMARK    4  A    between atoms: S_15  and  C_18
REMARK                            x       y       z     vdW  Elec       q    Type
REMARK                         _______ _______ _______ _____ _____    ______ ____
ROOT
ATOM      1  C   UNL     1       4.975   4.174  17.664  0.00  0.00    +0.000 C 
ATOM      2  C   UNL     1       3.638   3.852  18.353  0.00  0.00    +0.000 C 
ATOM      3  N   UNL     1       3.976   2.915  19.499  0.00  0.00    +0.000 NA
ATOM      4  C   UNL     1       2.867   2.797  20.480  0.00  0.00    +0.000 C 
ATOM      5  C   UNL     1       2.502   4.130  21.179  0.00  0.00    +0.000 C 
ATOM      6  C   UNL     1       2.471   5.237  20.192  0.00  0.00    +0.000 A 
ATOM      7  C   UNL     1       3.013   5.093  18.933  0.00  0.00    +0.000 A 
ATOM      8  O   UNL     1       2.901   6.249  18.223  0.00  0.00    +0.000 OA
ATOM      9  C   UNL     1       2.250   7.140  19.035  0.00  0.00    +0.000 A 
ATOM     10  C   UNL     1       1.921   8.455  18.708  0.00  0.00    +0.000 A 
ATOM     11  C   UNL     1       1.240   9.182  19.700  0.00  0.00    +0.000 A 
ATOM     12  C   UNL     1       0.934   8.626  20.948  0.00  0.00    +0.000 A 
ATOM     13  C   UNL     1       1.287   7.306  21.243  0.00  0.00    +0.000 A 
ATOM     14  C   UNL     1       1.957   6.551  20.266  0.00  0.00    +0.000 A 
ATOM     15  H   UNL     1       4.776   3.315  19.992  0.00  0.00    +0.000 HD
ENDROOT
BRANCH   2  16
ATOM     16  C   UNL     1       2.691   3.193  17.307  0.00  0.00    +0.000 C 
ATOM     17  F   UNL     1       2.673   1.838  17.422  0.00  0.00    +0.000 F 
ATOM     18  F   UNL     1       1.406   3.605  17.476  0.00  0.00    +0.000 F 
ENDBRANCH   2  16
BRANCH  11  19
ATOM     19  S   UNL     1       0.857  10.900  19.424  0.00  0.00    +0.000 S 
ATOM     20  O   UNL     1       0.961  11.571  20.709  0.00  0.00    +0.000 OA
ATOM     21  O   UNL     1       1.663  11.351  18.304  0.00  0.00    +0.000 OA
BRANCH  19  22
ATOM     22  C   UNL     1      -0.846  11.001  18.920  0.00  0.00    +0.000 A 
ATOM     23  C   UNL     1      -1.273  10.288  17.793  0.00  0.00    +0.000 A 
ATOM     24  C   UNL     1      -2.581  10.448  17.330  0.00  0.00    +0.000 A 
ATOM     25  C   UNL     1      -3.451  11.317  17.987  0.00  0.00    +0.000 A 
ATOM     26  C   UNL     1      -3.011  12.020  19.105  0.00  0.00    +0.000 A 
ATOM     27  F   UNL     1      -3.847  12.862  19.724  0.00  0.00    +0.000 F 
ATOM     28  C   UNL     1      -1.712  11.876  19.580  0.00  0.00    +0.000 A 
ENDBRANCH  19  22
ENDBRANCH  11  19
TORSDOF 3
ENDMDL
MODEL 3
REMARK VINA RESULT:      -8.3      1.500      1.876
REMARK  Name = 
REMARK  4 active torsions:
REMARK  status: ('A' for Active; 'I' for Inactive)
REMARK    1  A    between atoms: C_1  and  C_2
REMARK    2  A    between atoms: C_2  and  C_3
REMARK    3  A    between atoms: C_14  and  S_15
REMARK    4  A    between atoms: S_15  and  C_18
REMARK                            x       y       z     vdW  Elec       q    Type
REMARK                         _______ _______ _______ _____ _____    ______ ____
ROOT
ATOM      1  C   UNL     1       6.518   5.443  17.402  0.00  0.00    +0.000 C 
ATOM      2  C   UNL     1       5.187   4.739  17.712  0.00  0.00    +0.000 C 
ATOM      3  N   UNL     1       5.510   3.672  18.742  0.00  0.00    +0.000 NA
ATOM      4  C   UNL     1       4.294   3.148  19.415  0.00  0.00    +0.000 C 
ATOM      5  C   UNL     1       3.509   4.217  20.215  0.00  0.00    +0.000 C 
ATOM      6  C   UNL     1       3.409   5.474  19.433  0.00  0.00    +0.000 A 
ATOM      7  C   UNL     1       4.196   5.695  18.323  0.00  0.00    +0.000 A 
ATOM      8  O   UNL     1       3.957   6.927  17.797  0.00  0.00    +0.000 OA
ATOM      9  C   UNL     1       2.978   7.494  18.571  0.00  0.00    +0.000 A 
ATOM     10  C   UNL     1       2.423   8.761  18.389  0.00  0.00    +0.000 A 
ATOM     11  C   UNL     1       1.421   9.127  19.303  0.00  0.00    +0.000 A 
ATOM     12  C   UNL     1       1.022   8.283  20.346  0.00  0.00    +0.000 A 
ATOM     13  C   UNL     1       1.607   7.023  20.502  0.00  0.00    +0.000 A 
ATOM     14  C   UNL     1       2.604   6.623  19.595  0.00  0.00    +0.000 A 
ATOM     15  H   UNL     1       6.090   4.110  19.460  0.00  0.00    +0.000 HD
ENDROOT
BRANCH   2  16
ATOM     16  C   UNL     1       4.629   4.136  16.388  0.00  0.00    +0.000 C 
ATOM     17  F   UNL     1       3.291   3.907  16.459  0.00  0.00    +0.000 F 
ATOM     18  F   UNL     1       4.814   4.986  15.343  0.00  0.00    +0.000 F 
ENDBRANCH   2  16
BRANCH  11  19
ATOM     19  S   UNL     1       0.712  10.761  19.222  0.00  0.00    +0.000 S 
ATOM     20  O   UNL     1       0.533  11.215  20.590  0.00  0.00    +0.000 OA
ATOM     21  O   UNL     1       1.518  11.539  18.299  0.00  0.00    +0.000 OA
BRANCH  19  22
ATOM     22  C   UNL     1      -0.910  10.612  18.505  0.00  0.00    +0.000 A 
ATOM     23  C   UNL     1      -1.093   9.799  17.379  0.00  0.00    +0.000 A 
ATOM     24  C   UNL     1      -2.338   9.763  16.749  0.00  0.00    +0.000 A 
ATOM     25  C   UNL     1      -3.389  10.538  17.239  0.00  0.00    +0.000 A 
ATOM     26  C   UNL     1      -3.191  11.342  18.358  0.00  0.00    +0.000 A 
ATOM     27  F   UNL     1      -4.200  12.092  18.815  0.00  0.00    +0.000 F 
ATOM     28  C   UNL     1      -1.958  11.393  18.997  0.00  0.00    +0.000 A 
ENDBRANCH  19  22
ENDBRANCH  11  19
TORSDOF 3
ENDMDL
MODEL 4
REMARK VINA RESULT:      -8.1      1.687      2.527
REMARK  Name = 
REMARK  4 active torsions:
REMARK  status: ('A' for Active; 'I' for Inactive)
REMARK    1  A    between atoms: C_1  and  C_2
REMARK    2  A    between atoms: C_2  and  C_3
REMARK    3  A    between atoms: C_14  and  S_15
REMARK    4  A    between atoms: S_15  and  C_18
REMARK                            x       y       z     vdW  Elec       q    Type
REMARK                         _______ _______ _______ _____ _____    ______ ____
ROOT
ATOM      1  C   UNL     1       1.623   2.163  19.644  0.00  0.00    +0.000 C 
ATOM      2  C   UNL     1       2.889   2.984  19.346  0.00  0.00    +0.000 C 
ATOM      3  N   UNL     1       3.325   2.582  17.949  0.00  0.00    +0.000 NA
ATOM      4  C   UNL     1       4.307   3.533  17.367  0.00  0.00    +0.000 C 
ATOM      5  C   UNL     1       3.760   4.971  17.191  0.00  0.00    +0.000 C 
ATOM      6  C   UNL     1       2.992   5.380  18.393  0.00  0.00    +0.000 A 
ATOM      7  C   UNL     1       2.590   4.460  19.336  0.00  0.00    +0.000 A 
ATOM      8  O   UNL     1       1.870   5.061  20.322  0.00  0.00    +0.000 OA
ATOM      9  C   UNL     1       1.835   6.396  20.016  0.00  0.00    +0.000 A 
ATOM     10  C   UNL     1       1.201   7.390  20.763  0.00  0.00    +0.000 A 
ATOM     11  C   UNL     1       1.309   8.697  20.259  0.00  0.00    +0.000 A 
ATOM     12  C   UNL     1       1.989   8.980  19.068  0.00  0.00    +0.000 A 
ATOM     13  C   UNL     1       2.605   7.956  18.343  0.00  0.00    +0.000 A 
ATOM     14  C   UNL     1       2.526   6.640  18.829  0.00  0.00    +0.000 A 
ATOM     15  H   UNL     1       2.495   2.601  17.354  0.00  0.00    +0.000 HD
ENDROOT
BRANCH   2  16
ATOM     16  C   UNL     1       3.961   2.644  20.423  0.00  0.00    +0.000 C 
ATOM     17  F   UNL     1       3.396   2.270  21.601  0.00  0.00    +0.000 F 
ATOM     18  F   UNL     1       4.744   1.603  20.030  0.00  0.00    +0.000 F 
ENDBRANCH   2  16
BRANCH  11  19
ATOM     19  S   UNL     1       0.456  10.029  21.081  0.00  0.00    +0.000 S 
ATOM     20  O   UNL     1      -0.257   9.447  22.205  0.00  0.00    +0.000 OA
ATOM     21  O   UNL     1       1.421  11.090  21.305  0.00  0.00    +0.000 OA
BRANCH  19  22
ATOM     22  C   UNL     1      -0.769  10.663  19.957  0.00  0.00    +0.000 A 
ATOM     23  C   UNL     1      -1.475  11.824  20.292  0.00  0.00    +0.000 A 
ATOM     24  C   UNL     1      -2.511  12.265  19.465  0.00  0.00    +0.000 A 
ATOM     25  C   UNL     1      -2.839  11.546  18.317  0.00  0.00    +0.000 A 
ATOM     26  C   UNL     1      -2.128  10.392  17.998  0.00  0.00    +0.000 A 
ATOM     27  F   UNL     1      -2.456   9.700  16.901  0.00  0.00    +0.000 F 
ATOM     28  C   UNL     1      -1.096   9.936  18.809  0.00  0.00    +0.000 A 
ENDBRANCH  19  22
ENDBRANCH  11  19
TORSDOF 3
ENDMDL
MODEL 5
REMARK VINA RESULT:      -8.1      2.043      2.950
REMARK  Name = 
REMARK  4 active torsions:
REMARK  status: ('A' for Active; 'I' for Inactive)
REMARK    1  A    between atoms: C_1  and  C_2
REMARK    2  A    between atoms: C_2  and  C_3
REMARK    3  A    between atoms: C_14  and  S_15
REMARK    4  A    between atoms: S_15  and  C_18
REMARK                            x       y       z     vdW  Elec       q    Type
REMARK                         _______ _______ _______ _____ _____    ______ ____
ROOT
ATOM      1  C   UNL     1       1.866   1.916  19.590  0.00  0.00    +0.000 C 
ATOM      2  C   UNL     1       3.095   2.771  19.236  0.00  0.00    +0.000 C 
ATOM      3  N   UNL     1       3.474   2.386  17.818  0.00  0.00    +0.000 NA
ATOM      4  C   UNL     1       4.402   3.364  17.194  0.00  0.00    +0.000 C 
ATOM      5  C   UNL     1       3.810   4.788  17.053  0.00  0.00    +0.000 C 
ATOM      6  C   UNL     1       3.091   5.173  18.292  0.00  0.00    +0.000 A 
ATOM      7  C   UNL     1       2.758   4.239  19.248  0.00  0.00    +0.000 A 
ATOM      8  O   UNL     1       2.071   4.817  20.271  0.00  0.00    +0.000 OA
ATOM      9  C   UNL     1       1.987   6.152  19.974  0.00  0.00    +0.000 A 
ATOM     10  C   UNL     1       1.365   7.126  20.755  0.00  0.00    +0.000 A 
ATOM     11  C   UNL     1       1.414   8.437  20.253  0.00  0.00    +0.000 A 
ATOM     12  C   UNL     1       2.029   8.743  19.033  0.00  0.00    +0.000 A 
ATOM     13  C   UNL     1       2.636   7.738  18.274  0.00  0.00    +0.000 A 
ATOM     14  C   UNL     1       2.613   6.418  18.756  0.00  0.00    +0.000 A 
ATOM     15  H   UNL     1       2.616   2.386  17.264  0.00  0.00    +0.000 HD
ENDROOT
BRANCH   2  16
ATOM     16  C   UNL     1       4.226   2.455  20.259  0.00  0.00    +0.000 C 
ATOM     17  F   UNL     1       3.732   2.203  21.500  0.00  0.00    +0.000 F 
ATOM     18  F   UNL     1       4.924   1.345  19.896  0.00  0.00    +0.000 F 
ENDBRANCH   2  16
BRANCH  11  19
ATOM     19  S   UNL     1       0.568   9.744  21.122  0.00  0.00    +0.000 S 
ATOM     20  O   UNL     1      -0.698   9.198  21.582  0.00  0.00    +0.000 OA
ATOM     21  O   UNL     1       1.504  10.308  22.077  0.00  0.00    +0.000 OA
BRANCH  19  22
ATOM     22  C   UNL     1       0.187  11.020  19.942  0.00  0.00    +0.000 A 
ATOM     23  C   UNL     1       0.996  12.161  19.878  0.00  0.00    +0.000 A 
ATOM     24  C   UNL     1       0.641  13.213  19.031  0.00  0.00    +0.000 A 
ATOM     25  C   UNL     1      -0.517  13.124  18.259  0.00  0.00    +0.000 A 
ATOM     26  C   UNL     1      -1.312  11.983  18.335  0.00  0.00    +0.000 A 
ATOM     27  F   UNL     1      -2.428  11.909  17.601  0.00  0.00    +0.000 F 
ATOM     28  C   UNL     1      -0.976  10.927  19.174  0.00  0.00    +0.000 A 
ENDBRANCH  19  22
ENDBRANCH  11  19
TORSDOF 3
ENDMDL
MODEL 6
REMARK VINA RESULT:      -8.1      1.756      2.730
REMARK  Name = 
REMARK  4 active torsions:
REMARK  status: ('A' for Active; 'I' for Inactive)
REMARK    1  A    between atoms: C_1  and  C_2
REMARK    2  A    between atoms: C_2  and  C_3
REMARK    3  A    between atoms: C_14  and  S_15
REMARK    4  A    between atoms: S_15  and  C_18
REMARK                            x       y       z     vdW  Elec       q    Type
REMARK                         _______ _______ _______ _____ _____    ______ ____
ROOT
ATOM      1  C   UNL     1       1.532   2.410  19.483  0.00  0.00    +0.000 C 
ATOM      2  C   UNL     1       2.880   3.100  19.214  0.00  0.00    +0.000 C 
ATOM      3  N   UNL     1       3.416   2.481  17.936  0.00  0.00    +0.000 NA
ATOM      4  C   UNL     1       4.519   3.278  17.340  0.00  0.00    +0.000 C 
ATOM      5  C   UNL     1       4.102   4.709  16.919  0.00  0.00    +0.000 C 
ATOM      6  C   UNL     1       3.257   5.328  17.968  0.00  0.00    +0.000 A 
ATOM      7  C   UNL     1       2.697   4.576  18.977  0.00  0.00    +0.000 A 
ATOM      8  O   UNL     1       1.934   5.352  19.794  0.00  0.00    +0.000 OA
ATOM      9  C   UNL     1       2.030   6.632  19.312  0.00  0.00    +0.000 A 
ATOM     10  C   UNL     1       1.406   7.757  19.850  0.00  0.00    +0.000 A 
ATOM     11  C   UNL     1       1.661   8.972  19.191  0.00  0.00    +0.000 A 
ATOM     12  C   UNL     1       2.472   9.043  18.052  0.00  0.00    +0.000 A 
ATOM     13  C   UNL     1       3.075   7.892  17.537  0.00  0.00    +0.000 A 
ATOM     14  C   UNL     1       2.848   6.664  18.183  0.00  0.00    +0.000 A 
ATOM     15  H   UNL     1       2.650   2.469  17.260  0.00  0.00    +0.000 HD
ENDROOT
BRANCH   2  16
ATOM     16  C   UNL     1       3.815   2.847  20.434  0.00  0.00    +0.000 C 
ATOM     17  F   UNL     1       3.113   2.549  21.558  0.00  0.00    +0.000 F 
ATOM     18  F   UNL     1       4.642   1.790  20.211  0.00  0.00    +0.000 F 
ENDBRANCH   2  16
BRANCH  11  19
ATOM     19  S   UNL     1       0.838  10.457  19.735  0.00  0.00    +0.000 S 
ATOM     20  O   UNL     1       0.566  10.297  21.154  0.00  0.00    +0.000 OA
ATOM     21  O   UNL     1       1.625  11.584  19.271  0.00  0.00    +0.000 OA
BRANCH  19  22
ATOM     22  C   UNL     1      -0.735  10.537  18.908  0.00  0.00    +0.000 A 
ATOM     23  C   UNL     1      -0.931   9.808  17.729  0.00  0.00    +0.000 A 
ATOM     24  C   UNL     1      -2.125   9.952  17.019  0.00  0.00    +0.000 A 
ATOM     25  C   UNL     1      -3.111  10.822  17.483  0.00  0.00    +0.000 A 
ATOM     26  C   UNL     1      -2.900  11.541  18.657  0.00  0.00    +0.000 A 
ATOM     27  F   UNL     1      -3.846  12.383  19.091  0.00  0.00    +0.000 F 
ATOM     28  C   UNL     1      -1.718  11.413  19.376  0.00  0.00    +0.000 A 
ENDBRANCH  19  22
ENDBRANCH  11  19
TORSDOF 3
ENDMDL
MODEL 7
REMARK VINA RESULT:      -8.1      2.323      3.178
REMARK  Name = 
REMARK  4 active torsions:
REMARK  status: ('A' for Active; 'I' for Inactive)
REMARK    1  A    between atoms: C_1  and  C_2
REMARK    2  A    between atoms: C_2  and  C_3
REMARK    3  A    between atoms: C_14  and  S_15
REMARK    4  A    between atoms: S_15  and  C_18
REMARK                            x       y       z     vdW  Elec       q    Type
REMARK                         _______ _______ _______ _____ _____    ______ ____
ROOT
ATOM      1  C   UNL     1       2.126   1.793  19.249  0.00  0.00    +0.000 C 
ATOM      2  C   UNL     1       3.335   2.711  19.010  0.00  0.00    +0.000 C 
ATOM      3  N   UNL     1       3.787   2.441  17.586  0.00  0.00    +0.000 NA
ATOM      4  C   UNL     1       4.703   3.493  17.074  0.00  0.00    +0.000 C 
ATOM      5  C   UNL     1       4.065   4.902  17.004  0.00  0.00    +0.000 C 
ATOM      6  C   UNL     1       3.280   5.172  18.234  0.00  0.00    +0.000 A 
ATOM      7  C   UNL     1       2.943   4.163  19.108  0.00  0.00    +0.000 A 
ATOM      8  O   UNL     1       2.192   4.643  20.137  0.00  0.00    +0.000 OA
ATOM      9  C   UNL     1       2.071   5.992  19.929  0.00  0.00    +0.000 A 
ATOM     10  C   UNL     1       1.380   6.886  20.747  0.00  0.00    +0.000 A 
ATOM     11  C   UNL     1       1.402   8.231  20.340  0.00  0.00    +0.000 A 
ATOM     12  C   UNL     1       2.055   8.643  19.172  0.00  0.00    +0.000 A 
ATOM     13  C   UNL     1       2.731   7.716  18.373  0.00  0.00    +0.000 A 
ATOM     14  C   UNL     1       2.738   6.365  18.762  0.00  0.00    +0.000 A 
ATOM     15  H   UNL     1       2.954   2.451  16.996  0.00  0.00    +0.000 HD
ENDROOT
BRANCH   2  16
ATOM     16  C   UNL     1       4.433   2.363  20.058  0.00  0.00    +0.000 C 
ATOM     17  F   UNL     1       3.922   2.263  21.313  0.00  0.00    +0.000 F 
ATOM     18  F   UNL     1       5.012   1.163  19.786  0.00  0.00    +0.000 F 
ENDBRANCH   2  16
BRANCH  11  19
ATOM     19  S   UNL     1       0.471   9.443  21.258  0.00  0.00    +0.000 S 
ATOM     20  O   UNL     1      -0.685   8.760  21.813  0.00  0.00    +0.000 OA
ATOM     21  O   UNL     1       1.400  10.128  22.138  0.00  0.00    +0.000 OA
BRANCH  19  22
ATOM     22  C   UNL     1      -0.140  10.647  20.100  0.00  0.00    +0.000 A 
ATOM     23  C   UNL     1      -1.165  10.292  19.215  0.00  0.00    +0.000 A 
ATOM     24  C   UNL     1      -1.574  11.198  18.233  0.00  0.00    +0.000 A 
ATOM     25  C   UNL     1      -0.958  12.445  18.137  0.00  0.00    +0.000 A 
ATOM     26  C   UNL     1       0.061  12.783  19.024  0.00  0.00    +0.000 A 
ATOM     27  F   UNL     1       0.656  13.977  18.919  0.00  0.00    +0.000 F 
ATOM     28  C   UNL     1       0.483  11.894  20.006  0.00  0.00    +0.000 A 
ENDBRANCH  19  22
ENDBRANCH  11  19
TORSDOF 3
ENDMDL
MODEL 8
REMARK VINA RESULT:      -8.0      1.190      1.315
REMARK  Name = 
REMARK  4 active torsions:
REMARK  status: ('A' for Active; 'I' for Inactive)
REMARK    1  A    between atoms: C_1  and  C_2
REMARK    2  A    between atoms: C_2  and  C_3
REMARK    3  A    between atoms: C_14  and  S_15
REMARK    4  A    between atoms: S_15  and  C_18
REMARK                            x       y       z     vdW  Elec       q    Type
REMARK                         _______ _______ _______ _____ _____    ______ ____
ROOT
ATOM      1  C   UNL     1       6.237   5.693  17.283  0.00  0.00    +0.000 C 
ATOM      2  C   UNL     1       4.931   4.983  17.677  0.00  0.00    +0.000 C 
ATOM      3  N   UNL     1       5.319   3.939  18.708  0.00  0.00    +0.000 NA
ATOM      4  C   UNL     1       4.146   3.417  19.455  0.00  0.00    +0.000 C 
ATOM      5  C   UNL     1       3.395   4.495  20.276  0.00  0.00    +0.000 C 
ATOM      6  C   UNL     1       3.242   5.736  19.478  0.00  0.00    +0.000 A 
ATOM      7  C   UNL     1       3.966   5.942  18.324  0.00  0.00    +0.000 A 
ATOM      8  O   UNL     1       3.687   7.162  17.789  0.00  0.00    +0.000 OA
ATOM      9  C   UNL     1       2.747   7.736  18.605  0.00  0.00    +0.000 A 
ATOM     10  C   UNL     1       2.171   8.994  18.430  0.00  0.00    +0.000 A 
ATOM     11  C   UNL     1       1.216   9.370  19.390  0.00  0.00    +0.000 A 
ATOM     12  C   UNL     1       0.882   8.542  20.468  0.00  0.00    +0.000 A 
ATOM     13  C   UNL     1       1.486   7.290  20.615  0.00  0.00    +0.000 A 
ATOM     14  C   UNL     1       2.436   6.881  19.663  0.00  0.00    +0.000 A 
ATOM     15  H   UNL     1       5.933   4.394  19.385  0.00  0.00    +0.000 HD
ENDROOT
BRANCH   2  16
ATOM     16  C   UNL     1       4.308   4.352  16.397  0.00  0.00    +0.000 C 
ATOM     17  F   UNL     1       5.116   3.403  15.855  0.00  0.00    +0.000 F 
ATOM     18  F   UNL     1       3.129   3.732  16.676  0.00  0.00    +0.000 F 
ENDBRANCH   2  16
BRANCH  11  19
ATOM     19  S   UNL     1       0.489  10.995  19.318  0.00  0.00    +0.000 S 
ATOM     20  O   UNL     1       0.197  11.392  20.685  0.00  0.00    +0.000 OA
ATOM     21  O   UNL     1       1.351  11.820  18.491  0.00  0.00    +0.000 OA
BRANCH  19  22
ATOM     22  C   UNL     1      -1.070  10.854  18.472  0.00  0.00    +0.000 A 
ATOM     23  C   UNL     1      -2.198  11.496  18.997  0.00  0.00    +0.000 A 
ATOM     24  C   UNL     1      -3.445  11.300  18.398  0.00  0.00    +0.000 A 
ATOM     25  C   UNL     1      -3.560  10.465  17.287  0.00  0.00    +0.000 A 
ATOM     26  C   UNL     1      -2.429   9.833  16.778  0.00  0.00    +0.000 A 
ATOM     27  F   UNL     1      -2.549   9.024  15.719  0.00  0.00    +0.000 F 
ATOM     28  C   UNL     1      -1.181  10.014  17.361  0.00  0.00    +0.000 A 
ENDBRANCH  19  22
ENDBRANCH  11  19
TORSDOF 3
ENDMDL
MODEL 9
REMARK VINA RESULT:      -8.0      3.390      7.908
REMARK  Name = 
REMARK  4 active torsions:
REMARK  status: ('A' for Active; 'I' for Inactive)
REMARK    1  A    between atoms: C_1  and  C_2
REMARK    2  A    between atoms: C_2  and  C_3
REMARK    3  A    between atoms: C_14  and  S_15
REMARK    4  A    between atoms: S_15  and  C_18
REMARK                            x       y       z     vdW  Elec       q    Type
REMARK                         _______ _______ _______ _____ _____    ______ ____
ROOT
ATOM      1  C   UNL     1      -1.788  11.962  17.453  0.00  0.00    +0.000 C 
ATOM      2  C   UNL     1      -0.938  12.221  18.708  0.00  0.00    +0.000 C 
ATOM      3  N   UNL     1      -1.920  12.577  19.809  0.00  0.00    +0.000 NA
ATOM      4  C   UNL     1      -1.309  12.501  21.160  0.00  0.00    +0.000 C 
ATOM      5  C   UNL     1      -0.811  11.086  21.545  0.00  0.00    +0.000 C 
ATOM      6  C   UNL     1      -0.101  10.462  20.401  0.00  0.00    +0.000 A 
ATOM      7  C   UNL     1      -0.196  10.978  19.128  0.00  0.00    +0.000 A 
ATOM      8  O   UNL     1       0.505  10.218  18.243  0.00  0.00    +0.000 OA
ATOM      9  C   UNL     1       1.081   9.210  18.971  0.00  0.00    +0.000 A 
ATOM     10  C   UNL     1       1.893   8.196  18.464  0.00  0.00    +0.000 A 
ATOM     11  C   UNL     1       2.383   7.275  19.405  0.00  0.00    +0.000 A 
ATOM     12  C   UNL     1       2.055   7.356  20.764  0.00  0.00    +0.000 A 
ATOM     13  C   UNL     1       1.231   8.383  21.235  0.00  0.00    +0.000 A 
ATOM     14  C   UNL     1       0.737   9.327  20.318  0.00  0.00    +0.000 A 
ATOM     15  H   UNL     1      -2.674  11.889  19.778  0.00  0.00    +0.000 HD
ENDROOT
BRANCH   2  16
ATOM     16  C   UNL     1       0.056  13.380  18.400  0.00  0.00    +0.000 C 
ATOM     17  F   UNL     1      -0.494  14.598  18.650  0.00  0.00    +0.000 F 
ATOM     18  F   UNL     1       1.167  13.297  19.179  0.00  0.00    +0.000 F 
ENDBRANCH   2  16
BRANCH  11  19
ATOM     19  S   UNL     1       3.351   5.884  18.853  0.00  0.00    +0.000 S 
ATOM     20  O   UNL     1       3.454   5.985  17.407  0.00  0.00    +0.000 OA
ATOM     21  O   UNL     1       4.553   5.842  19.664  0.00  0.00    +0.000 OA
BRANCH  19  22
ATOM     22  C   UNL     1       2.426   4.406  19.207  0.00  0.00    +0.000 A 
ATOM     23  C   UNL     1       1.826   3.701  18.157  0.00  0.00    +0.000 A 
ATOM     24  C   UNL     1       1.011   2.603  18.440  0.00  0.00    +0.000 A 
ATOM     25  C   UNL     1       0.795   2.218  19.762  0.00  0.00    +0.000 A 
ATOM     26  C   UNL     1       1.397   2.931  20.796  0.00  0.00    +0.000 A 
ATOM     27  F   UNL     1       1.176   2.564  22.063  0.00  0.00    +0.000 F 
ATOM     28  C   UNL     1       2.210   4.027  20.535  0.00  0.00    +0.000 A 
ENDBRANCH  19  22
ENDBRANCH  11  19
TORSDOF 3
ENDMDL
