MODEL 1
REMARK VINA RESULT:      -7.3      0.000      0.000
REMARK  Name = 
REMARK  5 active torsions:
REMARK  status: ('A' for Active; 'I' for Inactive)
REMARK    1  A    between atoms: O_1  and  C_2
REMARK    2  A    between atoms: C_6  and  C_7
REMARK    3  A    between atoms: C_8  and  C_9
REMARK    4  A    between atoms: C_11  and  O_12
REMARK    5  A    between atoms: C_14  and  O_15
REMARK                            x       y       z     vdW  Elec       q    Type
REMARK                         _______ _______ _______ _____ _____    ______ ____
ROOT
ATOM      1  C   UNL     1       8.448   9.397  18.382  0.00  0.00    +0.000 C 
ATOM      2  C   UNL     1       8.582   8.066  18.495  0.00  0.00    +0.000 C 
ENDROOT
BRANCH   1   7
ATOM      3  C   UNL     1      11.341  11.835  18.373  0.00  0.00    +0.000 A 
ATOM      4  C   UNL     1      11.344  12.265  19.695  0.00  0.00    +0.000 A 
ATOM      5  C   UNL     1      10.393  11.759  20.579  0.00  0.00    +0.000 A 
ATOM      6  C   UNL     1       9.458  10.818  20.138  0.00  0.00    +0.000 A 
ATOM      7  C   UNL     1       9.467  10.367  18.810  0.00  0.00    +0.000 A 
ATOM      8  C   UNL     1      10.411  10.903  17.926  0.00  0.00    +0.000 A 
BRANCH   3   9
ATOM      9  O   UNL     1      12.244  12.307  17.468  0.00  0.00    +0.000 OA
ATOM     10  H   UNL     1      12.050  11.915  16.601  0.00  0.00    +0.000 HD
ENDBRANCH   3   9
ENDBRANCH   1   7
BRANCH   2  11
ATOM     11  C   UNL     1       7.571   7.091  18.061  0.00  0.00    +0.000 A 
ATOM     12  C   UNL     1       7.314   5.910  18.774  0.00  0.00    +0.000 A 
ATOM     13  C   UNL     1       6.331   5.028  18.331  0.00  0.00    +0.000 A 
ATOM     14  C   UNL     1       5.576   5.304  17.199  0.00  0.00    +0.000 A 
ATOM     15  C   UNL     1       5.813   6.486  16.507  0.00  0.00    +0.000 A 
ATOM     16  C   UNL     1       6.796   7.378  16.929  0.00  0.00    +0.000 A 
BRANCH  13  17
ATOM     17  O   UNL     1       6.074   3.865  18.999  0.00  0.00    +0.000 OA
ATOM     18  H   UNL     1       5.266   3.468  18.630  0.00  0.00    +0.000 HD
ENDBRANCH  13  17
BRANCH  15  19
ATOM     19  O   UNL     1       5.093   6.813  15.395  0.00  0.00    +0.000 OA
ATOM     20  H   UNL     1       5.707   7.140  14.716  0.00  0.00    +0.000 HD
ENDBRANCH  15  19
ENDBRANCH   2  11
TORSDOF 5
ENDMDL
MODEL 2
REMARK VINA RESULT:      -7.1      1.344      1.777
REMARK  Name = 
REMARK  5 active torsions:
REMARK  status: ('A' for Active; 'I' for Inactive)
REMARK    1  A    between atoms: O_1  and  C_2
REMARK    2  A    between atoms: C_6  and  C_7
REMARK    3  A    between atoms: C_8  and  C_9
REMARK    4  A    between atoms: C_11  and  O_12
REMARK    5  A    between atoms: C_14  and  O_15
REMARK                            x       y       z     vdW  Elec       q    Type
REMARK                         _______ _______ _______ _____ _____    ______ ____
ROOT
ATOM      1  C   UNL     1       8.316   9.109  18.196  0.00  0.00    +0.000 C 
ATOM      2  C   UNL     1       8.428   7.831  18.591  0.00  0.00    +0.000 C 
ENDROOT
BRANCH   1   7
ATOM      3  C   UNL     1      10.018  11.589  20.490  0.00  0.00    +0.000 A 
ATOM      4  C   UNL     1      10.839  12.271  19.600  0.00  0.00    +0.000 A 
ATOM      5  C   UNL     1      10.834  11.910  18.254  0.00  0.00    +0.000 A 
ATOM      6  C   UNL     1      10.001  10.880  17.808  0.00  0.00    +0.000 A 
ATOM      7  C   UNL     1       9.157  10.205  18.702  0.00  0.00    +0.000 A 
ATOM      8  C   UNL     1       9.190  10.560  20.056  0.00  0.00    +0.000 A 
BRANCH   3   9
ATOM      9  O   UNL     1       9.994  11.899  21.818  0.00  0.00    +0.000 OA
ATOM     10  H   UNL     1       9.310  12.572  21.967  0.00  0.00    +0.000 HD
ENDBRANCH   3   9
ENDBRANCH   1   7
BRANCH   2  11
ATOM     11  C   UNL     1       7.597   6.730  18.082  0.00  0.00    +0.000 A 
ATOM     12  C   UNL     1       7.105   5.716  18.917  0.00  0.00    +0.000 A 
ATOM     13  C   UNL     1       6.304   4.705  18.389  0.00  0.00    +0.000 A 
ATOM     14  C   UNL     1       5.960   4.691  17.044  0.00  0.00    +0.000 A 
ATOM     15  C   UNL     1       6.426   5.709  16.222  0.00  0.00    +0.000 A 
ATOM     16  C   UNL     1       7.234   6.725  16.728  0.00  0.00    +0.000 A 
BRANCH  13  17
ATOM     17  O   UNL     1       5.828   3.698  19.179  0.00  0.00    +0.000 OA
ATOM     18  H   UNL     1       5.991   2.850  18.731  0.00  0.00    +0.000 HD
ENDBRANCH  13  17
BRANCH  15  19
ATOM     19  O   UNL     1       6.109   5.752  14.895  0.00  0.00    +0.000 OA
ATOM     20  H   UNL     1       5.739   4.890  14.640  0.00  0.00    +0.000 HD
ENDBRANCH  15  19
ENDBRANCH   2  11
TORSDOF 5
ENDMDL
MODEL 3
REMARK VINA RESULT:      -7.1      0.205      2.014
REMARK  Name = 
REMARK  5 active torsions:
REMARK  status: ('A' for Active; 'I' for Inactive)
REMARK    1  A    between atoms: O_1  and  C_2
REMARK    2  A    between atoms: C_6  and  C_7
REMARK    3  A    between atoms: C_8  and  C_9
REMARK    4  A    between atoms: C_11  and  O_12
REMARK    5  A    between atoms: C_14  and  O_15
REMARK                            x       y       z     vdW  Elec       q    Type
REMARK                         _______ _______ _______ _____ _____    ______ ____
ROOT
ATOM      1  C   UNL     1       8.540   9.510  18.194  0.00  0.00    +0.000 C 
ATOM      2  C   UNL     1       8.466   8.217  18.546  0.00  0.00    +0.000 C 
ENDROOT
BRANCH   1   7
ATOM      3  C   UNL     1      11.399  11.970  18.484  0.00  0.00    +0.000 A 
ATOM      4  C   UNL     1      11.342  12.304  19.832  0.00  0.00    +0.000 A 
ATOM      5  C   UNL     1      10.362  11.725  20.636  0.00  0.00    +0.000 A 
ATOM      6  C   UNL     1       9.457  10.809  20.090  0.00  0.00    +0.000 A 
ATOM      7  C   UNL     1       9.528  10.456  18.734  0.00  0.00    +0.000 A 
ATOM      8  C   UNL     1      10.500  11.064  17.931  0.00  0.00    +0.000 A 
BRANCH   3   9
ATOM      9  O   UNL     1      12.333  12.516  17.655  0.00  0.00    +0.000 OA
ATOM     10  H   UNL     1      11.916  12.704  16.798  0.00  0.00    +0.000 HD
ENDBRANCH   3   9
ENDBRANCH   1   7
BRANCH   2  11
ATOM     11  C   UNL     1       7.487   7.264  18.003  0.00  0.00    +0.000 A 
ATOM     12  C   UNL     1       6.730   7.540  16.855  0.00  0.00    +0.000 A 
ATOM     13  C   UNL     1       5.830   6.595  16.368  0.00  0.00    +0.000 A 
ATOM     14  C   UNL     1       5.678   5.362  16.990  0.00  0.00    +0.000 A 
ATOM     15  C   UNL     1       6.446   5.078  18.112  0.00  0.00    +0.000 A 
ATOM     16  C   UNL     1       7.347   6.012  18.618  0.00  0.00    +0.000 A 
BRANCH  13  17
ATOM     17  O   UNL     1       5.070   6.848  15.262  0.00  0.00    +0.000 OA
ATOM     18  H   UNL     1       5.633   6.761  14.474  0.00  0.00    +0.000 HD
ENDBRANCH  13  17
BRANCH  15  19
ATOM     19  O   UNL     1       6.347   3.878  18.755  0.00  0.00    +0.000 OA
ATOM     20  H   UNL     1       6.931   3.242  18.310  0.00  0.00    +0.000 HD
ENDBRANCH  15  19
ENDBRANCH   2  11
TORSDOF 5
ENDMDL
MODEL 4
REMARK VINA RESULT:      -7.0      1.221      1.221
REMARK  Name = 
REMARK  5 active torsions:
REMARK  status: ('A' for Active; 'I' for Inactive)
REMARK    1  A    between atoms: O_1  and  C_2
REMARK    2  A    between atoms: C_6  and  C_7
REMARK    3  A    between atoms: C_8  and  C_9
REMARK    4  A    between atoms: C_11  and  O_12
REMARK    5  A    between atoms: C_14  and  O_15
REMARK                            x       y       z     vdW  Elec       q    Type
REMARK                         _______ _______ _______ _____ _____    ______ ____
ROOT
ATOM      1  C   UNL     1       8.184   9.179  17.916  0.00  0.00    +0.000 C 
ATOM      2  C   UNL     1       8.254   7.960  18.473  0.00  0.00    +0.000 C 
ENDROOT
BRANCH   1   7
ATOM      3  C   UNL     1       9.665  12.647  18.222  0.00  0.00    +0.000 A 
ATOM      4  C   UNL     1      10.233  12.594  19.489  0.00  0.00    +0.000 A 
ATOM      5  C   UNL     1      10.122  11.424  20.238  0.00  0.00    +0.000 A 
ATOM      6  C   UNL     1       9.456  10.314  19.709  0.00  0.00    +0.000 A 
ATOM      7  C   UNL     1       8.900  10.360  18.423  0.00  0.00    +0.000 A 
ATOM      8  C   UNL     1       8.996  11.549  17.691  0.00  0.00    +0.000 A 
BRANCH   3   9
ATOM      9  O   UNL     1       9.738  13.771  17.455  0.00  0.00    +0.000 OA
ATOM     10  H   UNL     1       9.519  13.537  16.538  0.00  0.00    +0.000 HD
ENDBRANCH   3   9
ENDBRANCH   1   7
BRANCH   2  11
ATOM     11  C   UNL     1       7.548   6.774  17.966  0.00  0.00    +0.000 A 
ATOM     12  C   UNL     1       7.046   5.780  18.819  0.00  0.00    +0.000 A 
ATOM     13  C   UNL     1       6.366   4.685  18.290  0.00  0.00    +0.000 A 
ATOM     14  C   UNL     1       6.153   4.565  16.923  0.00  0.00    +0.000 A 
ATOM     15  C   UNL     1       6.627   5.563  16.080  0.00  0.00    +0.000 A 
ATOM     16  C   UNL     1       7.315   6.662  16.589  0.00  0.00    +0.000 A 
BRANCH  13  17
ATOM     17  O   UNL     1       5.883   3.696  19.098  0.00  0.00    +0.000 OA
ATOM     18  H   UNL     1       6.263   3.809  19.986  0.00  0.00    +0.000 HD
ENDBRANCH  13  17
BRANCH  15  19
ATOM     19  O   UNL     1       6.435   5.503  14.730  0.00  0.00    +0.000 OA
ATOM     20  H   UNL     1       6.203   4.589  14.494  0.00  0.00    +0.000 HD
ENDBRANCH  15  19
ENDBRANCH   2  11
TORSDOF 5
ENDMDL
MODEL 5
REMARK VINA RESULT:      -7.0      1.362      2.632
REMARK  Name = 
REMARK  5 active torsions:
REMARK  status: ('A' for Active; 'I' for Inactive)
REMARK    1  A    between atoms: O_1  and  C_2
REMARK    2  A    between atoms: C_6  and  C_7
REMARK    3  A    between atoms: C_8  and  C_9
REMARK    4  A    between atoms: C_11  and  O_12
REMARK    5  A    between atoms: C_14  and  O_15
REMARK                            x       y       z     vdW  Elec       q    Type
REMARK                         _______ _______ _______ _____ _____    ______ ____
ROOT
ATOM      1  C   UNL     1       8.295   9.172  18.164  0.00  0.00    +0.000 C 
ATOM      2  C   UNL     1       8.396   7.877  18.505  0.00  0.00    +0.000 C 
ENDROOT
BRANCH   1   7
ATOM      3  C   UNL     1      10.015  11.568  20.532  0.00  0.00    +0.000 A 
ATOM      4  C   UNL     1      10.873  12.240  19.670  0.00  0.00    +0.000 A 
ATOM      5  C   UNL     1      10.888  11.899  18.319  0.00  0.00    +0.000 A 
ATOM      6  C   UNL     1      10.036  10.900  17.840  0.00  0.00    +0.000 A 
ATOM      7  C   UNL     1       9.154  10.236  18.705  0.00  0.00    +0.000 A 
ATOM      8  C   UNL     1       9.168  10.569  20.064  0.00  0.00    +0.000 A 
BRANCH   3   9
ATOM      9  O   UNL     1       9.970  11.859  21.863  0.00  0.00    +0.000 OA
ATOM     10  H   UNL     1       9.996  12.824  21.972  0.00  0.00    +0.000 HD
ENDBRANCH   3   9
ENDBRANCH   1   7
BRANCH   2  11
ATOM     11  C   UNL     1       7.545   6.808  17.961  0.00  0.00    +0.000 A 
ATOM     12  C   UNL     1       7.224   6.726  16.598  0.00  0.00    +0.000 A 
ATOM     13  C   UNL     1       6.431   5.680  16.129  0.00  0.00    +0.000 A 
ATOM     14  C   UNL     1       5.963   4.695  16.988  0.00  0.00    +0.000 A 
ATOM     15  C   UNL     1       6.302   4.761  18.334  0.00  0.00    +0.000 A 
ATOM     16  C   UNL     1       7.088   5.802  18.824  0.00  0.00    +0.000 A 
BRANCH  13  17
ATOM     17  O   UNL     1       6.092   5.589  14.810  0.00  0.00    +0.000 OA
ATOM     18  H   UNL     1       5.353   4.963  14.723  0.00  0.00    +0.000 HD
ENDBRANCH  13  17
BRANCH  15  19
ATOM     19  O   UNL     1       5.880   3.813  19.220  0.00  0.00    +0.000 OA
ATOM     20  H   UNL     1       6.250   2.955  18.951  0.00  0.00    +0.000 HD
ENDBRANCH  15  19
ENDBRANCH   2  11
TORSDOF 5
ENDMDL
MODEL 6
REMARK VINA RESULT:      -7.0      6.313      7.522
REMARK  Name = 
REMARK  5 active torsions:
REMARK  status: ('A' for Active; 'I' for Inactive)
REMARK    1  A    between atoms: O_1  and  C_2
REMARK    2  A    between atoms: C_6  and  C_7
REMARK    3  A    between atoms: C_8  and  C_9
REMARK    4  A    between atoms: C_11  and  O_12
REMARK    5  A    between atoms: C_14  and  O_15
REMARK                            x       y       z     vdW  Elec       q    Type
REMARK                         _______ _______ _______ _____ _____    ______ ____
ROOT
ATOM      1  C   UNL     1       5.166   3.823  15.602  0.00  0.00    +0.000 C 
ATOM      2  C   UNL     1       4.601   4.763  16.376  0.00  0.00    +0.000 C 
ENDROOT
BRANCH   1   7
ATOM      3  C   UNL     1       7.817   5.189  13.274  0.00  0.00    +0.000 A 
ATOM      4  C   UNL     1       7.479   4.570  12.076  0.00  0.00    +0.000 A 
ATOM      5  C   UNL     1       6.388   3.704  12.041  0.00  0.00    +0.000 A 
ATOM      6  C   UNL     1       5.638   3.474  13.198  0.00  0.00    +0.000 A 
ATOM      7  C   UNL     1       5.965   4.114  14.402  0.00  0.00    +0.000 A 
ATOM      8  C   UNL     1       7.079   4.961  14.431  0.00  0.00    +0.000 A 
BRANCH   3   9
ATOM      9  O   UNL     1       8.881   6.037  13.362  0.00  0.00    +0.000 OA
ATOM     10  H   UNL     1       8.824   6.520  14.203  0.00  0.00    +0.000 HD
ENDBRANCH   3   9
ENDBRANCH   1   7
BRANCH   2  11
ATOM     11  C   UNL     1       3.809   4.479  17.581  0.00  0.00    +0.000 A 
ATOM     12  C   UNL     1       3.580   5.445  18.572  0.00  0.00    +0.000 A 
ATOM     13  C   UNL     1       2.805   5.132  19.687  0.00  0.00    +0.000 A 
ATOM     14  C   UNL     1       2.229   3.876  19.830  0.00  0.00    +0.000 A 
ATOM     15  C   UNL     1       2.434   2.927  18.836  0.00  0.00    +0.000 A 
ATOM     16  C   UNL     1       3.211   3.218  17.717  0.00  0.00    +0.000 A 
BRANCH  13  17
ATOM     17  O   UNL     1       2.582   6.050  20.672  0.00  0.00    +0.000 OA
ATOM     18  H   UNL     1       1.836   6.614  20.407  0.00  0.00    +0.000 HD
ENDBRANCH  13  17
BRANCH  15  19
ATOM     19  O   UNL     1       1.882   1.682  18.919  0.00  0.00    +0.000 OA
ATOM     20  H   UNL     1       2.600   1.027  18.929  0.00  0.00    +0.000 HD
ENDBRANCH  15  19
ENDBRANCH   2  11
TORSDOF 5
ENDMDL
MODEL 7
REMARK VINA RESULT:      -7.0      1.241      7.080
REMARK  Name = 
REMARK  5 active torsions:
REMARK  status: ('A' for Active; 'I' for Inactive)
REMARK    1  A    between atoms: O_1  and  C_2
REMARK    2  A    between atoms: C_6  and  C_7
REMARK    3  A    between atoms: C_8  and  C_9
REMARK    4  A    between atoms: C_11  and  O_12
REMARK    5  A    between atoms: C_14  and  O_15
REMARK                            x       y       z     vdW  Elec       q    Type
REMARK                         _______ _______ _______ _____ _____    ______ ____
ROOT
ATOM      1  C   UNL     1       8.472   8.072  18.606  0.00  0.00    +0.000 C 
ATOM      2  C   UNL     1       8.485   9.355  18.211  0.00  0.00    +0.000 C 
ENDROOT
BRANCH   1   7
ATOM      3  C   UNL     1       5.961   6.285  16.412  0.00  0.00    +0.000 A 
ATOM      4  C   UNL     1       6.012   4.995  16.928  0.00  0.00    +0.000 A 
ATOM      5  C   UNL     1       6.874   4.718  17.987  0.00  0.00    +0.000 A 
ATOM      6  C   UNL     1       7.667   5.734  18.530  0.00  0.00    +0.000 A 
ATOM      7  C   UNL     1       7.601   7.040  18.024  0.00  0.00    +0.000 A 
ATOM      8  C   UNL     1       6.750   7.300  16.943  0.00  0.00    +0.000 A 
BRANCH   3   9
ATOM      9  O   UNL     1       5.141   6.604  15.371  0.00  0.00    +0.000 OA
ATOM     10  H   UNL     1       5.510   6.224  14.557  0.00  0.00    +0.000 HD
ENDBRANCH   3   9
ENDBRANCH   1   7
BRANCH   2  11
ATOM     11  C   UNL     1       9.360  10.390  18.783  0.00  0.00    +0.000 A 
ATOM     12  C   UNL     1       9.265  10.794  20.122  0.00  0.00    +0.000 A 
ATOM     13  C   UNL     1      10.132  11.765  20.621  0.00  0.00    +0.000 A 
ATOM     14  C   UNL     1      11.112  12.332  19.818  0.00  0.00    +0.000 A 
ATOM     15  C   UNL     1      11.222  11.914  18.497  0.00  0.00    +0.000 A 
ATOM     16  C   UNL     1      10.362  10.950  17.978  0.00  0.00    +0.000 A 
BRANCH  13  17
ATOM     17  O   UNL     1      10.048  12.186  21.917  0.00  0.00    +0.000 OA
ATOM     18  H   UNL     1      10.800  12.775  22.100  0.00  0.00    +0.000 HD
ENDBRANCH  13  17
BRANCH  15  19
ATOM     19  O   UNL     1      12.175  12.429  17.667  0.00  0.00    +0.000 OA
ATOM     20  H   UNL     1      11.853  13.277  17.318  0.00  0.00    +0.000 HD
ENDBRANCH  15  19
ENDBRANCH   2  11
TORSDOF 5
ENDMDL
MODEL 8
REMARK VINA RESULT:      -6.9      1.858      2.839
REMARK  Name = 
REMARK  5 active torsions:
REMARK  status: ('A' for Active; 'I' for Inactive)
REMARK    1  A    between atoms: O_1  and  C_2
REMARK    2  A    between atoms: C_6  and  C_7
REMARK    3  A    between atoms: C_8  and  C_9
REMARK    4  A    between atoms: C_11  and  O_12
REMARK    5  A    between atoms: C_14  and  O_15
REMARK                            x       y       z     vdW  Elec       q    Type
REMARK                         _______ _______ _______ _____ _____    ______ ____
ROOT
ATOM      1  C   UNL     1       8.785   9.927  18.435  0.00  0.00    +0.000 C 
ATOM      2  C   UNL     1       8.329   9.030  17.546  0.00  0.00    +0.000 C 
ENDROOT
BRANCH   1   7
ATOM      3  C   UNL     1       9.225  13.595  17.618  0.00  0.00    +0.000 A 
ATOM      4  C   UNL     1      10.599  13.673  17.426  0.00  0.00    +0.000 A 
ATOM      5  C   UNL     1      11.374  12.524  17.571  0.00  0.00    +0.000 A 
ATOM      6  C   UNL     1      10.768  11.306  17.894  0.00  0.00    +0.000 A 
ATOM      7  C   UNL     1       9.379  11.222  18.068  0.00  0.00    +0.000 A 
ATOM      8  C   UNL     1       8.614  12.388  17.945  0.00  0.00    +0.000 A 
BRANCH   3   9
ATOM      9  O   UNL     1       8.425  14.692  17.497  0.00  0.00    +0.000 OA
ATOM     10  H   UNL     1       7.580  14.419  17.105  0.00  0.00    +0.000 HD
ENDBRANCH   3   9
ENDBRANCH   1   7
BRANCH   2  11
ATOM     11  C   UNL     1       7.727   7.738  17.905  0.00  0.00    +0.000 A 
ATOM     12  C   UNL     1       6.700   7.154  17.149  0.00  0.00    +0.000 A 
ATOM     13  C   UNL     1       6.176   5.917  17.521  0.00  0.00    +0.000 A 
ATOM     14  C   UNL     1       6.669   5.232  18.624  0.00  0.00    +0.000 A 
ATOM     15  C   UNL     1       7.703   5.799  19.358  0.00  0.00    +0.000 A 
ATOM     16  C   UNL     1       8.236   7.037  19.007  0.00  0.00    +0.000 A 
BRANCH  13  17
ATOM     17  O   UNL     1       5.166   5.337  16.810  0.00  0.00    +0.000 OA
ATOM     18  H   UNL     1       4.723   6.024  16.284  0.00  0.00    +0.000 HD
ENDBRANCH  13  17
BRANCH  15  19
ATOM     19  O   UNL     1       8.234   5.164  20.444  0.00  0.00    +0.000 OA
ATOM     20  H   UNL     1       8.813   5.788  20.912  0.00  0.00    +0.000 HD
ENDBRANCH  15  19
ENDBRANCH   2  11
TORSDOF 5
ENDMDL
MODEL 9
REMARK VINA RESULT:      -6.9      6.114      7.250
REMARK  Name = 
REMARK  5 active torsions:
REMARK  status: ('A' for Active; 'I' for Inactive)
REMARK    1  A    between atoms: O_1  and  C_2
REMARK    2  A    between atoms: C_6  and  C_7
REMARK    3  A    between atoms: C_8  and  C_9
REMARK    4  A    between atoms: C_11  and  O_12
REMARK    5  A    between atoms: C_14  and  O_15
REMARK                            x       y       z     vdW  Elec       q    Type
REMARK                         _______ _______ _______ _____ _____    ______ ____
ROOT
ATOM      1  C   UNL     1       5.162   4.124  15.777  0.00  0.00    +0.000 C 
ATOM      2  C   UNL     1       4.844   5.150  16.582  0.00  0.00    +0.000 C 
ENDROOT
BRANCH   1   7
ATOM      3  C   UNL     1       7.754   5.154  13.220  0.00  0.00    +0.000 A 
ATOM      4  C   UNL     1       7.345   4.431  12.106  0.00  0.00    +0.000 A 
ATOM      5  C   UNL     1       6.227   3.605  12.201  0.00  0.00    +0.000 A 
ATOM      6  C   UNL     1       5.519   3.519  13.404  0.00  0.00    +0.000 A 
ATOM      7  C   UNL     1       5.918   4.265  14.523  0.00  0.00    +0.000 A 
ATOM      8  C   UNL     1       7.059   5.070  14.422  0.00  0.00    +0.000 A 
BRANCH   3   9
ATOM      9  O   UNL     1       8.846   5.968  13.180  0.00  0.00    +0.000 OA
ATOM     10  H   UNL     1       8.597   6.840  13.527  0.00  0.00    +0.000 HD
ENDBRANCH   3   9
ENDBRANCH   1   7
BRANCH   2  11
ATOM     11  C   UNL     1       4.096   5.015  17.841  0.00  0.00    +0.000 A 
ATOM     12  C   UNL     1       3.962   3.787  18.504  0.00  0.00    +0.000 A 
ATOM     13  C   UNL     1       3.260   3.715  19.706  0.00  0.00    +0.000 A 
ATOM     14  C   UNL     1       2.702   4.851  20.279  0.00  0.00    +0.000 A 
ATOM     15  C   UNL     1       2.858   6.072  19.635  0.00  0.00    +0.000 A 
ATOM     16  C   UNL     1       3.550   6.164  18.430  0.00  0.00    +0.000 A 
BRANCH  13  17
ATOM     17  O   UNL     1       3.101   2.529  20.361  0.00  0.00    +0.000 OA
ATOM     18  H   UNL     1       3.736   2.494  21.097  0.00  0.00    +0.000 HD
ENDBRANCH  13  17
BRANCH  15  19
ATOM     19  O   UNL     1       2.341   7.222  20.160  0.00  0.00    +0.000 OA
ATOM     20  H   UNL     1       2.263   7.112  21.123  0.00  0.00    +0.000 HD
ENDBRANCH  15  19
ENDBRANCH   2  11
TORSDOF 5
ENDMDL
