MODEL 1
REMARK VINA RESULT:      -7.8      0.000      0.000
REMARK  Name = 
REMARK  5 active torsions:
REMARK  status: ('A' for Active; 'I' for Inactive)
REMARK    1  A    between atoms: C_1  and  C_2
REMARK    2  A    between atoms: C_6  and  N_7
REMARK    3  A    between atoms: N_8  and  C_9
REMARK    4  A    between atoms: C_13  and  O_14
REMARK    5  A    between atoms: N_16  and  C_17
REMARK                            x       y       z     vdW  Elec       q    Type
REMARK                         _______ _______ _______ _____ _____    ______ ____
ROOT
ATOM      1  C   UNL     1       0.664   3.168  19.494  0.00  0.00    +0.000 C 
ATOM      2  C   UNL     1       2.150   3.356  19.602  0.00  0.00    +0.000 C 
ATOM      3  N   UNL     1       2.912   2.339  19.920  0.00  0.00    +0.000 NA
ATOM      4  C   UNL     1       4.220   2.779  19.800  0.00  0.00    +0.000 C 
ATOM      5  O   UNL     1       5.211   2.122  20.095  0.00  0.00    +0.000 OA
ATOM      6  C   UNL     1       4.242   4.202  19.181  0.00  0.00    +0.000 C 
ATOM      7  N   UNL     1       2.815   4.526  19.296  0.00  0.00    +0.000 N 
ENDROOT
BRANCH   7   8
ATOM      8  C   UNL     1       2.406   5.853  19.454  0.00  0.00    +0.000 A 
ATOM      9  C   UNL     1       1.783   6.289  20.636  0.00  0.00    +0.000 A 
ATOM     10  C   UNL     1       1.359   7.612  20.810  0.00  0.00    +0.000 A 
ATOM     11  C   UNL     1       1.554   8.543  19.799  0.00  0.00    +0.000 A 
ATOM     12  C   UNL     1       2.163   8.145  18.617  0.00  0.00    +0.000 A 
ATOM     13  C   UNL     1       2.571   6.817  18.447  0.00  0.00    +0.000 A 
ENDBRANCH   7   8
BRANCH   6  14
ATOM     14  N   UNL     1       4.736   4.009  17.810  0.00  0.00    +0.000 NA
ATOM     15  N   UNL     1       5.644   4.792  17.467  0.00  0.00    +0.000 NA
BRANCH  15  16
ATOM     16  C   UNL     1       5.973   4.616  16.106  0.00  0.00    +0.000 A 
ATOM     17  C   UNL     1       5.244   3.771  15.252  0.00  0.00    +0.000 A 
ATOM     18  C   UNL     1       5.601   3.620  13.910  0.00  0.00    +0.000 A 
ATOM     19  C   UNL     1       6.703   4.304  13.403  0.00  0.00    +0.000 A 
ATOM     20  C   UNL     1       7.435   5.135  14.246  0.00  0.00    +0.000 A 
ATOM     21  C   UNL     1       7.081   5.294  15.585  0.00  0.00    +0.000 A 
BRANCH  20  22
ATOM     22  O   UNL     1       8.523   5.820  13.789  0.00  0.00    +0.000 OA
ATOM     23  H   UNL     1       8.226   6.675  13.434  0.00  0.00    +0.000 HD
ENDBRANCH  20  22
ENDBRANCH  15  16
ENDBRANCH   6  14
TORSDOF 4
ENDMDL
MODEL 2
REMARK VINA RESULT:      -7.8      0.102      1.022
REMARK  Name = 
REMARK  5 active torsions:
REMARK  status: ('A' for Active; 'I' for Inactive)
REMARK    1  A    between atoms: C_1  and  C_2
REMARK    2  A    between atoms: C_6  and  N_7
REMARK    3  A    between atoms: N_8  and  C_9
REMARK    4  A    between atoms: C_13  and  O_14
REMARK    5  A    between atoms: N_16  and  C_17
REMARK                            x       y       z     vdW  Elec       q    Type
REMARK                         _______ _______ _______ _____ _____    ______ ____
ROOT
ATOM      1  C   UNL     1       0.647   3.257  19.491  0.00  0.00    +0.000 C 
ATOM      2  C   UNL     1       2.133   3.442  19.588  0.00  0.00    +0.000 C 
ATOM      3  N   UNL     1       2.895   2.428  19.914  0.00  0.00    +0.000 NA
ATOM      4  C   UNL     1       4.203   2.863  19.780  0.00  0.00    +0.000 C 
ATOM      5  O   UNL     1       5.194   2.208  20.076  0.00  0.00    +0.000 OA
ATOM      6  C   UNL     1       4.225   4.279  19.143  0.00  0.00    +0.000 C 
ATOM      7  N   UNL     1       2.799   4.607  19.263  0.00  0.00    +0.000 N 
ENDROOT
BRANCH   7   8
ATOM      8  C   UNL     1       2.393   5.937  19.408  0.00  0.00    +0.000 A 
ATOM      9  C   UNL     1       2.505   6.854  18.348  0.00  0.00    +0.000 A 
ATOM     10  C   UNL     1       2.113   8.191  18.476  0.00  0.00    +0.000 A 
ATOM     11  C   UNL     1       1.587   8.650  19.677  0.00  0.00    +0.000 A 
ATOM     12  C   UNL     1       1.467   7.772  20.745  0.00  0.00    +0.000 A 
ATOM     13  C   UNL     1       1.875   6.439  20.611  0.00  0.00    +0.000 A 
ENDBRANCH   7   8
BRANCH   6  14
ATOM     14  N   UNL     1       4.709   4.068  17.772  0.00  0.00    +0.000 NA
ATOM     15  N   UNL     1       5.651   4.811  17.432  0.00  0.00    +0.000 NA
BRANCH  15  16
ATOM     16  C   UNL     1       5.971   4.625  16.069  0.00  0.00    +0.000 A 
ATOM     17  C   UNL     1       5.230   3.783  15.223  0.00  0.00    +0.000 A 
ATOM     18  C   UNL     1       5.579   3.622  13.880  0.00  0.00    +0.000 A 
ATOM     19  C   UNL     1       6.686   4.292  13.365  0.00  0.00    +0.000 A 
ATOM     20  C   UNL     1       7.431   5.119  14.200  0.00  0.00    +0.000 A 
ATOM     21  C   UNL     1       7.085   5.288  15.540  0.00  0.00    +0.000 A 
BRANCH  20  22
ATOM     22  O   UNL     1       8.524   5.790  13.735  0.00  0.00    +0.000 OA
ATOM     23  H   UNL     1       8.225   6.601  13.290  0.00  0.00    +0.000 HD
ENDBRANCH  20  22
ENDBRANCH  15  16
ENDBRANCH   6  14
TORSDOF 4
ENDMDL
MODEL 3
REMARK VINA RESULT:      -7.6      2.709      6.119
REMARK  Name = 
REMARK  5 active torsions:
REMARK  status: ('A' for Active; 'I' for Inactive)
REMARK    1  A    between atoms: C_1  and  C_2
REMARK    2  A    between atoms: C_6  and  N_7
REMARK    3  A    between atoms: N_8  and  C_9
REMARK    4  A    between atoms: C_13  and  O_14
REMARK    5  A    between atoms: N_16  and  C_17
REMARK                            x       y       z     vdW  Elec       q    Type
REMARK                         _______ _______ _______ _____ _____    ______ ____
ROOT
ATOM      1  C   UNL     1       4.623   2.307  20.299  0.00  0.00    +0.000 C 
ATOM      2  C   UNL     1       3.609   2.753  19.286  0.00  0.00    +0.000 C 
ATOM      3  N   UNL     1       2.387   2.282  19.339  0.00  0.00    +0.000 NA
ATOM      4  C   UNL     1       1.660   2.976  18.386  0.00  0.00    +0.000 C 
ATOM      5  O   UNL     1       0.493   2.749  18.092  0.00  0.00    +0.000 OA
ATOM      6  C   UNL     1       2.526   4.119  17.791  0.00  0.00    +0.000 C 
ATOM      7  N   UNL     1       3.833   3.720  18.328  0.00  0.00    +0.000 N 
ENDROOT
BRANCH   7   8
ATOM      8  C   UNL     1       5.003   4.029  17.628  0.00  0.00    +0.000 A 
ATOM      9  C   UNL     1       5.108   3.804  16.244  0.00  0.00    +0.000 A 
ATOM     10  C   UNL     1       6.273   4.099  15.528  0.00  0.00    +0.000 A 
ATOM     11  C   UNL     1       7.374   4.638  16.181  0.00  0.00    +0.000 A 
ATOM     12  C   UNL     1       7.306   4.869  17.548  0.00  0.00    +0.000 A 
ATOM     13  C   UNL     1       6.140   4.558  18.258  0.00  0.00    +0.000 A 
ENDBRANCH   7   8
BRANCH   6  14
ATOM     14  N   UNL     1       1.962   5.352  18.358  0.00  0.00    +0.000 NA
ATOM     15  N   UNL     1       2.675   6.366  18.214  0.00  0.00    +0.000 NA
BRANCH  15  16
ATOM     16  C   UNL     1       2.116   7.473  18.889  0.00  0.00    +0.000 A 
ATOM     17  C   UNL     1       1.832   7.459  20.265  0.00  0.00    +0.000 A 
ATOM     18  C   UNL     1       1.277   8.574  20.897  0.00  0.00    +0.000 A 
ATOM     19  C   UNL     1       0.985   9.718  20.159  0.00  0.00    +0.000 A 
ATOM     20  C   UNL     1       1.255   9.735  18.794  0.00  0.00    +0.000 A 
ATOM     21  C   UNL     1       1.813   8.627  18.157  0.00  0.00    +0.000 A 
BRANCH  20  22
ATOM     22  O   UNL     1       0.980  10.834  18.035  0.00  0.00    +0.000 OA
ATOM     23  H   UNL     1       1.709  10.968  17.406  0.00  0.00    +0.000 HD
ENDBRANCH  20  22
ENDBRANCH  15  16
ENDBRANCH   6  14
TORSDOF 4
ENDMDL
MODEL 4
REMARK VINA RESULT:      -7.5      2.467      6.661
REMARK  Name = 
REMARK  5 active torsions:
REMARK  status: ('A' for Active; 'I' for Inactive)
REMARK    1  A    between atoms: C_1  and  C_2
REMARK    2  A    between atoms: C_6  and  N_7
REMARK    3  A    between atoms: N_8  and  C_9
REMARK    4  A    between atoms: C_13  and  O_14
REMARK    5  A    between atoms: N_16  and  C_17
REMARK                            x       y       z     vdW  Elec       q    Type
REMARK                         _______ _______ _______ _____ _____    ______ ____
ROOT
ATOM      1  C   UNL     1       7.416   8.189  17.053  0.00  0.00    +0.000 C 
ATOM      2  C   UNL     1       7.496   6.882  17.787  0.00  0.00    +0.000 C 
ATOM      3  N   UNL     1       8.066   6.832  18.966  0.00  0.00    +0.000 NA
ATOM      4  C   UNL     1       7.859   5.550  19.445  0.00  0.00    +0.000 C 
ATOM      5  O   UNL     1       8.321   5.108  20.490  0.00  0.00    +0.000 OA
ATOM      6  C   UNL     1       6.908   4.778  18.492  0.00  0.00    +0.000 C 
ATOM      7  N   UNL     1       6.919   5.706  17.355  0.00  0.00    +0.000 N 
ENDROOT
BRANCH   7   8
ATOM      8  C   UNL     1       6.738   5.225  16.055  0.00  0.00    +0.000 A 
ATOM      9  C   UNL     1       5.540   4.600  15.667  0.00  0.00    +0.000 A 
ATOM     10  C   UNL     1       5.343   4.105  14.373  0.00  0.00    +0.000 A 
ATOM     11  C   UNL     1       6.346   4.229  13.421  0.00  0.00    +0.000 A 
ATOM     12  C   UNL     1       7.543   4.837  13.771  0.00  0.00    +0.000 A 
ATOM     13  C   UNL     1       7.736   5.317  15.072  0.00  0.00    +0.000 A 
ENDBRANCH   7   8
BRANCH   6  14
ATOM     14  N   UNL     1       5.634   4.690  19.221  0.00  0.00    +0.000 NA
ATOM     15  N   UNL     1       5.014   3.620  19.061  0.00  0.00    +0.000 NA
BRANCH  15  16
ATOM     16  C   UNL     1       3.754   3.670  19.696  0.00  0.00    +0.000 A 
ATOM     17  C   UNL     1       3.012   2.516  20.003  0.00  0.00    +0.000 A 
ATOM     18  C   UNL     1       1.767   2.606  20.630  0.00  0.00    +0.000 A 
ATOM     19  C   UNL     1       1.238   3.853  20.948  0.00  0.00    +0.000 A 
ATOM     20  C   UNL     1       1.962   5.000  20.638  0.00  0.00    +0.000 A 
ATOM     21  C   UNL     1       3.208   4.918  20.016  0.00  0.00    +0.000 A 
BRANCH  20  22
ATOM     22  O   UNL     1       1.477   6.241  20.930  0.00  0.00    +0.000 OA
ATOM     23  H   UNL     1       0.546   6.285  20.653  0.00  0.00    +0.000 HD
ENDBRANCH  20  22
ENDBRANCH  15  16
ENDBRANCH   6  14
TORSDOF 4
ENDMDL
MODEL 5
REMARK VINA RESULT:      -7.5      2.635      6.064
REMARK  Name = 
REMARK  5 active torsions:
REMARK  status: ('A' for Active; 'I' for Inactive)
REMARK    1  A    between atoms: C_1  and  C_2
REMARK    2  A    between atoms: C_6  and  N_7
REMARK    3  A    between atoms: N_8  and  C_9
REMARK    4  A    between atoms: C_13  and  O_14
REMARK    5  A    between atoms: N_16  and  C_17
REMARK                            x       y       z     vdW  Elec       q    Type
REMARK                         _______ _______ _______ _____ _____    ______ ____
ROOT
ATOM      1  C   UNL     1       4.772   2.422  20.297  0.00  0.00    +0.000 C 
ATOM      2  C   UNL     1       3.725   2.782  19.283  0.00  0.00    +0.000 C 
ATOM      3  N   UNL     1       2.517   2.287  19.393  0.00  0.00    +0.000 NA
ATOM      4  C   UNL     1       1.753   2.904  18.417  0.00  0.00    +0.000 C 
ATOM      5  O   UNL     1       0.585   2.633  18.165  0.00  0.00    +0.000 OA
ATOM      6  C   UNL     1       2.577   4.028  17.733  0.00  0.00    +0.000 C 
ATOM      7  N   UNL     1       3.905   3.693  18.262  0.00  0.00    +0.000 N 
ENDROOT
BRANCH   7   8
ATOM      8  C   UNL     1       5.052   3.984  17.518  0.00  0.00    +0.000 A 
ATOM      9  C   UNL     1       6.197   4.530  18.124  0.00  0.00    +0.000 A 
ATOM     10  C   UNL     1       7.351   4.836  17.394  0.00  0.00    +0.000 A 
ATOM     11  C   UNL     1       7.394   4.597  16.027  0.00  0.00    +0.000 A 
ATOM     12  C   UNL     1       6.279   4.063  15.396  0.00  0.00    +0.000 A 
ATOM     13  C   UNL     1       5.124   3.772  16.133  0.00  0.00    +0.000 A 
ENDBRANCH   7   8
BRANCH   6  14
ATOM     14  N   UNL     1       1.997   5.280  18.237  0.00  0.00    +0.000 NA
ATOM     15  N   UNL     1       2.827   6.179  18.480  0.00  0.00    +0.000 NA
BRANCH  15  16
ATOM     16  C   UNL     1       2.198   7.298  19.069  0.00  0.00    +0.000 A 
ATOM     17  C   UNL     1       1.821   7.332  20.422  0.00  0.00    +0.000 A 
ATOM     18  C   UNL     1       1.198   8.457  20.968  0.00  0.00    +0.000 A 
ATOM     19  C   UNL     1       0.931   9.562  20.164  0.00  0.00    +0.000 A 
ATOM     20  C   UNL     1       1.293   9.531  18.821  0.00  0.00    +0.000 A 
ATOM     21  C   UNL     1       1.919   8.413  18.271  0.00  0.00    +0.000 A 
BRANCH  20  22
ATOM     22  O   UNL     1       1.046  10.592  18.000  0.00  0.00    +0.000 OA
ATOM     23  H   UNL     1       0.746  11.342  18.541  0.00  0.00    +0.000 HD
ENDBRANCH  20  22
ENDBRANCH  15  16
ENDBRANCH   6  14
TORSDOF 4
ENDMDL
MODEL 6
REMARK VINA RESULT:      -7.5      2.663      6.157
REMARK  Name = 
REMARK  5 active torsions:
REMARK  status: ('A' for Active; 'I' for Inactive)
REMARK    1  A    between atoms: C_1  and  C_2
REMARK    2  A    between atoms: C_6  and  N_7
REMARK    3  A    between atoms: N_8  and  C_9
REMARK    4  A    between atoms: C_13  and  O_14
REMARK    5  A    between atoms: N_16  and  C_17
REMARK                            x       y       z     vdW  Elec       q    Type
REMARK                         _______ _______ _______ _____ _____    ______ ____
ROOT
ATOM      1  C   UNL     1       4.683   2.367  20.240  0.00  0.00    +0.000 C 
ATOM      2  C   UNL     1       3.649   2.783  19.235  0.00  0.00    +0.000 C 
ATOM      3  N   UNL     1       2.428   2.317  19.328  0.00  0.00    +0.000 NA
ATOM      4  C   UNL     1       1.683   2.982  18.369  0.00  0.00    +0.000 C 
ATOM      5  O   UNL     1       0.509   2.749  18.106  0.00  0.00    +0.000 OA
ATOM      6  C   UNL     1       2.538   4.103  17.720  0.00  0.00    +0.000 C 
ATOM      7  N   UNL     1       3.855   3.718  18.241  0.00  0.00    +0.000 N 
ENDROOT
BRANCH   7   8
ATOM      8  C   UNL     1       5.011   4.002  17.508  0.00  0.00    +0.000 A 
ATOM      9  C   UNL     1       6.151   4.547  18.124  0.00  0.00    +0.000 A 
ATOM     10  C   UNL     1       7.314   4.845  17.405  0.00  0.00    +0.000 A 
ATOM     11  C   UNL     1       7.372   4.598  16.040  0.00  0.00    +0.000 A 
ATOM     12  C   UNL     1       6.262   4.064  15.400  0.00  0.00    +0.000 A 
ATOM     13  C   UNL     1       5.098   3.781  16.125  0.00  0.00    +0.000 A 
ENDBRANCH   7   8
BRANCH   6  14
ATOM     14  N   UNL     1       1.989   5.355  18.258  0.00  0.00    +0.000 NA
ATOM     15  N   UNL     1       2.653   6.375  17.987  0.00  0.00    +0.000 NA
BRANCH  15  16
ATOM     16  C   UNL     1       2.123   7.509  18.641  0.00  0.00    +0.000 A 
ATOM     17  C   UNL     1       1.725   8.667  17.951  0.00  0.00    +0.000 A 
ATOM     18  C   UNL     1       1.206   9.770  18.632  0.00  0.00    +0.000 A 
ATOM     19  C   UNL     1       1.090   9.737  20.019  0.00  0.00    +0.000 A 
ATOM     20  C   UNL     1       1.492   8.598  20.710  0.00  0.00    +0.000 A 
ATOM     21  C   UNL     1       2.006   7.491  20.035  0.00  0.00    +0.000 A 
BRANCH  20  22
ATOM     22  O   UNL     1       1.397   8.528  22.069  0.00  0.00    +0.000 OA
ATOM     23  H   UNL     1       0.515   8.835  22.336  0.00  0.00    +0.000 HD
ENDBRANCH  20  22
ENDBRANCH  15  16
ENDBRANCH   6  14
TORSDOF 4
ENDMDL
MODEL 7
REMARK VINA RESULT:      -7.4      2.684      6.218
REMARK  Name = 
REMARK  5 active torsions:
REMARK  status: ('A' for Active; 'I' for Inactive)
REMARK    1  A    between atoms: C_1  and  C_2
REMARK    2  A    between atoms: C_6  and  N_7
REMARK    3  A    between atoms: N_8  and  C_9
REMARK    4  A    between atoms: C_13  and  O_14
REMARK    5  A    between atoms: N_16  and  C_17
REMARK                            x       y       z     vdW  Elec       q    Type
REMARK                         _______ _______ _______ _____ _____    ______ ____
ROOT
ATOM      1  C   UNL     1       4.590   2.408  20.330  0.00  0.00    +0.000 C 
ATOM      2  C   UNL     1       3.583   2.835  19.302  0.00  0.00    +0.000 C 
ATOM      3  N   UNL     1       2.357   2.378  19.364  0.00  0.00    +0.000 NA
ATOM      4  C   UNL     1       1.640   3.052  18.390  0.00  0.00    +0.000 C 
ATOM      5  O   UNL     1       0.471   2.828  18.098  0.00  0.00    +0.000 OA
ATOM      6  C   UNL     1       2.518   4.170  17.766  0.00  0.00    +0.000 C 
ATOM      7  N   UNL     1       3.820   3.773  18.318  0.00  0.00    +0.000 N 
ENDROOT
BRANCH   7   8
ATOM      8  C   UNL     1       4.995   4.051  17.614  0.00  0.00    +0.000 A 
ATOM      9  C   UNL     1       5.089   3.824  16.230  0.00  0.00    +0.000 A 
ATOM     10  C   UNL     1       6.259   4.089  15.510  0.00  0.00    +0.000 A 
ATOM     11  C   UNL     1       7.376   4.598  16.159  0.00  0.00    +0.000 A 
ATOM     12  C   UNL     1       7.319   4.830  17.526  0.00  0.00    +0.000 A 
ATOM     13  C   UNL     1       6.148   4.549  18.241  0.00  0.00    +0.000 A 
ENDBRANCH   7   8
BRANCH   6  14
ATOM     14  N   UNL     1       1.965   5.423  18.297  0.00  0.00    +0.000 NA
ATOM     15  N   UNL     1       2.626   6.444  18.018  0.00  0.00    +0.000 NA
BRANCH  15  16
ATOM     16  C   UNL     1       2.092   7.580  18.665  0.00  0.00    +0.000 A 
ATOM     17  C   UNL     1       1.703   8.737  17.969  0.00  0.00    +0.000 A 
ATOM     18  C   UNL     1       1.180   9.843  18.644  0.00  0.00    +0.000 A 
ATOM     19  C   UNL     1       1.052   9.814  20.030  0.00  0.00    +0.000 A 
ATOM     20  C   UNL     1       1.445   8.675  20.726  0.00  0.00    +0.000 A 
ATOM     21  C   UNL     1       1.962   7.566  20.058  0.00  0.00    +0.000 A 
BRANCH  20  22
ATOM     22  O   UNL     1       1.338   8.607  22.085  0.00  0.00    +0.000 OA
ATOM     23  H   UNL     1       2.049   8.040  22.425  0.00  0.00    +0.000 HD
ENDBRANCH  20  22
ENDBRANCH  15  16
ENDBRANCH   6  14
TORSDOF 4
ENDMDL
MODEL 8
REMARK VINA RESULT:      -7.4      2.531      6.707
REMARK  Name = 
REMARK  5 active torsions:
REMARK  status: ('A' for Active; 'I' for Inactive)
REMARK    1  A    between atoms: C_1  and  C_2
REMARK    2  A    between atoms: C_6  and  N_7
REMARK    3  A    between atoms: N_8  and  C_9
REMARK    4  A    between atoms: C_13  and  O_14
REMARK    5  A    between atoms: N_16  and  C_17
REMARK                            x       y       z     vdW  Elec       q    Type
REMARK                         _______ _______ _______ _____ _____    ______ ____
ROOT
ATOM      1  C   UNL     1       7.299   8.167  17.055  0.00  0.00    +0.000 C 
ATOM      2  C   UNL     1       7.481   6.857  17.766  0.00  0.00    +0.000 C 
ATOM      3  N   UNL     1       8.153   6.816  18.890  0.00  0.00    +0.000 NA
ATOM      4  C   UNL     1       8.027   5.524  19.372  0.00  0.00    +0.000 C 
ATOM      5  O   UNL     1       8.591   5.089  20.368  0.00  0.00    +0.000 OA
ATOM      6  C   UNL     1       7.019   4.730  18.497  0.00  0.00    +0.000 C 
ATOM      7  N   UNL     1       6.904   5.667  17.373  0.00  0.00    +0.000 N 
ENDROOT
BRANCH   7   8
ATOM      8  C   UNL     1       6.625   5.191  16.088  0.00  0.00    +0.000 A 
ATOM      9  C   UNL     1       7.602   5.203  15.077  0.00  0.00    +0.000 A 
ATOM     10  C   UNL     1       7.339   4.739  13.783  0.00  0.00    +0.000 A 
ATOM     11  C   UNL     1       6.083   4.240  13.464  0.00  0.00    +0.000 A 
ATOM     12  C   UNL     1       5.094   4.218  14.438  0.00  0.00    +0.000 A 
ATOM     13  C   UNL     1       5.363   4.697  15.726  0.00  0.00    +0.000 A 
ENDBRANCH   7   8
BRANCH   6  14
ATOM     14  N   UNL     1       5.818   4.598  19.333  0.00  0.00    +0.000 NA
ATOM     15  N   UNL     1       5.098   3.616  19.060  0.00  0.00    +0.000 NA
BRANCH  15  16
ATOM     16  C   UNL     1       3.912   3.634  19.826  0.00  0.00    +0.000 A 
ATOM     17  C   UNL     1       3.385   2.484  20.437  0.00  0.00    +0.000 A 
ATOM     18  C   UNL     1       2.207   2.540  21.185  0.00  0.00    +0.000 A 
ATOM     19  C   UNL     1       1.529   3.749  21.323  0.00  0.00    +0.000 A 
ATOM     20  C   UNL     1       2.040   4.890  20.713  0.00  0.00    +0.000 A 
ATOM     21  C   UNL     1       3.219   4.841  19.968  0.00  0.00    +0.000 A 
BRANCH  20  22
ATOM     22  O   UNL     1       1.405   6.092  20.821  0.00  0.00    +0.000 OA
ATOM     23  H   UNL     1       2.075   6.792  20.904  0.00  0.00    +0.000 HD
ENDBRANCH  20  22
ENDBRANCH  15  16
ENDBRANCH   6  14
TORSDOF 4
ENDMDL
MODEL 9
REMARK VINA RESULT:      -7.3      2.467      6.832
REMARK  Name = 
REMARK  5 active torsions:
REMARK  status: ('A' for Active; 'I' for Inactive)
REMARK    1  A    between atoms: C_1  and  C_2
REMARK    2  A    between atoms: C_6  and  N_7
REMARK    3  A    between atoms: N_8  and  C_9
REMARK    4  A    between atoms: C_13  and  O_14
REMARK    5  A    between atoms: N_16  and  C_17
REMARK                            x       y       z     vdW  Elec       q    Type
REMARK                         _______ _______ _______ _____ _____    ______ ____
ROOT
ATOM      1  C   UNL     1       7.523   8.138  17.032  0.00  0.00    +0.000 C 
ATOM      2  C   UNL     1       7.508   6.835  17.778  0.00  0.00    +0.000 C 
ATOM      3  N   UNL     1       8.028   6.767  18.978  0.00  0.00    +0.000 NA
ATOM      4  C   UNL     1       7.738   5.500  19.457  0.00  0.00    +0.000 C 
ATOM      5  O   UNL     1       8.136   5.045  20.522  0.00  0.00    +0.000 OA
ATOM      6  C   UNL     1       6.787   4.768  18.472  0.00  0.00    +0.000 C 
ATOM      7  N   UNL     1       6.890   5.685  17.330  0.00  0.00    +0.000 N 
ENDROOT
BRANCH   7   8
ATOM      8  C   UNL     1       6.736   5.204  16.026  0.00  0.00    +0.000 A 
ATOM      9  C   UNL     1       5.586   4.493  15.641  0.00  0.00    +0.000 A 
ATOM     10  C   UNL     1       5.418   3.996  14.344  0.00  0.00    +0.000 A 
ATOM     11  C   UNL     1       6.401   4.204  13.386  0.00  0.00    +0.000 A 
ATOM     12  C   UNL     1       7.551   4.898  13.734  0.00  0.00    +0.000 A 
ATOM     13  C   UNL     1       7.716   5.380  15.038  0.00  0.00    +0.000 A 
ENDBRANCH   7   8
BRANCH   6  14
ATOM     14  N   UNL     1       5.483   4.751  19.150  0.00  0.00    +0.000 NA
ATOM     15  N   UNL     1       4.926   3.636  19.179  0.00  0.00    +0.000 NA
BRANCH  15  16
ATOM     16  C   UNL     1       3.633   3.734  19.739  0.00  0.00    +0.000 A 
ATOM     17  C   UNL     1       2.705   4.711  19.340  0.00  0.00    +0.000 A 
ATOM     18  C   UNL     1       1.436   4.778  19.919  0.00  0.00    +0.000 A 
ATOM     19  C   UNL     1       1.080   3.877  20.919  0.00  0.00    +0.000 A 
ATOM     20  C   UNL     1       1.998   2.914  21.327  0.00  0.00    +0.000 A 
ATOM     21  C   UNL     1       3.265   2.838  20.749  0.00  0.00    +0.000 A 
BRANCH  20  22
ATOM     22  O   UNL     1       1.689   2.015  22.305  0.00  0.00    +0.000 OA
ATOM     23  H   UNL     1       2.440   1.952  22.919  0.00  0.00    +0.000 HD
ENDBRANCH  20  22
ENDBRANCH  15  16
ENDBRANCH   6  14
TORSDOF 4
ENDMDL
