MODEL 1
REMARK VINA RESULT:      -8.1      0.000      0.000
REMARK  Name = 
REMARK  7 active torsions:
REMARK  status: ('A' for Active; 'I' for Inactive)
REMARK    1  A    between atoms: C_2  and  C_3
REMARK    2  A    between atoms: C_6  and  C_7
REMARK    3  A    between atoms: N_10  and  C_11
REMARK    4  A    between atoms: C_21  and  C_22
REMARK    5  A    between atoms: C_21  and  O_23
REMARK    6  A    between atoms: O_23  and  C_24
REMARK    7  A    between atoms: C_24  and  C_26
REMARK                            x       y       z     vdW  Elec       q    Type
REMARK                         _______ _______ _______ _____ _____    ______ ____
ROOT
ATOM      1  C   UNL     1       0.482   9.045  20.740  0.00  0.00    +0.000 C 
ATOM      2  C   UNL     1       1.287   8.200  20.050  0.00  0.00    +0.000 C 
ATOM      3  C   UNL     1       1.641   6.867  20.548  0.00  0.00    +0.000 C 
ATOM      4  C   UNL     1       2.460   6.030  19.856  0.00  0.00    +0.000 C 
ATOM      5  N   UNL     1       2.987   6.415  18.574  0.00  0.00    +0.000 N 
ATOM      6  C   UNL     1       2.709   7.728  18.163  0.00  0.00    +0.000 C 
ATOM      7  C   UNL     1       1.916   8.604  18.799  0.00  0.00    +0.000 C 
ATOM      8  C   UNL     1       1.650   9.924  18.160  0.00  0.00    +0.000 C 
ATOM      9  O   UNL     1       2.327  10.331  17.216  0.00  0.00    +0.000 OA
ATOM     10  C   UNL     1       0.422  10.658  18.675  0.00  0.00    +0.000 C 
ATOM     11  C   UNL     1      -0.783  10.068  17.921  0.00  0.00    +0.000 C 
ATOM     12  C   UNL     1       0.205  10.421  20.176  0.00  0.00    +0.000 C 
ATOM     13  O   UNL     1      -0.257  11.303  20.908  0.00  0.00    +0.000 OA
ENDROOT
BRANCH   5  14
ATOM     14  C   UNL     1       3.910   5.520  17.780  0.00  0.00    +0.000 C 
ATOM     15  C   UNL     1       4.673   6.246  16.656  0.00  0.00    +0.000 C 
ATOM     16  C   UNL     1       5.869   7.069  17.117  0.00  0.00    +0.000 C 
ATOM     17  C   UNL     1       6.831   6.316  18.026  0.00  0.00    +0.000 C 
ATOM     18  C   UNL     1       6.152   5.481  19.099  0.00  0.00    +0.000 C 
ATOM     19  C   UNL     1       4.930   4.700  18.602  0.00  0.00    +0.000 C 
ENDBRANCH   5  14
BRANCH   4  20
ATOM     20  C   UNL     1       2.766   4.692  20.429  0.00  0.00    +0.000 C 
ATOM     21  C   UNL     1       1.843   4.046  21.431  0.00  0.00    +0.000 C 
ATOM     22  C   UNL     1       1.901   3.504  20.039  0.00  0.00    +0.000 C 
ENDBRANCH   4  20
BRANCH   1  24
ATOM     23  C   UNL     1       0.250   9.295  23.202  0.00  0.00    +0.000 C 
ATOM     24  C   UNL     1      -0.128   8.761  22.034  0.00  0.00    +0.000 C 
ENDBRANCH   1  24
BRANCH  10  25
ATOM     25  O   UNL     1       0.421  12.049  18.334  0.00  0.00    +0.000 OA
BRANCH  25  26
ATOM     26  C   UNL     1       1.285  12.834  19.036  0.00  0.00    +0.000 C 
ATOM     27  O   UNL     1       2.322  12.427  19.550  0.00  0.00    +0.000 OA
BRANCH  26  28
ATOM     28  C   UNL     1       0.804  14.195  19.082  0.00  0.00    +0.000 A 
ATOM     29  C   UNL     1      -0.458  14.696  19.353  0.00  0.00    +0.000 A 
ATOM     30  C   UNL     1      -0.370  16.105  19.270  0.00  0.00    +0.000 A 
ATOM     31  C   UNL     1       0.935  16.386  18.946  0.00  0.00    +0.000 A 
ATOM     32  O   UNL     1       1.653  15.241  18.832  0.00  0.00    +0.000 OA
ENDBRANCH  26  28
ENDBRANCH  25  26
ENDBRANCH  10  25
TORSDOF 6
ENDMDL
MODEL 2
REMARK VINA RESULT:      -8.0      0.877      1.229
REMARK  Name = 
REMARK  7 active torsions:
REMARK  status: ('A' for Active; 'I' for Inactive)
REMARK    1  A    between atoms: C_2  and  C_3
REMARK    2  A    between atoms: C_6  and  C_7
REMARK    3  A    between atoms: N_10  and  C_11
REMARK    4  A    between atoms: C_21  and  C_22
REMARK    5  A    between atoms: C_21  and  O_23
REMARK    6  A    between atoms: O_23  and  C_24
REMARK    7  A    between atoms: C_24  and  C_26
REMARK                            x       y       z     vdW  Elec       q    Type
REMARK                         _______ _______ _______ _____ _____    ______ ____
ROOT
ATOM      1  C   UNL     1       0.577   8.989  20.844  0.00  0.00    +0.000 C 
ATOM      2  C   UNL     1       1.354   8.146  20.120  0.00  0.00    +0.000 C 
ATOM      3  C   UNL     1       1.667   6.785  20.567  0.00  0.00    +0.000 C 
ATOM      4  C   UNL     1       2.459   5.949  19.843  0.00  0.00    +0.000 C 
ATOM      5  N   UNL     1       2.993   6.364  18.573  0.00  0.00    +0.000 N 
ATOM      6  C   UNL     1       2.755   7.700  18.212  0.00  0.00    +0.000 C 
ATOM      7  C   UNL     1       1.991   8.576  18.882  0.00  0.00    +0.000 C 
ATOM      8  C   UNL     1       1.763   9.926  18.293  0.00  0.00    +0.000 C 
ATOM      9  O   UNL     1       2.450  10.347  17.361  0.00  0.00    +0.000 OA
ATOM     10  C   UNL     1       0.561  10.678  18.840  0.00  0.00    +0.000 C 
ATOM     11  C   UNL     1      -0.664  10.153  18.069  0.00  0.00    +0.000 C 
ATOM     12  C   UNL     1       0.341  10.393  20.332  0.00  0.00    +0.000 C 
ATOM     13  O   UNL     1      -0.092  11.261  21.098  0.00  0.00    +0.000 OA
ENDROOT
BRANCH   5  14
ATOM     14  C   UNL     1       3.886   5.472  17.743  0.00  0.00    +0.000 C 
ATOM     15  C   UNL     1       4.655   6.212  16.633  0.00  0.00    +0.000 C 
ATOM     16  C   UNL     1       5.877   6.991  17.106  0.00  0.00    +0.000 C 
ATOM     17  C   UNL     1       6.828   6.188  17.982  0.00  0.00    +0.000 C 
ATOM     18  C   UNL     1       6.139   5.338  19.037  0.00  0.00    +0.000 C 
ATOM     19  C   UNL     1       4.893   4.602  18.529  0.00  0.00    +0.000 C 
ENDBRANCH   5  14
BRANCH   4  20
ATOM     20  C   UNL     1       2.725   4.582  20.365  0.00  0.00    +0.000 C 
ATOM     21  C   UNL     1       1.857   3.978  21.440  0.00  0.00    +0.000 C 
ATOM     22  C   UNL     1       1.749   3.463  20.041  0.00  0.00    +0.000 C 
ENDBRANCH   4  20
BRANCH   1  24
ATOM     23  C   UNL     1       0.137   9.372  23.260  0.00  0.00    +0.000 C 
ATOM     24  C   UNL     1      -0.038   8.677  22.129  0.00  0.00    +0.000 C 
ENDBRANCH   1  24
BRANCH  10  25
ATOM     25  O   UNL     1       0.601  12.080  18.549  0.00  0.00    +0.000 OA
BRANCH  25  26
ATOM     26  C   UNL     1      -0.607  12.689  18.390  0.00  0.00    +0.000 C 
ATOM     27  O   UNL     1      -1.525  12.231  17.717  0.00  0.00    +0.000 OA
BRANCH  26  28
ATOM     28  C   UNL     1      -0.642  13.935  19.121  0.00  0.00    +0.000 A 
ATOM     29  C   UNL     1       0.126  15.079  18.988  0.00  0.00    +0.000 A 
ATOM     30  C   UNL     1      -0.335  16.001  19.957  0.00  0.00    +0.000 A 
ATOM     31  C   UNL     1      -1.351  15.367  20.631  0.00  0.00    +0.000 A 
ATOM     32  O   UNL     1      -1.545  14.120  20.134  0.00  0.00    +0.000 OA
ENDBRANCH  26  28
ENDBRANCH  25  26
ENDBRANCH  10  25
TORSDOF 6
ENDMDL
MODEL 3
REMARK VINA RESULT:      -8.0      2.113      4.473
REMARK  Name = 
REMARK  7 active torsions:
REMARK  status: ('A' for Active; 'I' for Inactive)
REMARK    1  A    between atoms: C_2  and  C_3
REMARK    2  A    between atoms: C_6  and  C_7
REMARK    3  A    between atoms: N_10  and  C_11
REMARK    4  A    between atoms: C_21  and  C_22
REMARK    5  A    between atoms: C_21  and  O_23
REMARK    6  A    between atoms: O_23  and  C_24
REMARK    7  A    between atoms: C_24  and  C_26
REMARK                            x       y       z     vdW  Elec       q    Type
REMARK                         _______ _______ _______ _____ _____    ______ ____
ROOT
ATOM      1  C   UNL     1       1.530   9.932  18.751  0.00  0.00    +0.000 C 
ATOM      2  C   UNL     1       1.925   8.650  18.942  0.00  0.00    +0.000 C 
ATOM      3  C   UNL     1       2.901   7.988  18.070  0.00  0.00    +0.000 C 
ATOM      4  C   UNL     1       3.283   6.696  18.259  0.00  0.00    +0.000 C 
ATOM      5  N   UNL     1       2.763   5.933  19.362  0.00  0.00    +0.000 N 
ATOM      6  C   UNL     1       1.763   6.557  20.125  0.00  0.00    +0.000 C 
ATOM      7  C   UNL     1       1.338   7.822  19.988  0.00  0.00    +0.000 C 
ATOM      8  C   UNL     1       0.340   8.352  20.960  0.00  0.00    +0.000 C 
ATOM      9  O   UNL     1      -0.290   7.604  21.709  0.00  0.00    +0.000 OA
ATOM     10  C   UNL     1       0.252   9.868  21.038  0.00  0.00    +0.000 C 
ATOM     11  C   UNL     1       1.384  10.318  21.980  0.00  0.00    +0.000 C 
ATOM     12  C   UNL     1       0.483  10.523  19.670  0.00  0.00    +0.000 C 
ATOM     13  O   UNL     1      -0.109  11.556  19.341  0.00  0.00    +0.000 OA
ENDROOT
BRANCH   5  14
ATOM     14  C   UNL     1       3.151   4.493  19.600  0.00  0.00    +0.000 C 
ATOM     15  C   UNL     1       2.510   3.869  20.854  0.00  0.00    +0.000 C 
ATOM     16  C   UNL     1       1.055   3.448  20.691  0.00  0.00    +0.000 C 
ATOM     17  C   UNL     1       0.787   2.591  19.462  0.00  0.00    +0.000 C 
ATOM     18  C   UNL     1       1.478   3.076  18.198  0.00  0.00    +0.000 C 
ATOM     19  C   UNL     1       2.928   3.527  18.414  0.00  0.00    +0.000 C 
ENDBRANCH   5  14
BRANCH   4  20
ATOM     20  C   UNL     1       4.282   6.101  17.331  0.00  0.00    +0.000 C 
ATOM     21  C   UNL     1       5.135   6.973  16.445  0.00  0.00    +0.000 C 
ATOM     22  C   UNL     1       5.763   6.291  17.617  0.00  0.00    +0.000 C 
ENDBRANCH   4  20
BRANCH   1  24
ATOM     23  C   UNL     1       2.597  11.996  17.869  0.00  0.00    +0.000 C 
ATOM     24  C   UNL     1       2.001  10.812  17.687  0.00  0.00    +0.000 C 
ENDBRANCH   1  24
BRANCH  10  25
ATOM     25  O   UNL     1      -0.950  10.324  21.668  0.00  0.00    +0.000 OA
BRANCH  25  26
ATOM     26  C   UNL     1      -0.832  10.701  22.972  0.00  0.00    +0.000 C 
ATOM     27  O   UNL     1      -0.339  10.000  23.850  0.00  0.00    +0.000 OA
BRANCH  26  28
ATOM     28  C   UNL     1      -1.367  12.030  23.161  0.00  0.00    +0.000 A 
ATOM     29  C   UNL     1      -2.676  12.471  23.245  0.00  0.00    +0.000 A 
ATOM     30  C   UNL     1      -2.629  13.872  23.439  0.00  0.00    +0.000 A 
ATOM     31  C   UNL     1      -1.298  14.209  23.454  0.00  0.00    +0.000 A 
ATOM     32  O   UNL     1      -0.526  13.105  23.289  0.00  0.00    +0.000 OA
ENDBRANCH  26  28
ENDBRANCH  25  26
ENDBRANCH  10  25
TORSDOF 6
ENDMDL
MODEL 4
REMARK VINA RESULT:      -7.9      0.957      1.220
REMARK  Name = 
REMARK  7 active torsions:
REMARK  status: ('A' for Active; 'I' for Inactive)
REMARK    1  A    between atoms: C_2  and  C_3
REMARK    2  A    between atoms: C_6  and  C_7
REMARK    3  A    between atoms: N_10  and  C_11
REMARK    4  A    between atoms: C_21  and  C_22
REMARK    5  A    between atoms: C_21  and  O_23
REMARK    6  A    between atoms: O_23  and  C_24
REMARK    7  A    between atoms: C_24  and  C_26
REMARK                            x       y       z     vdW  Elec       q    Type
REMARK                         _______ _______ _______ _____ _____    ______ ____
ROOT
ATOM      1  C   UNL     1       0.522   9.155  20.938  0.00  0.00    +0.000 C 
ATOM      2  C   UNL     1       1.275   8.342  20.158  0.00  0.00    +0.000 C 
ATOM      3  C   UNL     1       1.507   6.931  20.484  0.00  0.00    +0.000 C 
ATOM      4  C   UNL     1       2.276   6.124  19.704  0.00  0.00    +0.000 C 
ATOM      5  N   UNL     1       2.866   6.624  18.491  0.00  0.00    +0.000 N 
ATOM      6  C   UNL     1       2.706   7.998  18.250  0.00  0.00    +0.000 C 
ATOM      7  C   UNL     1       1.968   8.848  18.980  0.00  0.00    +0.000 C 
ATOM      8  C   UNL     1       1.825  10.256  18.514  0.00  0.00    +0.000 C 
ATOM      9  O   UNL     1       2.558  10.724  17.641  0.00  0.00    +0.000 OA
ATOM     10  C   UNL     1       0.647  11.018  19.099  0.00  0.00    +0.000 C 
ATOM     11  C   UNL     1      -0.580  10.630  18.254  0.00  0.00    +0.000 C 
ATOM     12  C   UNL     1       0.371  10.610  20.553  0.00  0.00    +0.000 C 
ATOM     13  O   UNL     1      -0.039  11.426  21.385  0.00  0.00    +0.000 OA
ENDROOT
BRANCH   5  14
ATOM     14  C   UNL     1       3.736   5.766  17.604  0.00  0.00    +0.000 C 
ATOM     15  C   UNL     1       4.605   6.565  16.615  0.00  0.00    +0.000 C 
ATOM     16  C   UNL     1       5.851   7.199  17.220  0.00  0.00    +0.000 C 
ATOM     17  C   UNL     1       6.705   6.240  18.038  0.00  0.00    +0.000 C 
ATOM     18  C   UNL     1       5.911   5.332  18.964  0.00  0.00    +0.000 C 
ATOM     19  C   UNL     1       4.644   4.747  18.328  0.00  0.00    +0.000 C 
ENDBRANCH   5  14
BRANCH   4  20
ATOM     20  C   UNL     1       2.458   4.703  20.104  0.00  0.00    +0.000 C 
ATOM     21  C   UNL     1       1.515   4.042  21.077  0.00  0.00    +0.000 C 
ATOM     22  C   UNL     1       1.452   3.666  19.632  0.00  0.00    +0.000 C 
ENDBRANCH   4  20
BRANCH   1  24
ATOM     23  C   UNL     1       0.084   9.293  23.381  0.00  0.00    +0.000 C 
ATOM     24  C   UNL     1      -0.144   8.759  22.174  0.00  0.00    +0.000 C 
ENDBRANCH   1  24
BRANCH  10  25
ATOM     25  O   UNL     1       0.766  12.436  18.941  0.00  0.00    +0.000 OA
BRANCH  25  26
ATOM     26  C   UNL     1       1.800  13.023  19.605  0.00  0.00    +0.000 C 
ATOM     27  O   UNL     1       2.210  12.658  20.703  0.00  0.00    +0.000 OA
BRANCH  26  28
ATOM     28  C   UNL     1       2.332  14.124  18.835  0.00  0.00    +0.000 A 
ATOM     29  C   UNL     1       3.423  14.184  17.984  0.00  0.00    +0.000 A 
ATOM     30  C   UNL     1       3.487  15.507  17.488  0.00  0.00    +0.000 A 
ATOM     31  C   UNL     1       2.439  16.182  18.067  0.00  0.00    +0.000 A 
ATOM     32  O   UNL     1       1.734  15.356  18.881  0.00  0.00    +0.000 OA
ENDBRANCH  26  28
ENDBRANCH  25  26
ENDBRANCH  10  25
TORSDOF 6
ENDMDL
MODEL 5
REMARK VINA RESULT:      -7.7      4.758      8.414
REMARK  Name = 
REMARK  7 active torsions:
REMARK  status: ('A' for Active; 'I' for Inactive)
REMARK    1  A    between atoms: C_2  and  C_3
REMARK    2  A    between atoms: C_6  and  C_7
REMARK    3  A    between atoms: N_10  and  C_11
REMARK    4  A    between atoms: C_21  and  C_22
REMARK    5  A    between atoms: C_21  and  O_23
REMARK    6  A    between atoms: O_23  and  C_24
REMARK    7  A    between atoms: C_24  and  C_26
REMARK                            x       y       z     vdW  Elec       q    Type
REMARK                         _______ _______ _______ _____ _____    ______ ____
ROOT
ATOM      1  C   UNL     1      -0.373  11.886  19.774  0.00  0.00    +0.000 C 
ATOM      2  C   UNL     1      -1.688  11.919  19.449  0.00  0.00    +0.000 C 
ATOM      3  C   UNL     1      -2.193  11.443  18.157  0.00  0.00    +0.000 C 
ATOM      4  C   UNL     1      -3.513  11.492  17.832  0.00  0.00    +0.000 C 
ATOM      5  N   UNL     1      -4.481  11.984  18.776  0.00  0.00    +0.000 N 
ATOM      6  C   UNL     1      -3.964  12.517  19.967  0.00  0.00    +0.000 C 
ATOM      7  C   UNL     1      -2.677  12.506  20.345  0.00  0.00    +0.000 C 
ATOM      8  C   UNL     1      -2.321  13.025  21.696  0.00  0.00    +0.000 C 
ATOM      9  O   UNL     1      -3.117  13.689  22.361  0.00  0.00    +0.000 OA
ATOM     10  C   UNL     1      -0.972  12.572  22.231  0.00  0.00    +0.000 C 
ATOM     11  C   UNL     1      -1.196  11.177  22.843  0.00  0.00    +0.000 C 
ATOM     12  C   UNL     1       0.069  12.439  21.111  0.00  0.00    +0.000 C 
ATOM     13  O   UNL     1       1.261  12.702  21.303  0.00  0.00    +0.000 OA
ENDROOT
BRANCH   5  14
ATOM     14  C   UNL     1      -5.954  12.067  18.451  0.00  0.00    +0.000 C 
ATOM     15  C   UNL     1      -6.684  10.711  18.495  0.00  0.00    +0.000 C 
ATOM     16  C   UNL     1      -7.022  10.207  19.892  0.00  0.00    +0.000 C 
ATOM     17  C   UNL     1      -7.728  11.230  20.771  0.00  0.00    +0.000 C 
ATOM     18  C   UNL     1      -7.137  12.628  20.700  0.00  0.00    +0.000 C 
ATOM     19  C   UNL     1      -6.774  13.081  19.280  0.00  0.00    +0.000 C 
ENDBRANCH   5  14
BRANCH   4  20
ATOM     20  C   UNL     1      -3.943  10.985  16.502  0.00  0.00    +0.000 C 
ATOM     21  C   UNL     1      -2.971  10.897  15.353  0.00  0.00    +0.000 C 
ATOM     22  C   UNL     1      -3.427   9.640  16.020  0.00  0.00    +0.000 C 
ENDBRANCH   4  20
BRANCH   1  24
ATOM     23  C   UNL     1       1.132  10.125  18.872  0.00  0.00    +0.000 C 
ATOM     24  C   UNL     1       0.697  11.390  18.914  0.00  0.00    +0.000 C 
ENDBRANCH   1  24
BRANCH  10  25
ATOM     25  O   UNL     1      -0.506  13.377  23.320  0.00  0.00    +0.000 OA
BRANCH  25  26
ATOM     26  C   UNL     1      -0.515  14.724  23.110  0.00  0.00    +0.000 C 
ATOM     27  O   UNL     1      -0.366  15.250  22.011  0.00  0.00    +0.000 OA
BRANCH  26  28
ATOM     28  C   UNL     1      -0.723  15.425  24.355  0.00  0.00    +0.000 A 
ATOM     29  C   UNL     1      -1.759  15.348  25.271  0.00  0.00    +0.000 A 
ATOM     30  C   UNL     1      -1.454  16.250  26.317  0.00  0.00    +0.000 A 
ATOM     31  C   UNL     1      -0.256  16.832  25.980  0.00  0.00    +0.000 A 
ATOM     32  O   UNL     1       0.196  16.340  24.799  0.00  0.00    +0.000 OA
ENDBRANCH  26  28
ENDBRANCH  25  26
ENDBRANCH  10  25
TORSDOF 6
ENDMDL
MODEL 6
REMARK VINA RESULT:      -7.4      4.100      9.079
REMARK  Name = 
REMARK  7 active torsions:
REMARK  status: ('A' for Active; 'I' for Inactive)
REMARK    1  A    between atoms: C_2  and  C_3
REMARK    2  A    between atoms: C_6  and  C_7
REMARK    3  A    between atoms: N_10  and  C_11
REMARK    4  A    between atoms: C_21  and  C_22
REMARK    5  A    between atoms: C_21  and  O_23
REMARK    6  A    between atoms: O_23  and  C_24
REMARK    7  A    between atoms: C_24  and  C_26
REMARK                            x       y       z     vdW  Elec       q    Type
REMARK                         _______ _______ _______ _____ _____    ______ ____
ROOT
ATOM      1  C   UNL     1      -2.165  10.494  18.123  0.00  0.00    +0.000 C 
ATOM      2  C   UNL     1      -2.827  11.343  18.945  0.00  0.00    +0.000 C 
ATOM      3  C   UNL     1      -4.172  11.845  18.643  0.00  0.00    +0.000 C 
ATOM      4  C   UNL     1      -4.825  12.709  19.466  0.00  0.00    +0.000 C 
ATOM      5  N   UNL     1      -4.226  13.137  20.702  0.00  0.00    +0.000 N 
ATOM      6  C   UNL     1      -2.904  12.717  20.923  0.00  0.00    +0.000 C 
ATOM      7  C   UNL     1      -2.203  11.874  20.151  0.00  0.00    +0.000 C 
ATOM      8  C   UNL     1      -0.845  11.453  20.598  0.00  0.00    +0.000 C 
ATOM      9  O   UNL     1      -0.252  12.045  21.501  0.00  0.00    +0.000 OA
ATOM     10  C   UNL     1      -0.311  10.186  19.950  0.00  0.00    +0.000 C 
ATOM     11  C   UNL     1      -0.917   9.010  20.737  0.00  0.00    +0.000 C 
ATOM     12  C   UNL     1      -0.762  10.061  18.488  0.00  0.00    +0.000 C 
ATOM     13  O   UNL     1      -0.035   9.550  17.630  0.00  0.00    +0.000 OA
ENDROOT
BRANCH   5  14
ATOM     14  C   UNL     1      -4.911  14.105  21.638  0.00  0.00    +0.000 C 
ATOM     15  C   UNL     1      -5.644  13.429  22.812  0.00  0.00    +0.000 C 
ATOM     16  C   UNL     1      -4.744  12.967  23.952  0.00  0.00    +0.000 C 
ATOM     17  C   UNL     1      -3.779  14.031  24.456  0.00  0.00    +0.000 C 
ATOM     18  C   UNL     1      -3.094  14.824  23.355  0.00  0.00    +0.000 C 
ATOM     19  C   UNL     1      -4.026  15.236  22.209  0.00  0.00    +0.000 C 
ENDBRANCH   5  14
BRANCH   4  20
ATOM     20  C   UNL     1      -6.189  13.167  19.088  0.00  0.00    +0.000 C 
ATOM     21  C   UNL     1      -7.024  12.389  18.103  0.00  0.00    +0.000 C 
ATOM     22  C   UNL     1      -7.394  12.365  19.551  0.00  0.00    +0.000 C 
ENDBRANCH   4  20
BRANCH   1  24
ATOM     23  C   UNL     1      -2.716  10.648  15.704  0.00  0.00    +0.000 C 
ATOM     24  C   UNL     1      -2.675   9.972  16.859  0.00  0.00    +0.000 C 
ENDBRANCH   1  24
BRANCH  10  25
ATOM     25  O   UNL     1       1.105  10.036  20.102  0.00  0.00    +0.000 OA
BRANCH  25  26
ATOM     26  C   UNL     1       1.511   9.038  20.935  0.00  0.00    +0.000 C 
ATOM     27  O   UNL     1       1.544   9.132  22.158  0.00  0.00    +0.000 OA
BRANCH  26  28
ATOM     28  C   UNL     1       1.891   7.871  20.172  0.00  0.00    +0.000 A 
ATOM     29  C   UNL     1       1.856   6.527  20.503  0.00  0.00    +0.000 A 
ATOM     30  C   UNL     1       2.338   5.812  19.382  0.00  0.00    +0.000 A 
ATOM     31  C   UNL     1       2.646   6.756  18.433  0.00  0.00    +0.000 A 
ATOM     32  O   UNL     1       2.379   8.003  18.898  0.00  0.00    +0.000 OA
ENDBRANCH  26  28
ENDBRANCH  25  26
ENDBRANCH  10  25
TORSDOF 6
ENDMDL
MODEL 7
REMARK VINA RESULT:      -7.2      4.263      8.124
REMARK  Name = 
REMARK  7 active torsions:
REMARK  status: ('A' for Active; 'I' for Inactive)
REMARK    1  A    between atoms: C_2  and  C_3
REMARK    2  A    between atoms: C_6  and  C_7
REMARK    3  A    between atoms: N_10  and  C_11
REMARK    4  A    between atoms: C_21  and  C_22
REMARK    5  A    between atoms: C_21  and  O_23
REMARK    6  A    between atoms: O_23  and  C_24
REMARK    7  A    between atoms: C_24  and  C_26
REMARK                            x       y       z     vdW  Elec       q    Type
REMARK                         _______ _______ _______ _____ _____    ______ ____
ROOT
ATOM      1  C   UNL     1      -0.332  11.760  19.863  0.00  0.00    +0.000 C 
ATOM      2  C   UNL     1      -1.639  11.831  19.513  0.00  0.00    +0.000 C 
ATOM      3  C   UNL     1      -2.133  11.357  18.216  0.00  0.00    +0.000 C 
ATOM      4  C   UNL     1      -3.445  11.444  17.864  0.00  0.00    +0.000 C 
ATOM      5  N   UNL     1      -4.415  11.977  18.783  0.00  0.00    +0.000 N 
ATOM      6  C   UNL     1      -3.904  12.507  19.979  0.00  0.00    +0.000 C 
ATOM      7  C   UNL     1      -2.626  12.460  20.382  0.00  0.00    +0.000 C 
ATOM      8  C   UNL     1      -2.280  12.982  21.734  0.00  0.00    +0.000 C 
ATOM      9  O   UNL     1      -3.067  13.679  22.376  0.00  0.00    +0.000 OA
ATOM     10  C   UNL     1      -0.957  12.493  22.301  0.00  0.00    +0.000 C 
ATOM     11  C   UNL     1      -1.237  11.113  22.923  0.00  0.00    +0.000 C 
ATOM     12  C   UNL     1       0.101  12.314  21.203  0.00  0.00    +0.000 C 
ATOM     13  O   UNL     1       1.296  12.541  21.416  0.00  0.00    +0.000 OA
ENDROOT
BRANCH   5  14
ATOM     14  C   UNL     1      -5.878  12.102  18.428  0.00  0.00    +0.000 C 
ATOM     15  C   UNL     1      -6.651  10.772  18.474  0.00  0.00    +0.000 C 
ATOM     16  C   UNL     1      -7.033  10.296  19.871  0.00  0.00    +0.000 C 
ATOM     17  C   UNL     1      -7.722  11.353  20.722  0.00  0.00    +0.000 C 
ATOM     18  C   UNL     1      -7.085  12.731  20.646  0.00  0.00    +0.000 C 
ATOM     19  C   UNL     1      -6.681  13.153  19.228  0.00  0.00    +0.000 C 
ENDBRANCH   5  14
BRANCH   4  20
ATOM     20  C   UNL     1      -3.865  10.936  16.531  0.00  0.00    +0.000 C 
ATOM     21  C   UNL     1      -2.899  10.900  15.374  0.00  0.00    +0.000 C 
ATOM     22  C   UNL     1      -3.298   9.618  16.029  0.00  0.00    +0.000 C 
ENDBRANCH   4  20
BRANCH   1  24
ATOM     23  C   UNL     1       1.100   9.934  18.974  0.00  0.00    +0.000 C 
ATOM     24  C   UNL     1       0.738  11.221  19.031  0.00  0.00    +0.000 C 
ENDBRANCH   1  24
BRANCH  10  25
ATOM     25  O   UNL     1      -0.487  13.295  23.390  0.00  0.00    +0.000 OA
BRANCH  25  26
ATOM     26  C   UNL     1      -0.793  14.621  23.326  0.00  0.00    +0.000 C 
ATOM     27  O   UNL     1      -1.718  15.144  23.940  0.00  0.00    +0.000 OA
BRANCH  26  28
ATOM     28  C   UNL     1       0.121  15.306  22.442  0.00  0.00    +0.000 A 
ATOM     29  C   UNL     1      -0.101  15.938  21.230  0.00  0.00    +0.000 A 
ATOM     30  C   UNL     1       1.145  16.448  20.796  0.00  0.00    +0.000 A 
ATOM     31  C   UNL     1       2.058  16.095  21.760  0.00  0.00    +0.000 A 
ATOM     32  O   UNL     1       1.450  15.407  22.760  0.00  0.00    +0.000 OA
ENDBRANCH  26  28
ENDBRANCH  25  26
ENDBRANCH  10  25
TORSDOF 6
ENDMDL
MODEL 8
REMARK VINA RESULT:      -7.1      4.181      7.945
REMARK  Name = 
REMARK  7 active torsions:
REMARK  status: ('A' for Active; 'I' for Inactive)
REMARK    1  A    between atoms: C_2  and  C_3
REMARK    2  A    between atoms: C_6  and  C_7
REMARK    3  A    between atoms: N_10  and  C_11
REMARK    4  A    between atoms: C_21  and  C_22
REMARK    5  A    between atoms: C_21  and  O_23
REMARK    6  A    between atoms: O_23  and  C_24
REMARK    7  A    between atoms: C_24  and  C_26
REMARK                            x       y       z     vdW  Elec       q    Type
REMARK                         _______ _______ _______ _____ _____    ______ ____
ROOT
ATOM      1  C   UNL     1       0.003  11.074  19.184  0.00  0.00    +0.000 C 
ATOM      2  C   UNL     1      -1.307  11.105  18.839  0.00  0.00    +0.000 C 
ATOM      3  C   UNL     1      -1.811  10.496  17.604  0.00  0.00    +0.000 C 
ATOM      4  C   UNL     1      -3.125  10.542  17.257  0.00  0.00    +0.000 C 
ATOM      5  N   UNL     1      -4.089  11.167  18.123  0.00  0.00    +0.000 N 
ATOM      6  C   UNL     1      -3.570  11.822  19.251  0.00  0.00    +0.000 C 
ATOM      7  C   UNL     1      -2.288  11.820  19.646  0.00  0.00    +0.000 C 
ATOM      8  C   UNL     1      -1.934  12.482  20.933  0.00  0.00    +0.000 C 
ATOM      9  O   UNL     1      -2.717  13.242  21.504  0.00  0.00    +0.000 OA
ATOM     10  C   UNL     1      -0.604  12.059  21.536  0.00  0.00    +0.000 C 
ATOM     11  C   UNL     1      -0.874  10.751  22.302  0.00  0.00    +0.000 C 
ATOM     12  C   UNL     1       0.445  11.768  20.454  0.00  0.00    +0.000 C 
ATOM     13  O   UNL     1       1.642  12.019  20.632  0.00  0.00    +0.000 OA
ENDROOT
BRANCH   5  14
ATOM     14  C   UNL     1      -5.556  11.251  17.769  0.00  0.00    +0.000 C 
ATOM     15  C   UNL     1      -6.480  10.498  18.743  0.00  0.00    +0.000 C 
ATOM     16  C   UNL     1      -6.757  11.220  20.056  0.00  0.00    +0.000 C 
ATOM     17  C   UNL     1      -7.207  12.665  19.890  0.00  0.00    +0.000 C 
ATOM     18  C   UNL     1      -6.414  13.452  18.860  0.00  0.00    +0.000 C 
ATOM     19  C   UNL     1      -6.123  12.675  17.570  0.00  0.00    +0.000 C 
ENDBRANCH   5  14
BRANCH   4  20
ATOM     20  C   UNL     1      -3.554   9.895  15.988  0.00  0.00    +0.000 C 
ATOM     21  C   UNL     1      -3.823  10.714  14.751  0.00  0.00    +0.000 C 
ATOM     22  C   UNL     1      -2.594   9.866  14.810  0.00  0.00    +0.000 C 
ENDBRANCH   4  20
BRANCH   1  24
ATOM     23  C   UNL     1       1.507   9.198  18.556  0.00  0.00    +0.000 C 
ATOM     24  C   UNL     1       1.068  10.453  18.404  0.00  0.00    +0.000 C 
ENDBRANCH   1  24
BRANCH  10  25
ATOM     25  O   UNL     1      -0.127  12.973  22.530  0.00  0.00    +0.000 OA
BRANCH  25  26
ATOM     26  C   UNL     1      -0.154  14.291  22.188  0.00  0.00    +0.000 C 
ATOM     27  O   UNL     1       0.058  14.713  21.055  0.00  0.00    +0.000 OA
BRANCH  26  28
ATOM     28  C   UNL     1      -0.466  15.104  23.341  0.00  0.00    +0.000 A 
ATOM     29  C   UNL     1      -1.479  14.987  24.278  0.00  0.00    +0.000 A 
ATOM     30  C   UNL     1      -1.314  16.048  25.199  0.00  0.00    +0.000 A 
ATOM     31  C   UNL     1      -0.218  16.757  24.770  0.00  0.00    +0.000 A 
ATOM     32  O   UNL     1       0.303  16.195  23.650  0.00  0.00    +0.000 OA
ENDBRANCH  26  28
ENDBRANCH  25  26
ENDBRANCH  10  25
TORSDOF 6
ENDMDL
MODEL 9
REMARK VINA RESULT:      -7.1      2.244      4.519
REMARK  Name = 
REMARK  7 active torsions:
REMARK  status: ('A' for Active; 'I' for Inactive)
REMARK    1  A    between atoms: C_2  and  C_3
REMARK    2  A    between atoms: C_6  and  C_7
REMARK    3  A    between atoms: N_10  and  C_11
REMARK    4  A    between atoms: C_21  and  C_22
REMARK    5  A    between atoms: C_21  and  O_23
REMARK    6  A    between atoms: O_23  and  C_24
REMARK    7  A    between atoms: C_24  and  C_26
REMARK                            x       y       z     vdW  Elec       q    Type
REMARK                         _______ _______ _______ _____ _____    ______ ____
ROOT
ATOM      1  C   UNL     1       1.315   9.985  18.869  0.00  0.00    +0.000 C 
ATOM      2  C   UNL     1       1.741   8.717  19.084  0.00  0.00    +0.000 C 
ATOM      3  C   UNL     1       2.713   8.054  18.209  0.00  0.00    +0.000 C 
ATOM      4  C   UNL     1       3.127   6.775  18.423  0.00  0.00    +0.000 C 
ATOM      5  N   UNL     1       2.646   6.031  19.557  0.00  0.00    +0.000 N 
ATOM      6  C   UNL     1       1.650   6.654  20.325  0.00  0.00    +0.000 C 
ATOM      7  C   UNL     1       1.194   7.905  20.164  0.00  0.00    +0.000 C 
ATOM      8  C   UNL     1       0.205   8.439  21.143  0.00  0.00    +0.000 C 
ATOM      9  O   UNL     1      -0.392   7.699  21.925  0.00  0.00    +0.000 OA
ATOM     10  C   UNL     1       0.086   9.955  21.184  0.00  0.00    +0.000 C 
ATOM     11  C   UNL     1       1.228  10.453  22.089  0.00  0.00    +0.000 C 
ATOM     12  C   UNL     1       0.275  10.579  19.794  0.00  0.00    +0.000 C 
ATOM     13  O   UNL     1      -0.347  11.590  19.451  0.00  0.00    +0.000 OA
ENDROOT
BRANCH   5  14
ATOM     14  C   UNL     1       3.070   4.606  19.824  0.00  0.00    +0.000 C 
ATOM     15  C   UNL     1       2.246   3.900  20.917  0.00  0.00    +0.000 C 
ATOM     16  C   UNL     1       0.875   3.407  20.471  0.00  0.00    +0.000 C 
ATOM     17  C   UNL     1       0.894   2.584  19.191  0.00  0.00    +0.000 C 
ATOM     18  C   UNL     1       1.777   3.155  18.094  0.00  0.00    +0.000 C 
ATOM     19  C   UNL     1       3.131   3.675  18.591  0.00  0.00    +0.000 C 
ENDBRANCH   5  14
BRANCH   4  20
ATOM     20  C   UNL     1       4.119   6.177  17.490  0.00  0.00    +0.000 C 
ATOM     21  C   UNL     1       4.871   7.033  16.503  0.00  0.00    +0.000 C 
ATOM     22  C   UNL     1       5.595   6.479  17.687  0.00  0.00    +0.000 C 
ENDBRANCH   4  20
BRANCH   1  24
ATOM     23  C   UNL     1       2.520  11.929  17.897  0.00  0.00    +0.000 C 
ATOM     24  C   UNL     1       1.744  10.846  17.772  0.00  0.00    +0.000 C 
ENDBRANCH   1  24
BRANCH  10  25
ATOM     25  O   UNL     1      -1.112  10.402  21.828  0.00  0.00    +0.000 OA
BRANCH  25  26
ATOM     26  C   UNL     1      -1.077  11.664  22.338  0.00  0.00    +0.000 C 
ATOM     27  O   UNL     1      -0.047  12.249  22.658  0.00  0.00    +0.000 OA
BRANCH  26  28
ATOM     28  C   UNL     1      -2.414  12.201  22.444  0.00  0.00    +0.000 A 
ATOM     29  C   UNL     1      -3.199  12.453  23.556  0.00  0.00    +0.000 A 
ATOM     30  C   UNL     1      -4.423  12.985  23.087  0.00  0.00    +0.000 A 
ATOM     31  C   UNL     1      -4.321  13.021  21.718  0.00  0.00    +0.000 A 
ATOM     32  O   UNL     1      -3.112  12.552  21.318  0.00  0.00    +0.000 OA
ENDBRANCH  26  28
ENDBRANCH  25  26
ENDBRANCH  10  25
TORSDOF 6
ENDMDL
