MODEL 1
REMARK VINA RESULT:      -8.3      0.000      0.000
REMARK  Name = 
REMARK  4 active torsions:
REMARK  status: ('A' for Active; 'I' for Inactive)
REMARK    1  A    between atoms: C_1  and  C_2
REMARK    2  A    between atoms: N_8  and  C_9
REMARK    3  A    between atoms: C_9  and  C_10
REMARK    4  A    between atoms: C_17  and  C_18
REMARK                            x       y       z     vdW  Elec       q    Type
REMARK                         _______ _______ _______ _____ _____    ______ ____
ROOT
ATOM      1  C   UNL     1       1.748   4.970  19.167  0.00  0.00    +0.000 C 
ATOM      2  C   UNL     1       2.771   5.747  18.427  0.00  0.00    +0.000 A 
ATOM      3  S   UNL     1       4.028   4.903  17.604  0.00  0.00    +0.000 S 
ATOM      4  C   UNL     1       4.616   6.364  16.890  0.00  0.00    +0.000 A 
ATOM      5  N   UNL     1       5.565   6.394  15.912  0.00  0.00    +0.000 N 
ATOM      6  C   UNL     1       6.437   5.420  15.489  0.00  0.00    +0.000 C 
ATOM      7  N   UNL     1       6.903   4.483  16.250  0.00  0.00    +0.000 NA
ATOM      8  N   UNL     1       6.814   5.464  14.157  0.00  0.00    +0.000 N 
ATOM      9  N   UNL     1       3.973   7.426  17.337  0.00  0.00    +0.000 NA
ATOM     10  C   UNL     1       2.900   7.101  18.213  0.00  0.00    +0.000 A 
ATOM     11  H   UNL     1       5.741   7.312  15.513  0.00  0.00    +0.000 HD
ATOM     12  H   UNL     1       6.550   4.619  17.193  0.00  0.00    +0.000 HD
ATOM     13  H   UNL     1       6.181   5.954  13.542  0.00  0.00    +0.000 HD
ENDROOT
BRANCH  10  14
ATOM     14  C   UNL     1       2.083   8.253  18.697  0.00  0.00    +0.000 A 
ATOM     15  C   UNL     1       1.715   9.239  17.798  0.00  0.00    +0.000 A 
ATOM     16  N   UNL     1       1.357  10.326  18.527  0.00  0.00    +0.000 N 
ATOM     17  C   UNL     1       0.877   9.898  19.736  0.00  0.00    +0.000 A 
ATOM     18  C   UNL     1       0.024  10.572  20.620  0.00  0.00    +0.000 A 
ATOM     19  C   UNL     1      -0.294   9.941  21.816  0.00  0.00    +0.000 A 
ATOM     20  C   UNL     1       0.317   8.737  22.146  0.00  0.00    +0.000 A 
ATOM     21  C   UNL     1       1.202   8.089  21.249  0.00  0.00    +0.000 A 
ATOM     22  C   UNL     1       1.436   8.623  19.954  0.00  0.00    +0.000 A 
ATOM     23  H   UNL     1       1.351  11.281  18.198  0.00  0.00    +0.000 HD
ENDBRANCH  10  14
BRANCH   8  24
ATOM     24  C   UNL     1       7.301   4.201  13.561  0.00  0.00    +0.000 C 
BRANCH  24  25
ATOM     25  C   UNL     1       6.405   3.513  12.536  0.00  0.00    +0.000 A 
ATOM     26  C   UNL     1       6.738   2.324  11.880  0.00  0.00    +0.000 A 
ATOM     27  C   UNL     1       5.807   1.658  11.063  0.00  0.00    +0.000 A 
ATOM     28  C   UNL     1       4.511   2.158  10.920  0.00  0.00    +0.000 A 
ATOM     29  C   UNL     1       4.151   3.330  11.575  0.00  0.00    +0.000 A 
ATOM     30  C   UNL     1       5.086   3.984  12.383  0.00  0.00    +0.000 A 
ENDBRANCH  24  25
ENDBRANCH   8  24
TORSDOF 3
ENDMDL
MODEL 2
REMARK VINA RESULT:      -8.2      0.687      1.158
REMARK  Name = 
REMARK  4 active torsions:
REMARK  status: ('A' for Active; 'I' for Inactive)
REMARK    1  A    between atoms: C_1  and  C_2
REMARK    2  A    between atoms: N_8  and  C_9
REMARK    3  A    between atoms: C_9  and  C_10
REMARK    4  A    between atoms: C_17  and  C_18
REMARK                            x       y       z     vdW  Elec       q    Type
REMARK                         _______ _______ _______ _____ _____    ______ ____
ROOT
ATOM      1  C   UNL     1       1.734   5.326  20.081  0.00  0.00    +0.000 C 
ATOM      2  C   UNL     1       2.606   6.092  19.159  0.00  0.00    +0.000 A 
ATOM      3  S   UNL     1       3.870   5.268  18.326  0.00  0.00    +0.000 S 
ATOM      4  C   UNL     1       4.243   6.673  17.390  0.00  0.00    +0.000 A 
ATOM      5  N   UNL     1       5.098   6.664  16.329  0.00  0.00    +0.000 N 
ATOM      6  C   UNL     1       6.027   5.728  15.944  0.00  0.00    +0.000 C 
ATOM      7  N   UNL     1       6.648   4.942  16.762  0.00  0.00    +0.000 NA
ATOM      8  N   UNL     1       6.285   5.635  14.586  0.00  0.00    +0.000 N 
ATOM      9  N   UNL     1       3.534   7.721  17.767  0.00  0.00    +0.000 NA
ATOM     10  C   UNL     1       2.578   7.413  18.775  0.00  0.00    +0.000 A 
ATOM     11  H   UNL     1       5.145   7.536  15.809  0.00  0.00    +0.000 HD
ATOM     12  H   UNL     1       6.364   5.165  17.712  0.00  0.00    +0.000 HD
ATOM     13  H   UNL     1       5.555   5.983  13.980  0.00  0.00    +0.000 HD
ENDROOT
BRANCH  10  14
ATOM     14  C   UNL     1       1.691   8.538  19.194  0.00  0.00    +0.000 A 
ATOM     15  C   UNL     1       1.131   9.350  18.222  0.00  0.00    +0.000 A 
ATOM     16  N   UNL     1       0.729  10.489  18.841  0.00  0.00    +0.000 N 
ATOM     17  C   UNL     1       0.419  10.189  20.140  0.00  0.00    +0.000 A 
ATOM     18  C   UNL     1      -0.414  10.896  21.020  0.00  0.00    +0.000 A 
ATOM     19  C   UNL     1      -0.543  10.410  22.315  0.00  0.00    +0.000 A 
ATOM     20  C   UNL     1       0.225   9.327  22.727  0.00  0.00    +0.000 A 
ATOM     21  C   UNL     1       1.084   8.648  21.828  0.00  0.00    +0.000 A 
ATOM     22  C   UNL     1       1.132   9.017  20.457  0.00  0.00    +0.000 A 
ATOM     23  H   UNL     1       0.587  11.384  18.394  0.00  0.00    +0.000 HD
ENDBRANCH  10  14
BRANCH   8  24
ATOM     24  C   UNL     1       6.846   4.357  14.100  0.00  0.00    +0.000 C 
BRANCH  24  25
ATOM     25  C   UNL     1       6.052   3.592  13.047  0.00  0.00    +0.000 A 
ATOM     26  C   UNL     1       4.756   3.931  12.647  0.00  0.00    +0.000 A 
ATOM     27  C   UNL     1       4.135   3.282  11.563  0.00  0.00    +0.000 A 
ATOM     28  C   UNL     1       4.822   2.305  10.840  0.00  0.00    +0.000 A 
ATOM     29  C   UNL     1       6.118   1.963  11.209  0.00  0.00    +0.000 A 
ATOM     30  C   UNL     1       6.723   2.612  12.289  0.00  0.00    +0.000 A 
ENDBRANCH  24  25
ENDBRANCH   8  24
TORSDOF 3
ENDMDL
MODEL 3
REMARK VINA RESULT:      -8.1      4.327     11.428
REMARK  Name = 
REMARK  4 active torsions:
REMARK  status: ('A' for Active; 'I' for Inactive)
REMARK    1  A    between atoms: C_1  and  C_2
REMARK    2  A    between atoms: N_8  and  C_9
REMARK    3  A    between atoms: C_9  and  C_10
REMARK    4  A    between atoms: C_17  and  C_18
REMARK                            x       y       z     vdW  Elec       q    Type
REMARK                         _______ _______ _______ _____ _____    ______ ____
ROOT
ATOM      1  C   UNL     1       1.794   9.069  17.618  0.00  0.00    +0.000 C 
ATOM      2  C   UNL     1       1.495   9.057  19.070  0.00  0.00    +0.000 A 
ATOM      3  S   UNL     1       0.764  10.444  19.785  0.00  0.00    +0.000 S 
ATOM      4  C   UNL     1       0.569   9.629  21.297  0.00  0.00    +0.000 A 
ATOM      5  N   UNL     1      -0.156  10.134  22.336  0.00  0.00    +0.000 N 
ATOM      6  C   UNL     1      -0.619  11.408  22.560  0.00  0.00    +0.000 C 
ATOM      7  N   UNL     1      -0.035  12.479  22.129  0.00  0.00    +0.000 NA
ATOM      8  N   UNL     1      -1.792  11.520  23.287  0.00  0.00    +0.000 N 
ATOM      9  N   UNL     1       1.124   8.432  21.289  0.00  0.00    +0.000 NA
ATOM     10  C   UNL     1       1.654   8.072  20.019  0.00  0.00    +0.000 A 
ATOM     11  H   UNL     1      -0.270   9.504  23.125  0.00  0.00    +0.000 HD
ATOM     12  H   UNL     1       0.819  12.216  21.647  0.00  0.00    +0.000 HD
ATOM     13  H   UNL     1      -2.383  10.701  23.287  0.00  0.00    +0.000 HD
ENDROOT
BRANCH  10  14
ATOM     14  C   UNL     1       2.230   6.699  19.919  0.00  0.00    +0.000 A 
ATOM     15  C   UNL     1       1.752   5.707  20.760  0.00  0.00    +0.000 A 
ATOM     16  N   UNL     1       2.675   4.713  20.765  0.00  0.00    +0.000 N 
ATOM     17  C   UNL     1       3.328   4.722  19.563  0.00  0.00    +0.000 A 
ATOM     18  C   UNL     1       4.028   3.675  18.946  0.00  0.00    +0.000 A 
ATOM     19  C   UNL     1       4.647   3.941  17.731  0.00  0.00    +0.000 A 
ATOM     20  C   UNL     1       4.651   5.236  17.226  0.00  0.00    +0.000 A 
ATOM     21  C   UNL     1       3.964   6.286  17.884  0.00  0.00    +0.000 A 
ATOM     22  C   UNL     1       3.191   6.026  19.048  0.00  0.00    +0.000 A 
ATOM     23  H   UNL     1       2.792   4.021  21.492  0.00  0.00    +0.000 HD
ENDBRANCH  10  14
BRANCH   8  24
ATOM     24  C   UNL     1      -2.570  12.765  23.109  0.00  0.00    +0.000 C 
BRANCH  24  25
ATOM     25  C   UNL     1      -4.091  12.649  23.084  0.00  0.00    +0.000 A 
ATOM     26  C   UNL     1      -4.895  12.678  24.227  0.00  0.00    +0.000 A 
ATOM     27  C   UNL     1      -6.299  12.722  24.129  0.00  0.00    +0.000 A 
ATOM     28  C   UNL     1      -6.915  12.775  22.878  0.00  0.00    +0.000 A 
ATOM     29  C   UNL     1      -6.136  12.764  21.727  0.00  0.00    +0.000 A 
ATOM     30  C   UNL     1      -4.743  12.717  21.837  0.00  0.00    +0.000 A 
ENDBRANCH  24  25
ENDBRANCH   8  24
TORSDOF 3
ENDMDL
MODEL 4
REMARK VINA RESULT:      -8.0      4.222      6.109
REMARK  Name = 
REMARK  4 active torsions:
REMARK  status: ('A' for Active; 'I' for Inactive)
REMARK    1  A    between atoms: C_1  and  C_2
REMARK    2  A    between atoms: N_8  and  C_9
REMARK    3  A    between atoms: C_9  and  C_10
REMARK    4  A    between atoms: C_17  and  C_18
REMARK                            x       y       z     vdW  Elec       q    Type
REMARK                         _______ _______ _______ _____ _____    ______ ____
ROOT
ATOM      1  C   UNL     1       0.992  11.687  18.545  0.00  0.00    +0.000 C 
ATOM      2  C   UNL     1       1.006  10.443  19.352  0.00  0.00    +0.000 A 
ATOM      3  S   UNL     1       1.721   9.023  18.687  0.00  0.00    +0.000 S 
ATOM      4  C   UNL     1       1.542   8.169  20.179  0.00  0.00    +0.000 A 
ATOM      5  N   UNL     1       2.102   6.949  20.419  0.00  0.00    +0.000 N 
ATOM      6  C   UNL     1       2.638   6.030  19.549  0.00  0.00    +0.000 C 
ATOM      7  N   UNL     1       2.256   5.884  18.322  0.00  0.00    +0.000 NA
ATOM      8  N   UNL     1       3.656   5.232  20.043  0.00  0.00    +0.000 N 
ATOM      9  N   UNL     1       0.883   8.875  21.078  0.00  0.00    +0.000 NA
ATOM     10  C   UNL     1       0.572  10.191  20.634  0.00  0.00    +0.000 A 
ATOM     11  H   UNL     1       2.001   6.611  21.372  0.00  0.00    +0.000 HD
ATOM     12  H   UNL     1       1.487   6.522  18.138  0.00  0.00    +0.000 HD
ATOM     13  H   UNL     1       4.152   5.604  20.840  0.00  0.00    +0.000 HD
ENDROOT
BRANCH  10  14
ATOM     14  C   UNL     1      -0.108  11.070  21.630  0.00  0.00    +0.000 A 
ATOM     15  C   UNL     1      -0.764  10.488  22.702  0.00  0.00    +0.000 A 
ATOM     16  N   UNL     1      -1.609  11.423  23.203  0.00  0.00    +0.000 N 
ATOM     17  C   UNL     1      -1.082  12.661  22.955  0.00  0.00    +0.000 A 
ATOM     18  C   UNL     1      -1.345  13.867  23.621  0.00  0.00    +0.000 A 
ATOM     19  C   UNL     1      -0.711  15.012  23.156  0.00  0.00    +0.000 A 
ATOM     20  C   UNL     1       0.062  14.954  22.002  0.00  0.00    +0.000 A 
ATOM     21  C   UNL     1       0.288  13.729  21.327  0.00  0.00    +0.000 A 
ATOM     22  C   UNL     1      -0.217  12.510  21.854  0.00  0.00    +0.000 A 
ATOM     23  H   UNL     1      -2.436  11.236  23.753  0.00  0.00    +0.000 HD
ENDBRANCH  10  14
BRANCH   8  24
ATOM     24  C   UNL     1       4.573   4.632  19.050  0.00  0.00    +0.000 C 
BRANCH  24  25
ATOM     25  C   UNL     1       5.742   5.482  18.564  0.00  0.00    +0.000 A 
ATOM     26  C   UNL     1       5.647   6.424  17.534  0.00  0.00    +0.000 A 
ATOM     27  C   UNL     1       6.719   7.286  17.234  0.00  0.00    +0.000 A 
ATOM     28  C   UNL     1       7.892   7.239  17.990  0.00  0.00    +0.000 A 
ATOM     29  C   UNL     1       8.003   6.323  19.029  0.00  0.00    +0.000 A 
ATOM     30  C   UNL     1       6.933   5.470  19.316  0.00  0.00    +0.000 A 
ENDBRANCH  24  25
ENDBRANCH   8  24
TORSDOF 3
ENDMDL
MODEL 5
REMARK VINA RESULT:      -8.0      3.636      5.406
REMARK  Name = 
REMARK  4 active torsions:
REMARK  status: ('A' for Active; 'I' for Inactive)
REMARK    1  A    between atoms: C_1  and  C_2
REMARK    2  A    between atoms: N_8  and  C_9
REMARK    3  A    between atoms: C_9  and  C_10
REMARK    4  A    between atoms: C_17  and  C_18
REMARK                            x       y       z     vdW  Elec       q    Type
REMARK                         _______ _______ _______ _____ _____    ______ ____
ROOT
ATOM      1  C   UNL     1       1.348  10.689  18.536  0.00  0.00    +0.000 C 
ATOM      2  C   UNL     1       1.348   9.403  19.273  0.00  0.00    +0.000 A 
ATOM      3  S   UNL     1       2.144   8.041  18.580  0.00  0.00    +0.000 S 
ATOM      4  C   UNL     1       1.896   7.099  20.008  0.00  0.00    +0.000 A 
ATOM      5  N   UNL     1       2.475   5.883  20.217  0.00  0.00    +0.000 N 
ATOM      6  C   UNL     1       3.091   5.028  19.336  0.00  0.00    +0.000 C 
ATOM      7  N   UNL     1       2.792   4.942  18.080  0.00  0.00    +0.000 NA
ATOM      8  N   UNL     1       4.098   4.230  19.850  0.00  0.00    +0.000 N 
ATOM      9  N   UNL     1       1.161   7.737  20.900  0.00  0.00    +0.000 NA
ATOM     10  C   UNL     1       0.841   9.067  20.509  0.00  0.00    +0.000 A 
ATOM     11  H   UNL     1       2.323   5.489  21.142  0.00  0.00    +0.000 HD
ATOM     12  H   UNL     1       2.019   5.569  17.882  0.00  0.00    +0.000 HD
ATOM     13  H   UNL     1       4.532   4.569  20.697  0.00  0.00    +0.000 HD
ENDROOT
BRANCH  10  14
ATOM     14  C   UNL     1       0.073   9.871  21.505  0.00  0.00    +0.000 A 
ATOM     15  C   UNL     1       0.165   9.543  22.847  0.00  0.00    +0.000 A 
ATOM     16  N   UNL     1      -0.893  10.121  23.470  0.00  0.00    +0.000 N 
ATOM     17  C   UNL     1      -1.239  11.250  22.777  0.00  0.00    +0.000 A 
ATOM     18  C   UNL     1      -1.948  12.369  23.238  0.00  0.00    +0.000 A 
ATOM     19  C   UNL     1      -2.213  13.382  22.326  0.00  0.00    +0.000 A 
ATOM     20  C   UNL     1      -1.876  13.216  20.988  0.00  0.00    +0.000 A 
ATOM     21  C   UNL     1      -1.187  12.062  20.540  0.00  0.00    +0.000 A 
ATOM     22  C   UNL     1      -0.762  11.070  21.464  0.00  0.00    +0.000 A 
ATOM     23  H   UNL     1      -1.293   9.825  24.349  0.00  0.00    +0.000 HD
ENDBRANCH  10  14
BRANCH   8  24
ATOM     24  C   UNL     1       5.094   3.710  18.888  0.00  0.00    +0.000 C 
BRANCH  24  25
ATOM     25  C   UNL     1       6.075   4.706  18.279  0.00  0.00    +0.000 A 
ATOM     26  C   UNL     1       6.084   5.067  16.929  0.00  0.00    +0.000 A 
ATOM     27  C   UNL     1       6.910   6.105  16.458  0.00  0.00    +0.000 A 
ATOM     28  C   UNL     1       7.716   6.821  17.345  0.00  0.00    +0.000 A 
ATOM     29  C   UNL     1       7.711   6.491  18.695  0.00  0.00    +0.000 A 
ATOM     30  C   UNL     1       6.888   5.457  19.151  0.00  0.00    +0.000 A 
ENDBRANCH  24  25
ENDBRANCH   8  24
TORSDOF 3
ENDMDL
MODEL 6
REMARK VINA RESULT:      -8.0      4.327     10.891
REMARK  Name = 
REMARK  4 active torsions:
REMARK  status: ('A' for Active; 'I' for Inactive)
REMARK    1  A    between atoms: C_1  and  C_2
REMARK    2  A    between atoms: N_8  and  C_9
REMARK    3  A    between atoms: C_9  and  C_10
REMARK    4  A    between atoms: C_17  and  C_18
REMARK                            x       y       z     vdW  Elec       q    Type
REMARK                         _______ _______ _______ _____ _____    ______ ____
ROOT
ATOM      1  C   UNL     1       1.856   9.298  17.700  0.00  0.00    +0.000 C 
ATOM      2  C   UNL     1       1.481   9.230  19.132  0.00  0.00    +0.000 A 
ATOM      3  S   UNL     1       0.712  10.590  19.861  0.00  0.00    +0.000 S 
ATOM      4  C   UNL     1       0.440   9.718  21.329  0.00  0.00    +0.000 A 
ATOM      5  N   UNL     1      -0.339  10.184  22.347  0.00  0.00    +0.000 N 
ATOM      6  C   UNL     1      -0.814  11.448  22.595  0.00  0.00    +0.000 C 
ATOM      7  N   UNL     1      -0.210  12.534  22.236  0.00  0.00    +0.000 NA
ATOM      8  N   UNL     1      -2.023  11.534  23.264  0.00  0.00    +0.000 N 
ATOM      9  N   UNL     1       0.995   8.521  21.304  0.00  0.00    +0.000 NA
ATOM     10  C   UNL     1       1.591   8.209  20.050  0.00  0.00    +0.000 A 
ATOM     11  H   UNL     1      -0.493   9.524  23.104  0.00  0.00    +0.000 HD
ATOM     12  H   UNL     1       0.669  12.290  21.789  0.00  0.00    +0.000 HD
ATOM     13  H   UNL     1      -2.613  10.716  23.202  0.00  0.00    +0.000 HD
ENDROOT
BRANCH  10  14
ATOM     14  C   UNL     1       2.173   6.840  19.929  0.00  0.00    +0.000 A 
ATOM     15  C   UNL     1       1.728   5.843  20.781  0.00  0.00    +0.000 A 
ATOM     16  N   UNL     1       2.658   4.856  20.754  0.00  0.00    +0.000 N 
ATOM     17  C   UNL     1       3.273   4.872  19.531  0.00  0.00    +0.000 A 
ATOM     18  C   UNL     1       3.959   3.832  18.890  0.00  0.00    +0.000 A 
ATOM     19  C   UNL     1       4.538   4.105  17.657  0.00  0.00    +0.000 A 
ATOM     20  C   UNL     1       4.517   5.402  17.156  0.00  0.00    +0.000 A 
ATOM     21  C   UNL     1       3.844   6.445  17.838  0.00  0.00    +0.000 A 
ATOM     22  C   UNL     1       3.111   6.177  19.025  0.00  0.00    +0.000 A 
ATOM     23  H   UNL     1       2.803   4.163  21.475  0.00  0.00    +0.000 HD
ENDBRANCH  10  14
BRANCH   8  24
ATOM     24  C   UNL     1      -2.792  12.786  23.093  0.00  0.00    +0.000 C 
BRANCH  24  25
ATOM     25  C   UNL     1      -3.878  12.807  22.022  0.00  0.00    +0.000 A 
ATOM     26  C   UNL     1      -3.627  12.676  20.653  0.00  0.00    +0.000 A 
ATOM     27  C   UNL     1      -4.681  12.548  19.728  0.00  0.00    +0.000 A 
ATOM     28  C   UNL     1      -6.005  12.515  20.171  0.00  0.00    +0.000 A 
ATOM     29  C   UNL     1      -6.278  12.627  21.529  0.00  0.00    +0.000 A 
ATOM     30  C   UNL     1      -5.223  12.756  22.437  0.00  0.00    +0.000 A 
ENDBRANCH  24  25
ENDBRANCH   8  24
TORSDOF 3
ENDMDL
MODEL 7
REMARK VINA RESULT:      -8.0      4.184     10.106
REMARK  Name = 
REMARK  4 active torsions:
REMARK  status: ('A' for Active; 'I' for Inactive)
REMARK    1  A    between atoms: C_1  and  C_2
REMARK    2  A    between atoms: N_8  and  C_9
REMARK    3  A    between atoms: C_9  and  C_10
REMARK    4  A    between atoms: C_17  and  C_18
REMARK                            x       y       z     vdW  Elec       q    Type
REMARK                         _______ _______ _______ _____ _____    ______ ____
ROOT
ATOM      1  C   UNL     1       1.413   7.090  21.165  0.00  0.00    +0.000 C 
ATOM      2  C   UNL     1       1.538   8.022  20.018  0.00  0.00    +0.000 A 
ATOM      3  S   UNL     1       0.874   9.606  20.153  0.00  0.00    +0.000 S 
ATOM      4  C   UNL     1       1.557  10.080  18.637  0.00  0.00    +0.000 A 
ATOM      5  N   UNL     1       1.562  11.366  18.183  0.00  0.00    +0.000 N 
ATOM      6  C   UNL     1       0.844  12.459  18.602  0.00  0.00    +0.000 C 
ATOM      7  N   UNL     1      -0.335  12.394  19.132  0.00  0.00    +0.000 NA
ATOM      8  N   UNL     1       1.450  13.694  18.446  0.00  0.00    +0.000 N 
ATOM      9  N   UNL     1       2.148   9.072  18.023  0.00  0.00    +0.000 NA
ATOM     10  C   UNL     1       2.162   7.879  18.799  0.00  0.00    +0.000 A 
ATOM     11  H   UNL     1       2.087  11.515  17.325  0.00  0.00    +0.000 HD
ATOM     12  H   UNL     1      -0.638  11.424  19.142  0.00  0.00    +0.000 HD
ATOM     13  H   UNL     1       2.458  13.678  18.378  0.00  0.00    +0.000 HD
ENDROOT
BRANCH  10  14
ATOM     14  C   UNL     1       2.881   6.719  18.196  0.00  0.00    +0.000 A 
ATOM     15  C   UNL     1       4.166   6.903  17.712  0.00  0.00    +0.000 A 
ATOM     16  N   UNL     1       4.429   5.864  16.881  0.00  0.00    +0.000 N 
ATOM     17  C   UNL     1       3.704   4.780  17.299  0.00  0.00    +0.000 A 
ATOM     18  C   UNL     1       3.949   3.422  17.049  0.00  0.00    +0.000 A 
ATOM     19  C   UNL     1       3.041   2.501  17.553  0.00  0.00    +0.000 A 
ATOM     20  C   UNL     1       1.882   2.944  18.181  0.00  0.00    +0.000 A 
ATOM     21  C   UNL     1       1.640   4.323  18.394  0.00  0.00    +0.000 A 
ATOM     22  C   UNL     1       2.614   5.292  18.030  0.00  0.00    +0.000 A 
ATOM     23  H   UNL     1       5.116   5.860  16.140  0.00  0.00    +0.000 HD
ENDBRANCH  10  14
BRANCH   8  24
ATOM     24  C   UNL     1       0.970  14.787  19.318  0.00  0.00    +0.000 C 
BRANCH  24  25
ATOM     25  C   UNL     1       0.747  16.154  18.679  0.00  0.00    +0.000 A 
ATOM     26  C   UNL     1       1.725  16.852  17.964  0.00  0.00    +0.000 A 
ATOM     27  C   UNL     1       1.414  18.035  17.268  0.00  0.00    +0.000 A 
ATOM     28  C   UNL     1       0.104  18.517  17.250  0.00  0.00    +0.000 A 
ATOM     29  C   UNL     1      -0.889  17.831  17.939  0.00  0.00    +0.000 A 
ATOM     30  C   UNL     1      -0.568  16.659  18.629  0.00  0.00    +0.000 A 
ENDBRANCH  24  25
ENDBRANCH   8  24
TORSDOF 3
ENDMDL
MODEL 8
REMARK VINA RESULT:      -7.9      1.144      2.034
REMARK  Name = 
REMARK  4 active torsions:
REMARK  status: ('A' for Active; 'I' for Inactive)
REMARK    1  A    between atoms: C_1  and  C_2
REMARK    2  A    between atoms: N_8  and  C_9
REMARK    3  A    between atoms: C_9  and  C_10
REMARK    4  A    between atoms: C_17  and  C_18
REMARK                            x       y       z     vdW  Elec       q    Type
REMARK                         _______ _______ _______ _____ _____    ______ ____
ROOT
ATOM      1  C   UNL     1       1.676   3.807  18.214  0.00  0.00    +0.000 C 
ATOM      2  C   UNL     1       2.850   4.652  17.890  0.00  0.00    +0.000 A 
ATOM      3  S   UNL     1       4.061   4.030  16.834  0.00  0.00    +0.000 S 
ATOM      4  C   UNL     1       4.889   5.547  16.800  0.00  0.00    +0.000 A 
ATOM      5  N   UNL     1       5.919   5.824  15.951  0.00  0.00    +0.000 N 
ATOM      6  C   UNL     1       6.697   4.983  15.194  0.00  0.00    +0.000 C 
ATOM      7  N   UNL     1       6.972   3.761  15.518  0.00  0.00    +0.000 NA
ATOM      8  N   UNL     1       7.195   5.500  14.010  0.00  0.00    +0.000 N 
ATOM      9  N   UNL     1       4.346   6.425  17.623  0.00  0.00    +0.000 NA
ATOM     10  C   UNL     1       3.166   5.941  18.254  0.00  0.00    +0.000 A 
ATOM     11  H   UNL     1       6.243   6.787  15.970  0.00  0.00    +0.000 HD
ATOM     12  H   UNL     1       6.555   3.558  16.422  0.00  0.00    +0.000 HD
ATOM     13  H   UNL     1       6.686   6.285  13.630  0.00  0.00    +0.000 HD
ENDROOT
BRANCH  10  14
ATOM     14  C   UNL     1       2.459   6.910  19.142  0.00  0.00    +0.000 A 
ATOM     15  C   UNL     1       2.311   6.606  20.485  0.00  0.00    +0.000 A 
ATOM     16  N   UNL     1       1.323   7.403  20.965  0.00  0.00    +0.000 N 
ATOM     17  C   UNL     1       1.305   8.559  20.233  0.00  0.00    +0.000 A 
ATOM     18  C   UNL     1       0.786   9.810  20.597  0.00  0.00    +0.000 A 
ATOM     19  C   UNL     1       0.850  10.832  19.658  0.00  0.00    +0.000 A 
ATOM     20  C   UNL     1       1.314  10.564  18.375  0.00  0.00    +0.000 A 
ATOM     21  C   UNL     1       1.804   9.283  18.021  0.00  0.00    +0.000 A 
ATOM     22  C   UNL     1       1.897   8.251  18.993  0.00  0.00    +0.000 A 
ATOM     23  H   UNL     1       0.762   7.218  21.785  0.00  0.00    +0.000 HD
ENDBRANCH  10  14
BRANCH   8  24
ATOM     24  C   UNL     1       7.573   4.525  12.964  0.00  0.00    +0.000 C 
BRANCH  24  25
ATOM     25  C   UNL     1       6.470   3.641  12.392  0.00  0.00    +0.000 A 
ATOM     26  C   UNL     1       5.147   4.057  12.215  0.00  0.00    +0.000 A 
ATOM     27  C   UNL     1       4.213   3.249  11.542  0.00  0.00    +0.000 A 
ATOM     28  C   UNL     1       4.603   2.021  11.003  0.00  0.00    +0.000 A 
ATOM     29  C   UNL     1       5.917   1.593  11.152  0.00  0.00    +0.000 A 
ATOM     30  C   UNL     1       6.836   2.404  11.825  0.00  0.00    +0.000 A 
ENDBRANCH  24  25
ENDBRANCH   8  24
TORSDOF 3
ENDMDL
MODEL 9
REMARK VINA RESULT:      -7.8      4.930     11.158
REMARK  Name = 
REMARK  4 active torsions:
REMARK  status: ('A' for Active; 'I' for Inactive)
REMARK    1  A    between atoms: C_1  and  C_2
REMARK    2  A    between atoms: N_8  and  C_9
REMARK    3  A    between atoms: C_9  and  C_10
REMARK    4  A    between atoms: C_17  and  C_18
REMARK                            x       y       z     vdW  Elec       q    Type
REMARK                         _______ _______ _______ _____ _____    ______ ____
ROOT
ATOM      1  C   UNL     1       2.317   8.554  17.349  0.00  0.00    +0.000 C 
ATOM      2  C   UNL     1       1.970   8.570  18.790  0.00  0.00    +0.000 A 
ATOM      3  S   UNL     1       1.246   9.983  19.461  0.00  0.00    +0.000 S 
ATOM      4  C   UNL     1       0.985   9.195  20.977  0.00  0.00    +0.000 A 
ATOM      5  N   UNL     1       0.238   9.731  21.984  0.00  0.00    +0.000 N 
ATOM      6  C   UNL     1      -0.205  11.017  22.175  0.00  0.00    +0.000 C 
ATOM      7  N   UNL     1       0.415  12.069  21.747  0.00  0.00    +0.000 NA
ATOM      8  N   UNL     1      -1.398  11.164  22.862  0.00  0.00    +0.000 N 
ATOM      9  N   UNL     1       1.515   7.987  21.005  0.00  0.00    +0.000 NA
ATOM     10  C   UNL     1       2.078   7.597  19.758  0.00  0.00    +0.000 A 
ATOM     11  H   UNL     1       0.085   9.115  22.779  0.00  0.00    +0.000 HD
ATOM     12  H   UNL     1       1.279  11.782  21.297  0.00  0.00    +0.000 HD
ATOM     13  H   UNL     1      -2.007  10.358  22.855  0.00  0.00    +0.000 HD
ENDROOT
BRANCH  10  14
ATOM     14  C   UNL     1       2.628   6.210  19.698  0.00  0.00    +0.000 A 
ATOM     15  C   UNL     1       3.948   6.028  19.319  0.00  0.00    +0.000 A 
ATOM     16  N   UNL     1       4.079   4.727  18.955  0.00  0.00    +0.000 N 
ATOM     17  C   UNL     1       3.169   3.987  19.660  0.00  0.00    +0.000 A 
ATOM     18  C   UNL     1       3.202   2.614  19.948  0.00  0.00    +0.000 A 
ATOM     19  C   UNL     1       2.132   2.079  20.653  0.00  0.00    +0.000 A 
ATOM     20  C   UNL     1       1.031   2.874  20.950  0.00  0.00    +0.000 A 
ATOM     21  C   UNL     1       1.007   4.251  20.620  0.00  0.00    +0.000 A 
ATOM     22  C   UNL     1       2.141   4.874  20.035  0.00  0.00    +0.000 A 
ATOM     23  H   UNL     1       4.792   4.355  18.344  0.00  0.00    +0.000 HD
ENDBRANCH  10  14
BRANCH   8  24
ATOM     24  C   UNL     1      -2.144  12.422  22.640  0.00  0.00    +0.000 C 
BRANCH  24  25
ATOM     25  C   UNL     1      -3.618  12.447  23.029  0.00  0.00    +0.000 A 
ATOM     26  C   UNL     1      -4.081  12.336  24.344  0.00  0.00    +0.000 A 
ATOM     27  C   UNL     1      -5.441  12.520  24.655  0.00  0.00    +0.000 A 
ATOM     28  C   UNL     1      -6.354  12.855  23.653  0.00  0.00    +0.000 A 
ATOM     29  C   UNL     1      -5.914  12.986  22.341  0.00  0.00    +0.000 A 
ATOM     30  C   UNL     1      -4.561  12.799  22.044  0.00  0.00    +0.000 A 
ENDBRANCH  24  25
ENDBRANCH   8  24
TORSDOF 3
ENDMDL
