MODEL 1
REMARK VINA RESULT:      -6.9      0.000      0.000
REMARK  Name = 
REMARK  12 active torsions:
REMARK  status: ('A' for Active; 'I' for Inactive)
REMARK    1  A    between atoms: C_1  and  C_2
REMARK    2  A    between atoms: C_2  and  O_3
REMARK    3  A    between atoms: O_3  and  C_4
REMARK    4  A    between atoms: C_4  and  C_6
REMARK    5  A    between atoms: C_8  and  C_9
REMARK    6  A    between atoms: C_9  and  O_11
REMARK    7  A    between atoms: O_11  and  C_12
REMARK    8  A    between atoms: C_12  and  C_13
REMARK    9  A    between atoms: C_15  and  C_16
REMARK   10  A    between atoms: C_16  and  O_18
REMARK   11  A    between atoms: O_18  and  C_19
REMARK   12  A    between atoms: C_19  and  C_20
REMARK                            x       y       z     vdW  Elec       q    Type
REMARK                         _______ _______ _______ _____ _____    ______ ____
ROOT
ATOM      1  C   UNL     1       6.049   4.641  15.720  0.00  0.00    +0.000 A 
ATOM      2  N   UNL     1       4.894   4.059  16.036  0.00  0.00    +0.000 NA
ATOM      3  C   UNL     1       4.648   4.004  17.343  0.00  0.00    +0.000 A 
ATOM      4  N   UNL     1       5.444   4.475  18.299  0.00  0.00    +0.000 NA
ATOM      5  C   UNL     1       6.559   5.047  17.864  0.00  0.00    +0.000 A 
ATOM      6  N   UNL     1       6.920   5.162  16.589  0.00  0.00    +0.000 NA
ENDROOT
BRANCH   1   7
ATOM      7  C   UNL     1       6.446   4.595  14.275  0.00  0.00    +0.000 C 
ATOM      8  O   UNL     1       7.389   5.193  13.786  0.00  0.00    +0.000 OA
BRANCH   7   9
ATOM      9  O   UNL     1       5.503   3.895  13.580  0.00  0.00    +0.000 OA
BRANCH   9  11
ATOM     10  C   UNL     1       4.693   3.098  11.488  0.00  0.00    +0.000 C 
ATOM     11  C   UNL     1       5.933   3.379  12.318  0.00  0.00    +0.000 C 
ENDBRANCH   9  11
ENDBRANCH   7   9
ENDBRANCH   1   7
BRANCH   3  12
ATOM     12  C   UNL     1       3.311   3.469  17.756  0.00  0.00    +0.000 C 
ATOM     13  O   UNL     1       2.354   3.322  17.008  0.00  0.00    +0.000 OA
BRANCH  12  14
ATOM     14  O   UNL     1       3.301   3.287  19.104  0.00  0.00    +0.000 OA
BRANCH  14  15
ATOM     15  C   UNL     1       2.020   3.038  19.687  0.00  0.00    +0.000 C 
ATOM     16  C   UNL     1       1.600   4.285  20.448  0.00  0.00    +0.000 C 
ENDBRANCH  14  15
ENDBRANCH  12  14
ENDBRANCH   3  12
BRANCH   5  17
ATOM     17  C   UNL     1       7.399   5.716  18.909  0.00  0.00    +0.000 C 
ATOM     18  O   UNL     1       7.319   5.482  20.105  0.00  0.00    +0.000 OA
BRANCH  17  19
ATOM     19  O   UNL     1       8.160   6.690  18.342  0.00  0.00    +0.000 OA
BRANCH  19  20
ATOM     20  C   UNL     1       7.424   7.805  17.825  0.00  0.00    +0.000 C 
ATOM     21  C   UNL     1       8.270   9.048  18.028  0.00  0.00    +0.000 C 
ENDBRANCH  19  20
ENDBRANCH  17  19
ENDBRANCH   5  17
TORSDOF 9
ENDMDL
MODEL 2
REMARK VINA RESULT:      -6.8      0.691      6.013
REMARK  Name = 
REMARK  12 active torsions:
REMARK  status: ('A' for Active; 'I' for Inactive)
REMARK    1  A    between atoms: C_1  and  C_2
REMARK    2  A    between atoms: C_2  and  O_3
REMARK    3  A    between atoms: O_3  and  C_4
REMARK    4  A    between atoms: C_4  and  C_6
REMARK    5  A    between atoms: C_8  and  C_9
REMARK    6  A    between atoms: C_9  and  O_11
REMARK    7  A    between atoms: O_11  and  C_12
REMARK    8  A    between atoms: C_12  and  C_13
REMARK    9  A    between atoms: C_15  and  C_16
REMARK   10  A    between atoms: C_16  and  O_18
REMARK   11  A    between atoms: O_18  and  C_19
REMARK   12  A    between atoms: C_19  and  C_20
REMARK                            x       y       z     vdW  Elec       q    Type
REMARK                         _______ _______ _______ _____ _____    ______ ____
ROOT
ATOM      1  C   UNL     1       4.708   4.118  17.337  0.00  0.00    +0.000 A 
ATOM      2  N   UNL     1       5.457   4.644  18.304  0.00  0.00    +0.000 NA
ATOM      3  C   UNL     1       6.666   5.037  17.907  0.00  0.00    +0.000 A 
ATOM      4  N   UNL     1       7.141   4.942  16.668  0.00  0.00    +0.000 NA
ATOM      5  C   UNL     1       6.300   4.417  15.787  0.00  0.00    +0.000 A 
ATOM      6  N   UNL     1       5.070   3.986  16.058  0.00  0.00    +0.000 NA
ENDROOT
BRANCH   1   7
ATOM      7  C   UNL     1       3.397   3.524  17.758  0.00  0.00    +0.000 C 
ATOM      8  O   UNL     1       3.050   2.374  17.552  0.00  0.00    +0.000 OA
BRANCH   7   9
ATOM      9  O   UNL     1       2.611   4.510  18.277  0.00  0.00    +0.000 OA
BRANCH   9  11
ATOM     10  C   UNL     1       1.810   5.038  20.455  0.00  0.00    +0.000 C 
ATOM     11  C   UNL     1       1.684   4.087  19.278  0.00  0.00    +0.000 C 
ENDBRANCH   9  11
ENDBRANCH   7   9
ENDBRANCH   1   7
BRANCH   3  12
ATOM     12  C   UNL     1       7.512   5.745  18.921  0.00  0.00    +0.000 C 
ATOM     13  O   UNL     1       7.463   5.554  20.129  0.00  0.00    +0.000 OA
BRANCH  12  14
ATOM     14  O   UNL     1       8.248   6.702  18.296  0.00  0.00    +0.000 OA
BRANCH  14  15
ATOM     15  C   UNL     1       7.519   7.838  17.827  0.00  0.00    +0.000 C 
ATOM     16  C   UNL     1       8.344   9.080  18.119  0.00  0.00    +0.000 C 
ENDBRANCH  14  15
ENDBRANCH  12  14
ENDBRANCH   3  12
BRANCH   5  17
ATOM     17  C   UNL     1       6.754   4.438  14.360  0.00  0.00    +0.000 C 
ATOM     18  O   UNL     1       7.439   5.323  13.871  0.00  0.00    +0.000 OA
BRANCH  17  19
ATOM     19  O   UNL     1       6.194   3.402  13.678  0.00  0.00    +0.000 OA
BRANCH  19  20
ATOM     20  C   UNL     1       6.108   3.592  12.260  0.00  0.00    +0.000 C 
ATOM     21  C   UNL     1       5.942   2.224  11.623  0.00  0.00    +0.000 C 
ENDBRANCH  19  20
ENDBRANCH  17  19
ENDBRANCH   5  17
TORSDOF 9
ENDMDL
MODEL 3
REMARK VINA RESULT:      -6.8      0.714      4.767
REMARK  Name = 
REMARK  12 active torsions:
REMARK  status: ('A' for Active; 'I' for Inactive)
REMARK    1  A    between atoms: C_1  and  C_2
REMARK    2  A    between atoms: C_2  and  O_3
REMARK    3  A    between atoms: O_3  and  C_4
REMARK    4  A    between atoms: C_4  and  C_6
REMARK    5  A    between atoms: C_8  and  C_9
REMARK    6  A    between atoms: C_9  and  O_11
REMARK    7  A    between atoms: O_11  and  C_12
REMARK    8  A    between atoms: C_12  and  C_13
REMARK    9  A    between atoms: C_15  and  C_16
REMARK   10  A    between atoms: C_16  and  O_18
REMARK   11  A    between atoms: O_18  and  C_19
REMARK   12  A    between atoms: C_19  and  C_20
REMARK                            x       y       z     vdW  Elec       q    Type
REMARK                         _______ _______ _______ _____ _____    ______ ____
ROOT
ATOM      1  C   UNL     1       6.476   4.655  15.914  0.00  0.00    +0.000 A 
ATOM      2  N   UNL     1       7.286   5.191  16.826  0.00  0.00    +0.000 NA
ATOM      3  C   UNL     1       6.729   5.356  18.024  0.00  0.00    +0.000 A 
ATOM      4  N   UNL     1       5.480   5.033  18.345  0.00  0.00    +0.000 NA
ATOM      5  C   UNL     1       4.772   4.493  17.362  0.00  0.00    +0.000 A 
ATOM      6  N   UNL     1       5.213   4.278  16.125  0.00  0.00    +0.000 NA
ENDROOT
BRANCH   1   7
ATOM      7  C   UNL     1       7.004   4.586  14.513  0.00  0.00    +0.000 C 
ATOM      8  O   UNL     1       7.782   5.382  14.016  0.00  0.00    +0.000 OA
BRANCH   7   9
ATOM      9  O   UNL     1       6.366   3.578  13.850  0.00  0.00    +0.000 OA
BRANCH   9  11
ATOM     10  C   UNL     1       5.966   2.449  11.793  0.00  0.00    +0.000 C 
ATOM     11  C   UNL     1       6.160   3.802  12.453  0.00  0.00    +0.000 C 
ENDBRANCH   9  11
ENDBRANCH   7   9
ENDBRANCH   1   7
BRANCH   3  12
ATOM     12  C   UNL     1       7.623   5.843  19.122  0.00  0.00    +0.000 C 
ATOM     13  O   UNL     1       7.614   5.422  20.271  0.00  0.00    +0.000 OA
BRANCH  12  14
ATOM     14  O   UNL     1       8.354   6.896  18.668  0.00  0.00    +0.000 OA
BRANCH  14  15
ATOM     15  C   UNL     1       7.632   7.873  17.914  0.00  0.00    +0.000 C 
ATOM     16  C   UNL     1       8.358   9.201  18.048  0.00  0.00    +0.000 C 
ENDBRANCH  14  15
ENDBRANCH  12  14
ENDBRANCH   3  12
BRANCH   5  17
ATOM     17  C   UNL     1       3.415   3.983  17.738  0.00  0.00    +0.000 C 
ATOM     18  O   UNL     1       2.840   3.073  17.161  0.00  0.00    +0.000 OA
BRANCH  17  19
ATOM     19  O   UNL     1       2.884   4.756  18.724  0.00  0.00    +0.000 OA
BRANCH  19  20
ATOM     20  C   UNL     1       2.594   4.062  19.943  0.00  0.00    +0.000 C 
ATOM     21  C   UNL     1       1.084   4.005  20.091  0.00  0.00    +0.000 C 
ENDBRANCH  19  20
ENDBRANCH  17  19
ENDBRANCH   5  17
TORSDOF 9
ENDMDL
MODEL 4
REMARK VINA RESULT:      -6.8      1.156      4.902
REMARK  Name = 
REMARK  12 active torsions:
REMARK  status: ('A' for Active; 'I' for Inactive)
REMARK    1  A    between atoms: C_1  and  C_2
REMARK    2  A    between atoms: C_2  and  O_3
REMARK    3  A    between atoms: O_3  and  C_4
REMARK    4  A    between atoms: C_4  and  C_6
REMARK    5  A    between atoms: C_8  and  C_9
REMARK    6  A    between atoms: C_9  and  O_11
REMARK    7  A    between atoms: O_11  and  C_12
REMARK    8  A    between atoms: C_12  and  C_13
REMARK    9  A    between atoms: C_15  and  C_16
REMARK   10  A    between atoms: C_16  and  O_18
REMARK   11  A    between atoms: O_18  and  C_19
REMARK   12  A    between atoms: C_19  and  C_20
REMARK                            x       y       z     vdW  Elec       q    Type
REMARK                         _______ _______ _______ _____ _____    ______ ____
ROOT
ATOM      1  C   UNL     1       4.937   4.994  17.083  0.00  0.00    +0.000 A 
ATOM      2  N   UNL     1       5.239   4.682  15.824  0.00  0.00    +0.000 NA
ATOM      3  C   UNL     1       6.391   5.192  15.394  0.00  0.00    +0.000 A 
ATOM      4  N   UNL     1       7.214   5.953  16.111  0.00  0.00    +0.000 NA
ATOM      5  C   UNL     1       6.817   6.185  17.356  0.00  0.00    +0.000 A 
ATOM      6  N   UNL     1       5.690   5.734  17.901  0.00  0.00    +0.000 NA
ENDROOT
BRANCH   1   7
ATOM      7  C   UNL     1       3.584   4.572  17.569  0.00  0.00    +0.000 C 
ATOM      8  O   UNL     1       2.671   5.329  17.852  0.00  0.00    +0.000 OA
BRANCH   7   9
ATOM      9  O   UNL     1       3.589   3.223  17.775  0.00  0.00    +0.000 OA
BRANCH   9  11
ATOM     10  C   UNL     1       2.025   2.084  19.162  0.00  0.00    +0.000 C 
ATOM     11  C   UNL     1       2.303   2.599  17.761  0.00  0.00    +0.000 C 
ENDBRANCH   9  11
ENDBRANCH   7   9
ENDBRANCH   1   7
BRANCH   3  12
ATOM     12  C   UNL     1       6.844   4.779  14.028  0.00  0.00    +0.000 C 
ATOM     13  O   UNL     1       7.685   5.368  13.361  0.00  0.00    +0.000 OA
BRANCH  12  14
ATOM     14  O   UNL     1       6.092   3.727  13.609  0.00  0.00    +0.000 OA
BRANCH  14  15
ATOM     15  C   UNL     1       6.209   3.393  12.224  0.00  0.00    +0.000 C 
ATOM     16  C   UNL     1       4.811   3.149  11.680  0.00  0.00    +0.000 C 
ENDBRANCH  14  15
ENDBRANCH  12  14
ENDBRANCH   3  12
BRANCH   5  17
ATOM     17  C   UNL     1       7.795   6.911  18.227  0.00  0.00    +0.000 C 
ATOM     18  O   UNL     1       8.289   6.442  19.241  0.00  0.00    +0.000 OA
BRANCH  17  19
ATOM     19  O   UNL     1       7.950   8.190  17.789  0.00  0.00    +0.000 OA
BRANCH  19  20
ATOM     20  C   UNL     1       8.703   9.038  18.664  0.00  0.00    +0.000 C 
ATOM     21  C   UNL     1       8.744  10.421  18.039  0.00  0.00    +0.000 C 
ENDBRANCH  19  20
ENDBRANCH  17  19
ENDBRANCH   5  17
TORSDOF 9
ENDMDL
MODEL 5
REMARK VINA RESULT:      -6.8      2.833      4.850
REMARK  Name = 
REMARK  12 active torsions:
REMARK  status: ('A' for Active; 'I' for Inactive)
REMARK    1  A    between atoms: C_1  and  C_2
REMARK    2  A    between atoms: C_2  and  O_3
REMARK    3  A    between atoms: O_3  and  C_4
REMARK    4  A    between atoms: C_4  and  C_6
REMARK    5  A    between atoms: C_8  and  C_9
REMARK    6  A    between atoms: C_9  and  O_11
REMARK    7  A    between atoms: O_11  and  C_12
REMARK    8  A    between atoms: C_12  and  C_13
REMARK    9  A    between atoms: C_15  and  C_16
REMARK   10  A    between atoms: C_16  and  O_18
REMARK   11  A    between atoms: O_18  and  C_19
REMARK   12  A    between atoms: C_19  and  C_20
REMARK                            x       y       z     vdW  Elec       q    Type
REMARK                         _______ _______ _______ _____ _____    ______ ____
ROOT
ATOM      1  C   UNL     1       3.310   6.742  17.852  0.00  0.00    +0.000 A 
ATOM      2  N   UNL     1       2.749   5.538  17.949  0.00  0.00    +0.000 NA
ATOM      3  C   UNL     1       3.522   4.538  17.528  0.00  0.00    +0.000 A 
ATOM      4  N   UNL     1       4.755   4.665  17.047  0.00  0.00    +0.000 NA
ATOM      5  C   UNL     1       5.215   5.909  17.012  0.00  0.00    +0.000 A 
ATOM      6  N   UNL     1       4.543   6.990  17.400  0.00  0.00    +0.000 NA
ENDROOT
BRANCH   1   7
ATOM      7  C   UNL     1       2.432   7.914  18.170  0.00  0.00    +0.000 C 
ATOM      8  O   UNL     1       2.297   8.901  17.467  0.00  0.00    +0.000 OA
BRANCH   7   9
ATOM      9  O   UNL     1       1.926   7.759  19.427  0.00  0.00    +0.000 OA
BRANCH   9  11
ATOM     10  C   UNL     1       1.271   8.732  21.499  0.00  0.00    +0.000 C 
ATOM     11  C   UNL     1       1.335   8.930  19.995  0.00  0.00    +0.000 C 
ENDBRANCH   9  11
ENDBRANCH   7   9
ENDBRANCH   1   7
BRANCH   3  12
ATOM     12  C   UNL     1       2.993   3.150  17.722  0.00  0.00    +0.000 C 
ATOM     13  O   UNL     1       3.683   2.141  17.787  0.00  0.00    +0.000 OA
BRANCH  12  14
ATOM     14  O   UNL     1       1.634   3.183  17.696  0.00  0.00    +0.000 OA
BRANCH  14  15
ATOM     15  C   UNL     1       0.975   2.371  18.670  0.00  0.00    +0.000 C 
ATOM     16  C   UNL     1       0.915   3.153  19.971  0.00  0.00    +0.000 C 
ENDBRANCH  14  15
ENDBRANCH  12  14
ENDBRANCH   3  12
BRANCH   5  17
ATOM     17  C   UNL     1       6.651   6.062  16.616  0.00  0.00    +0.000 C 
ATOM     18  O   UNL     1       7.369   5.137  16.268  0.00  0.00    +0.000 OA
BRANCH  17  19
ATOM     19  O   UNL     1       7.055   7.346  16.816  0.00  0.00    +0.000 OA
BRANCH  19  20
ATOM     20  C   UNL     1       7.950   7.529  17.919  0.00  0.00    +0.000 C 
ATOM     21  C   UNL     1       8.212   9.018  18.055  0.00  0.00    +0.000 C 
ENDBRANCH  19  20
ENDBRANCH  17  19
ENDBRANCH   5  17
TORSDOF 9
ENDMDL
MODEL 6
REMARK VINA RESULT:      -6.7      0.668      5.935
REMARK  Name = 
REMARK  12 active torsions:
REMARK  status: ('A' for Active; 'I' for Inactive)
REMARK    1  A    between atoms: C_1  and  C_2
REMARK    2  A    between atoms: C_2  and  O_3
REMARK    3  A    between atoms: O_3  and  C_4
REMARK    4  A    between atoms: C_4  and  C_6
REMARK    5  A    between atoms: C_8  and  C_9
REMARK    6  A    between atoms: C_9  and  O_11
REMARK    7  A    between atoms: O_11  and  C_12
REMARK    8  A    between atoms: C_12  and  C_13
REMARK    9  A    between atoms: C_15  and  C_16
REMARK   10  A    between atoms: C_16  and  O_18
REMARK   11  A    between atoms: O_18  and  C_19
REMARK   12  A    between atoms: C_19  and  C_20
REMARK                            x       y       z     vdW  Elec       q    Type
REMARK                         _______ _______ _______ _____ _____    ______ ____
ROOT
ATOM      1  C   UNL     1       6.298   5.010  17.925  0.00  0.00    +0.000 A 
ATOM      2  N   UNL     1       6.723   5.033  16.663  0.00  0.00    +0.000 NA
ATOM      3  C   UNL     1       5.894   4.454  15.796  0.00  0.00    +0.000 A 
ATOM      4  N   UNL     1       4.730   3.888  16.100  0.00  0.00    +0.000 NA
ATOM      5  C   UNL     1       4.404   3.940  17.385  0.00  0.00    +0.000 A 
ATOM      6  N   UNL     1       5.144   4.486  18.347  0.00  0.00    +0.000 NA
ENDROOT
BRANCH   1   7
ATOM      7  C   UNL     1       7.258   5.514  18.961  0.00  0.00    +0.000 C 
ATOM      8  O   UNL     1       7.121   5.385  20.165  0.00  0.00    +0.000 OA
BRANCH   7   9
ATOM      9  O   UNL     1       8.224   6.254  18.345  0.00  0.00    +0.000 OA
BRANCH   9  11
ATOM     10  C   UNL     1       7.796   8.474  17.599  0.00  0.00    +0.000 C 
ATOM     11  C   UNL     1       8.295   7.622  18.752  0.00  0.00    +0.000 C 
ENDBRANCH   9  11
ENDBRANCH   7   9
ENDBRANCH   1   7
BRANCH   3  12
ATOM     12  C   UNL     1       6.259   4.552  14.346  0.00  0.00    +0.000 C 
ATOM     13  O   UNL     1       7.223   5.164  13.907  0.00  0.00    +0.000 OA
BRANCH  12  14
ATOM     14  O   UNL     1       5.290   3.956  13.602  0.00  0.00    +0.000 OA
BRANCH  14  15
ATOM     15  C   UNL     1       5.721   3.382  12.366  0.00  0.00    +0.000 C 
ATOM     16  C   UNL     1       4.496   3.176  11.491  0.00  0.00    +0.000 C 
ENDBRANCH  14  15
ENDBRANCH  12  14
ENDBRANCH   3  12
BRANCH   5  17
ATOM     17  C   UNL     1       3.033   3.444  17.730  0.00  0.00    +0.000 C 
ATOM     18  O   UNL     1       2.628   2.319  17.482  0.00  0.00    +0.000 OA
BRANCH  17  19
ATOM     19  O   UNL     1       2.286   4.459  18.242  0.00  0.00    +0.000 OA
BRANCH  19  20
ATOM     20  C   UNL     1       1.551   4.128  19.426  0.00  0.00    +0.000 C 
ATOM     21  C   UNL     1       1.900   5.158  20.486  0.00  0.00    +0.000 C 
ENDBRANCH  19  20
ENDBRANCH  17  19
ENDBRANCH   5  17
TORSDOF 9
ENDMDL
MODEL 7
REMARK VINA RESULT:      -6.7      1.079      4.827
REMARK  Name = 
REMARK  12 active torsions:
REMARK  status: ('A' for Active; 'I' for Inactive)
REMARK    1  A    between atoms: C_1  and  C_2
REMARK    2  A    between atoms: C_2  and  O_3
REMARK    3  A    between atoms: O_3  and  C_4
REMARK    4  A    between atoms: C_4  and  C_6
REMARK    5  A    between atoms: C_8  and  C_9
REMARK    6  A    between atoms: C_9  and  O_11
REMARK    7  A    between atoms: O_11  and  C_12
REMARK    8  A    between atoms: C_12  and  C_13
REMARK    9  A    between atoms: C_15  and  C_16
REMARK   10  A    between atoms: C_16  and  O_18
REMARK   11  A    between atoms: O_18  and  C_19
REMARK   12  A    between atoms: C_19  and  C_20
REMARK                            x       y       z     vdW  Elec       q    Type
REMARK                         _______ _______ _______ _____ _____    ______ ____
ROOT
ATOM      1  C   UNL     1       6.402   4.919  15.896  0.00  0.00    +0.000 A 
ATOM      2  N   UNL     1       7.282   5.321  16.811  0.00  0.00    +0.000 NA
ATOM      3  C   UNL     1       6.740   5.665  17.978  0.00  0.00    +0.000 A 
ATOM      4  N   UNL     1       5.443   5.629  18.267  0.00  0.00    +0.000 NA
ATOM      5  C   UNL     1       4.664   5.197  17.284  0.00  0.00    +0.000 A 
ATOM      6  N   UNL     1       5.082   4.827  16.076  0.00  0.00    +0.000 NA
ENDROOT
BRANCH   1   7
ATOM      7  C   UNL     1       6.940   4.663  14.521  0.00  0.00    +0.000 C 
ATOM      8  O   UNL     1       7.702   5.400  13.917  0.00  0.00    +0.000 OA
BRANCH   7   9
ATOM      9  O   UNL     1       6.333   3.555  14.007  0.00  0.00    +0.000 OA
BRANCH   9  11
ATOM     10  C   UNL     1       6.611   2.702  11.802  0.00  0.00    +0.000 C 
ATOM     11  C   UNL     1       5.851   3.690  12.668  0.00  0.00    +0.000 C 
ENDBRANCH   9  11
ENDBRANCH   7   9
ENDBRANCH   1   7
BRANCH   3  12
ATOM     12  C   UNL     1       7.687   6.013  19.085  0.00  0.00    +0.000 C 
ATOM     13  O   UNL     1       7.686   5.497  20.195  0.00  0.00    +0.000 OA
BRANCH  12  14
ATOM     14  O   UNL     1       8.460   7.062  18.697  0.00  0.00    +0.000 OA
BRANCH  14  15
ATOM     15  C   UNL     1       7.798   8.069  17.927  0.00  0.00    +0.000 C 
ATOM     16  C   UNL     1       8.475   9.399  18.213  0.00  0.00    +0.000 C 
ENDBRANCH  14  15
ENDBRANCH  12  14
ENDBRANCH   3  12
BRANCH   5  17
ATOM     17  C   UNL     1       3.220   5.006  17.632  0.00  0.00    +0.000 C 
ATOM     18  O   UNL     1       2.488   5.896  18.037  0.00  0.00    +0.000 OA
BRANCH  17  19
ATOM     19  O   UNL     1       2.890   3.689  17.546  0.00  0.00    +0.000 OA
BRANCH  19  20
ATOM     20  C   UNL     1       3.121   2.931  18.739  0.00  0.00    +0.000 C 
ATOM     21  C   UNL     1       3.526   1.528  18.322  0.00  0.00    +0.000 C 
ENDBRANCH  19  20
ENDBRANCH  17  19
ENDBRANCH   5  17
TORSDOF 9
ENDMDL
MODEL 8
REMARK VINA RESULT:      -6.6      3.029      5.123
REMARK  Name = 
REMARK  12 active torsions:
REMARK  status: ('A' for Active; 'I' for Inactive)
REMARK    1  A    between atoms: C_1  and  C_2
REMARK    2  A    between atoms: C_2  and  O_3
REMARK    3  A    between atoms: O_3  and  C_4
REMARK    4  A    between atoms: C_4  and  C_6
REMARK    5  A    between atoms: C_8  and  C_9
REMARK    6  A    between atoms: C_9  and  O_11
REMARK    7  A    between atoms: O_11  and  C_12
REMARK    8  A    between atoms: C_12  and  C_13
REMARK    9  A    between atoms: C_15  and  C_16
REMARK   10  A    between atoms: C_16  and  O_18
REMARK   11  A    between atoms: O_18  and  C_19
REMARK   12  A    between atoms: C_19  and  C_20
REMARK                            x       y       z     vdW  Elec       q    Type
REMARK                         _______ _______ _______ _____ _____    ______ ____
ROOT
ATOM      1  C   UNL     1       5.081   5.620  17.185  0.00  0.00    +0.000 A 
ATOM      2  N   UNL     1       4.441   6.709  17.606  0.00  0.00    +0.000 NA
ATOM      3  C   UNL     1       3.195   6.488  18.019  0.00  0.00    +0.000 A 
ATOM      4  N   UNL     1       2.586   5.305  18.036  0.00  0.00    +0.000 NA
ATOM      5  C   UNL     1       3.326   4.291  17.608  0.00  0.00    +0.000 A 
ATOM      6  N   UNL     1       4.579   4.382  17.170  0.00  0.00    +0.000 NA
ENDROOT
BRANCH   1   7
ATOM      7  C   UNL     1       6.431   5.835  16.571  0.00  0.00    +0.000 C 
ATOM      8  O   UNL     1       7.018   6.903  16.523  0.00  0.00    +0.000 OA
BRANCH   7   9
ATOM      9  O   UNL     1       6.826   4.683  15.956  0.00  0.00    +0.000 OA
BRANCH   9  11
ATOM     10  C   UNL     1       6.008   3.949  13.845  0.00  0.00    +0.000 C 
ATOM     11  C   UNL     1       7.057   4.791  14.550  0.00  0.00    +0.000 C 
ENDBRANCH   9  11
ENDBRANCH   7   9
ENDBRANCH   1   7
BRANCH   3  12
ATOM     12  C   UNL     1       2.465   7.651  18.616  0.00  0.00    +0.000 C 
ATOM     13  O   UNL     1       2.160   7.756  19.796  0.00  0.00    +0.000 OA
BRANCH  12  14
ATOM     14  O   UNL     1       2.099   8.504  17.622  0.00  0.00    +0.000 OA
BRANCH  14  15
ATOM     15  C   UNL     1       1.729   9.821  18.039  0.00  0.00    +0.000 C 
ATOM     16  C   UNL     1       0.212   9.894  18.074  0.00  0.00    +0.000 C 
ENDBRANCH  14  15
ENDBRANCH  12  14
ENDBRANCH   3  12
BRANCH   5  17
ATOM     17  C   UNL     1       2.716   2.931  17.758  0.00  0.00    +0.000 C 
ATOM     18  O   UNL     1       3.346   1.886  17.692  0.00  0.00    +0.000 OA
BRANCH  17  19
ATOM     19  O   UNL     1       1.363   3.034  17.853  0.00  0.00    +0.000 OA
BRANCH  19  20
ATOM     20  C   UNL     1       0.773   2.259  18.903  0.00  0.00    +0.000 C 
ATOM     21  C   UNL     1       1.012   2.996  20.209  0.00  0.00    +0.000 C 
ENDBRANCH  19  20
ENDBRANCH  17  19
ENDBRANCH   5  17
TORSDOF 9
ENDMDL
MODEL 9
REMARK VINA RESULT:      -6.6      0.986      1.055
REMARK  Name = 
REMARK  12 active torsions:
REMARK  status: ('A' for Active; 'I' for Inactive)
REMARK    1  A    between atoms: C_1  and  C_2
REMARK    2  A    between atoms: C_2  and  O_3
REMARK    3  A    between atoms: O_3  and  C_4
REMARK    4  A    between atoms: C_4  and  C_6
REMARK    5  A    between atoms: C_8  and  C_9
REMARK    6  A    between atoms: C_9  and  O_11
REMARK    7  A    between atoms: O_11  and  C_12
REMARK    8  A    between atoms: C_12  and  C_13
REMARK    9  A    between atoms: C_15  and  C_16
REMARK   10  A    between atoms: C_16  and  O_18
REMARK   11  A    between atoms: O_18  and  C_19
REMARK   12  A    between atoms: C_19  and  C_20
REMARK                            x       y       z     vdW  Elec       q    Type
REMARK                         _______ _______ _______ _____ _____    ______ ____
ROOT
ATOM      1  C   UNL     1       6.375   4.781  15.281  0.00  0.00    +0.000 A 
ATOM      2  N   UNL     1       5.372   4.121  15.859  0.00  0.00    +0.000 NA
ATOM      3  C   UNL     1       5.258   4.337  17.168  0.00  0.00    +0.000 A 
ATOM      4  N   UNL     1       6.042   5.130  17.891  0.00  0.00    +0.000 NA
ATOM      5  C   UNL     1       6.997   5.746  17.206  0.00  0.00    +0.000 A 
ATOM      6  N   UNL     1       7.215   5.614  15.900  0.00  0.00    +0.000 NA
ENDROOT
BRANCH   1   7
ATOM      7  C   UNL     1       6.641   4.459  13.841  0.00  0.00    +0.000 C 
ATOM      8  O   UNL     1       7.492   4.992  13.149  0.00  0.00    +0.000 OA
BRANCH   7   9
ATOM      9  O   UNL     1       5.691   3.586  13.400  0.00  0.00    +0.000 OA
BRANCH   9  11
ATOM     10  C   UNL     1       4.394   3.206  11.440  0.00  0.00    +0.000 C 
ATOM     11  C   UNL     1       5.796   3.215  12.024  0.00  0.00    +0.000 C 
ENDBRANCH   9  11
ENDBRANCH   7   9
ENDBRANCH   1   7
BRANCH   3  12
ATOM     12  C   UNL     1       4.078   3.718  17.853  0.00  0.00    +0.000 C 
ATOM     13  O   UNL     1       3.647   2.595  17.626  0.00  0.00    +0.000 OA
BRANCH  12  14
ATOM     14  O   UNL     1       3.504   4.640  18.671  0.00  0.00    +0.000 OA
BRANCH  14  15
ATOM     15  C   UNL     1       2.268   4.250  19.274  0.00  0.00    +0.000 C 
ATOM     16  C   UNL     1       2.014   5.167  20.459  0.00  0.00    +0.000 C 
ENDBRANCH  14  15
ENDBRANCH  12  14
ENDBRANCH   3  12
BRANCH   5  17
ATOM     17  C   UNL     1       7.797   6.758  17.968  0.00  0.00    +0.000 C 
ATOM     18  O   UNL     1       8.120   6.636  19.139  0.00  0.00    +0.000 OA
BRANCH  17  19
ATOM     19  O   UNL     1       7.998   7.865  17.203  0.00  0.00    +0.000 OA
BRANCH  19  20
ATOM     20  C   UNL     1       7.586   9.097  17.807  0.00  0.00    +0.000 C 
ATOM     21  C   UNL     1       8.832   9.796  18.319  0.00  0.00    +0.000 C 
ENDBRANCH  19  20
ENDBRANCH  17  19
ENDBRANCH   5  17
TORSDOF 9
ENDMDL
