MODEL 1
REMARK VINA RESULT:      -9.6      0.000      0.000
REMARK  Name = 
REMARK  13 active torsions:
REMARK  status: ('A' for Active; 'I' for Inactive)
REMARK    1  A    between atoms: C_1  and  C_2
REMARK    2  A    between atoms: C_5  and  C_6
REMARK    3  A    between atoms: C_7  and  C_8
REMARK    4  A    between atoms: C_10  and  C_11
REMARK    5  A    between atoms: C_11  and  N_12
REMARK    6  A    between atoms: C_15  and  C_16
REMARK    7  A    between atoms: N_18  and  C_19
REMARK    8  A    between atoms: C_19  and  C_20
REMARK    9  A    between atoms: C_20  and  C_21
REMARK   10  A    between atoms: C_21  and  N_22
REMARK   11  A    between atoms: C_24  and  C_25
REMARK   12  A    between atoms: C_27  and  C_28
REMARK   13  A    between atoms: C_32  and  C_33
REMARK                            x       y       z     vdW  Elec       q    Type
REMARK                         _______ _______ _______ _____ _____    ______ ____
ROOT
ATOM      1  N   UNL     1       5.380   4.067  18.413  0.00  0.00    +0.000 NA
ATOM      2  C   UNL     1       6.141   4.234  17.162  0.00  0.00    +0.000 C 
ATOM      3  C   UNL     1       7.617   4.580  17.390  0.00  0.00    +0.000 C 
ATOM      4  C   UNL     1       7.817   5.786  18.308  0.00  0.00    +0.000 C 
ATOM      5  C   UNL     1       7.001   5.586  19.587  0.00  0.00    +0.000 C 
ATOM      6  C   UNL     1       5.540   5.237  19.300  0.00  0.00    +0.000 C 
ENDROOT
BRANCH   4   7
ATOM      7  C   UNL     1       7.519   7.138  17.644  0.00  0.00    +0.000 C 
ATOM      8  O   UNL     1       6.686   7.276  16.754  0.00  0.00    +0.000 OA
ATOM      9  N   UNL     1       8.213   8.202  18.181  0.00  0.00    +0.000 N 
ATOM     10  H   UNL     1       8.832   8.053  18.968  0.00  0.00    +0.000 HD
BRANCH   9  11
ATOM     11  C   UNL     1       7.933   9.578  17.806  0.00  0.00    +0.000 C 
BRANCH  11  12
ATOM     12  C   UNL     1       9.015  10.554  18.277  0.00  0.00    +0.000 C 
BRANCH  12  13
ATOM     13  C   UNL     1       9.607  10.228  19.659  0.00  0.00    +0.000 C 
BRANCH  13  14
ATOM     14  N   UNL     1      10.015  11.399  20.463  0.00  0.00    +0.000 NA
ATOM     15  C   UNL     1      10.595  12.457  19.616  0.00  0.00    +0.000 C 
ATOM     16  C   UNL     1      11.045  13.674  20.441  0.00  0.00    +0.000 C 
ATOM     17  C   UNL     1      11.607  14.756  19.518  0.00  0.00    +0.000 C 
ATOM     18  C   UNL     1       9.889  14.227  21.277  0.00  0.00    +0.000 C 
ATOM     19  C   UNL     1       9.236  13.114  22.103  0.00  0.00    +0.000 C 
ATOM     20  C   UNL     1       8.012  13.655  22.843  0.00  0.00    +0.000 C 
ATOM     21  C   UNL     1       8.852  11.924  21.207  0.00  0.00    +0.000 C 
ENDBRANCH  13  14
ENDBRANCH  12  13
ENDBRANCH  11  12
ENDBRANCH   9  11
ENDBRANCH   4   7
BRANCH   1  22
ATOM     22  C   UNL     1       3.930   3.923  18.116  0.00  0.00    +0.000 C 
BRANCH  22  25
ATOM     23  C   UNL     1       2.088   6.491  19.754  0.00  0.00    +0.000 A 
ATOM     24  N   UNL     1       2.725   6.042  18.690  0.00  0.00    +0.000 NA
ATOM     25  C   UNL     1       3.053   4.735  19.015  0.00  0.00    +0.000 A 
ATOM     26  C   UNL     1       2.544   4.442  20.260  0.00  0.00    +0.000 A 
ATOM     27  C   UNL     1       2.559   3.282  21.168  0.00  0.00    +0.000 C 
ATOM     28  O   UNL     1       1.926   5.557  20.740  0.00  0.00    +0.000 OA
BRANCH  23  35
ATOM     29  C   UNL     1       0.097   9.508  23.172  0.00  0.00    +0.000 C 
ATOM     30  C   UNL     1       0.569   9.305  21.763  0.00  0.00    +0.000 A 
ATOM     31  C   UNL     1       0.524  10.333  20.823  0.00  0.00    +0.000 A 
ATOM     32  C   UNL     1       0.998  10.118  19.525  0.00  0.00    +0.000 A 
ATOM     33  C   UNL     1       1.523   8.873  19.136  0.00  0.00    +0.000 A 
ATOM     34  C   UNL     1       2.033   8.704  17.729  0.00  0.00    +0.000 C 
ATOM     35  C   UNL     1       1.564   7.822  20.072  0.00  0.00    +0.000 A 
ATOM     36  C   UNL     1       1.086   8.062  21.378  0.00  0.00    +0.000 A 
ENDBRANCH  23  35
ENDBRANCH  22  25
ENDBRANCH   1  22
TORSDOF 8
ENDMDL
MODEL 2
REMARK VINA RESULT:      -8.7      0.989      1.172
REMARK  Name = 
REMARK  13 active torsions:
REMARK  status: ('A' for Active; 'I' for Inactive)
REMARK    1  A    between atoms: C_1  and  C_2
REMARK    2  A    between atoms: C_5  and  C_6
REMARK    3  A    between atoms: C_7  and  C_8
REMARK    4  A    between atoms: C_10  and  C_11
REMARK    5  A    between atoms: C_11  and  N_12
REMARK    6  A    between atoms: C_15  and  C_16
REMARK    7  A    between atoms: N_18  and  C_19
REMARK    8  A    between atoms: C_19  and  C_20
REMARK    9  A    between atoms: C_20  and  C_21
REMARK   10  A    between atoms: C_21  and  N_22
REMARK   11  A    between atoms: C_24  and  C_25
REMARK   12  A    between atoms: C_27  and  C_28
REMARK   13  A    between atoms: C_32  and  C_33
REMARK                            x       y       z     vdW  Elec       q    Type
REMARK                         _______ _______ _______ _____ _____    ______ ____
ROOT
ATOM      1  N   UNL     1       5.374   3.915  18.208  0.00  0.00    +0.000 NA
ATOM      2  C   UNL     1       4.660   4.775  17.247  0.00  0.00    +0.000 C 
ATOM      3  C   UNL     1       5.538   5.244  16.081  0.00  0.00    +0.000 C 
ATOM      4  C   UNL     1       6.838   5.908  16.538  0.00  0.00    +0.000 C 
ATOM      5  C   UNL     1       7.543   4.997  17.544  0.00  0.00    +0.000 C 
ATOM      6  C   UNL     1       6.619   4.555  18.679  0.00  0.00    +0.000 C 
ENDROOT
BRANCH   4   7
ATOM      7  C   UNL     1       6.659   7.333  17.081  0.00  0.00    +0.000 C 
ATOM      8  O   UNL     1       5.559   7.831  17.300  0.00  0.00    +0.000 OA
ATOM      9  N   UNL     1       7.838   7.983  17.375  0.00  0.00    +0.000 N 
ATOM     10  H   UNL     1       8.721   7.504  17.253  0.00  0.00    +0.000 HD
BRANCH   9  11
ATOM     11  C   UNL     1       7.867   9.264  18.063  0.00  0.00    +0.000 C 
BRANCH  11  12
ATOM     12  C   UNL     1       9.128  10.075  17.756  0.00  0.00    +0.000 C 
BRANCH  12  13
ATOM     13  C   UNL     1       8.995  11.584  18.020  0.00  0.00    +0.000 C 
BRANCH  13  14
ATOM     14  N   UNL     1       9.775  12.096  19.167  0.00  0.00    +0.000 NA
ATOM     15  C   UNL     1      10.360  13.416  18.872  0.00  0.00    +0.000 C 
ATOM     16  C   UNL     1      11.193  13.953  20.048  0.00  0.00    +0.000 C 
ATOM     17  C   UNL     1      11.750  15.336  19.709  0.00  0.00    +0.000 C 
ATOM     18  C   UNL     1      10.359  14.007  21.330  0.00  0.00    +0.000 C 
ATOM     19  C   UNL     1       9.689  12.656  21.599  0.00  0.00    +0.000 C 
ATOM     20  C   UNL     1       8.769  12.757  22.816  0.00  0.00    +0.000 C 
ATOM     21  C   UNL     1       8.910  12.178  20.361  0.00  0.00    +0.000 C 
ENDBRANCH  13  14
ENDBRANCH  12  13
ENDBRANCH  11  12
ENDBRANCH   9  11
ENDBRANCH   4   7
BRANCH   1  22
ATOM     22  C   UNL     1       4.522   3.658  19.399  0.00  0.00    +0.000 C 
BRANCH  22  25
ATOM     23  C   UNL     1       2.210   6.337  19.784  0.00  0.00    +0.000 A 
ATOM     24  N   UNL     1       3.444   5.910  19.596  0.00  0.00    +0.000 NA
ATOM     25  C   UNL     1       3.313   4.536  19.470  0.00  0.00    +0.000 A 
ATOM     26  C   UNL     1       1.978   4.205  19.539  0.00  0.00    +0.000 A 
ATOM     27  C   UNL     1       1.189   2.961  19.503  0.00  0.00    +0.000 C 
ATOM     28  O   UNL     1       1.267   5.349  19.739  0.00  0.00    +0.000 OA
BRANCH  23  35
ATOM     29  C   UNL     1       0.189   9.429  23.115  0.00  0.00    +0.000 C 
ATOM     30  C   UNL     1       0.678   9.197  21.717  0.00  0.00    +0.000 A 
ATOM     31  C   UNL     1       0.652  10.206  20.757  0.00  0.00    +0.000 A 
ATOM     32  C   UNL     1       1.143   9.965  19.470  0.00  0.00    +0.000 A 
ATOM     33  C   UNL     1       1.666   8.709  19.112  0.00  0.00    +0.000 A 
ATOM     34  C   UNL     1       2.195   8.511  17.716  0.00  0.00    +0.000 C 
ATOM     35  C   UNL     1       1.688   7.676  20.069  0.00  0.00    +0.000 A 
ATOM     36  C   UNL     1       1.194   7.944  21.364  0.00  0.00    +0.000 A 
ENDBRANCH  23  35
ENDBRANCH  22  25
ENDBRANCH   1  22
TORSDOF 8
ENDMDL
MODEL 3
REMARK VINA RESULT:      -8.7      4.784      9.975
REMARK  Name = 
REMARK  13 active torsions:
REMARK  status: ('A' for Active; 'I' for Inactive)
REMARK    1  A    between atoms: C_1  and  C_2
REMARK    2  A    between atoms: C_5  and  C_6
REMARK    3  A    between atoms: C_7  and  C_8
REMARK    4  A    between atoms: C_10  and  C_11
REMARK    5  A    between atoms: C_11  and  N_12
REMARK    6  A    between atoms: C_15  and  C_16
REMARK    7  A    between atoms: N_18  and  C_19
REMARK    8  A    between atoms: C_19  and  C_20
REMARK    9  A    between atoms: C_20  and  C_21
REMARK   10  A    between atoms: C_21  and  N_22
REMARK   11  A    between atoms: C_24  and  C_25
REMARK   12  A    between atoms: C_27  and  C_28
REMARK   13  A    between atoms: C_32  and  C_33
REMARK                            x       y       z     vdW  Elec       q    Type
REMARK                         _______ _______ _______ _____ _____    ______ ____
ROOT
ATOM      1  N   UNL     1       1.758   8.305  20.062  0.00  0.00    +0.000 NA
ATOM      2  C   UNL     1       1.673   8.446  18.597  0.00  0.00    +0.000 C 
ATOM      3  C   UNL     1       1.785   9.899  18.119  0.00  0.00    +0.000 C 
ATOM      4  C   UNL     1       0.796  10.837  18.811  0.00  0.00    +0.000 C 
ATOM      5  C   UNL     1       0.901  10.652  20.326  0.00  0.00    +0.000 C 
ATOM      6  C   UNL     1       0.789   9.186  20.745  0.00  0.00    +0.000 C 
ENDROOT
BRANCH   4   7
ATOM      7  C   UNL     1      -0.651  10.702  18.316  0.00  0.00    +0.000 C 
ATOM      8  O   UNL     1      -1.044   9.747  17.654  0.00  0.00    +0.000 OA
ATOM      9  N   UNL     1      -1.495  11.707  18.740  0.00  0.00    +0.000 N 
ATOM     10  H   UNL     1      -1.145  12.434  19.351  0.00  0.00    +0.000 HD
BRANCH   9  11
ATOM     11  C   UNL     1      -2.932  11.655  18.523  0.00  0.00    +0.000 C 
BRANCH  11  12
ATOM     12  C   UNL     1      -3.726  12.342  19.638  0.00  0.00    +0.000 C 
BRANCH  12  13
ATOM     13  C   UNL     1      -2.932  12.569  20.936  0.00  0.00    +0.000 C 
BRANCH  13  14
ATOM     14  N   UNL     1      -3.751  12.834  22.138  0.00  0.00    +0.000 NA
ATOM     15  C   UNL     1      -3.454  14.160  22.708  0.00  0.00    +0.000 C 
ATOM     16  C   UNL     1      -4.282  14.442  23.972  0.00  0.00    +0.000 C 
ATOM     17  C   UNL     1      -3.966  15.840  24.507  0.00  0.00    +0.000 C 
ATOM     18  C   UNL     1      -5.780  14.300  23.690  0.00  0.00    +0.000 C 
ATOM     19  C   UNL     1      -6.081  12.952  23.029  0.00  0.00    +0.000 C 
ATOM     20  C   UNL     1      -7.559  12.870  22.647  0.00  0.00    +0.000 C 
ATOM     21  C   UNL     1      -5.184  12.736  21.797  0.00  0.00    +0.000 C 
ENDBRANCH  13  14
ENDBRANCH  12  13
ENDBRANCH  11  12
ENDBRANCH   9  11
ENDBRANCH   4   7
BRANCH   1  22
ATOM     22  C   UNL     1       1.453   6.906  20.462  0.00  0.00    +0.000 C 
BRANCH  22  25
ATOM     23  C   UNL     1       3.894   5.166  18.544  0.00  0.00    +0.000 A 
ATOM     24  N   UNL     1       3.498   6.256  19.171  0.00  0.00    +0.000 NA
ATOM     25  C   UNL     1       2.305   5.888  19.774  0.00  0.00    +0.000 A 
ATOM     26  C   UNL     1       2.065   4.557  19.515  0.00  0.00    +0.000 A 
ATOM     27  C   UNL     1       0.999   3.590  19.827  0.00  0.00    +0.000 C 
ATOM     28  O   UNL     1       3.074   4.088  18.731  0.00  0.00    +0.000 OA
BRANCH  23  35
ATOM     29  C   UNL     1       5.479   3.983  13.979  0.00  0.00    +0.000 C 
ATOM     30  C   UNL     1       5.812   4.331  15.399  0.00  0.00    +0.000 A 
ATOM     31  C   UNL     1       7.131   4.438  15.834  0.00  0.00    +0.000 A 
ATOM     32  C   UNL     1       7.407   4.792  17.159  0.00  0.00    +0.000 A 
ATOM     33  C   UNL     1       6.373   5.043  18.078  0.00  0.00    +0.000 A 
ATOM     34  C   UNL     1       6.729   5.436  19.487  0.00  0.00    +0.000 C 
ATOM     35  C   UNL     1       5.034   4.928  17.655  0.00  0.00    +0.000 A 
ATOM     36  C   UNL     1       4.779   4.575  16.312  0.00  0.00    +0.000 A 
ENDBRANCH  23  35
ENDBRANCH  22  25
ENDBRANCH   1  22
TORSDOF 8
ENDMDL
MODEL 4
REMARK VINA RESULT:      -8.5      4.870     10.087
REMARK  Name = 
REMARK  13 active torsions:
REMARK  status: ('A' for Active; 'I' for Inactive)
REMARK    1  A    between atoms: C_1  and  C_2
REMARK    2  A    between atoms: C_5  and  C_6
REMARK    3  A    between atoms: C_7  and  C_8
REMARK    4  A    between atoms: C_10  and  C_11
REMARK    5  A    between atoms: C_11  and  N_12
REMARK    6  A    between atoms: C_15  and  C_16
REMARK    7  A    between atoms: N_18  and  C_19
REMARK    8  A    between atoms: C_19  and  C_20
REMARK    9  A    between atoms: C_20  and  C_21
REMARK   10  A    between atoms: C_21  and  N_22
REMARK   11  A    between atoms: C_24  and  C_25
REMARK   12  A    between atoms: C_27  and  C_28
REMARK   13  A    between atoms: C_32  and  C_33
REMARK                            x       y       z     vdW  Elec       q    Type
REMARK                         _______ _______ _______ _____ _____    ______ ____
ROOT
ATOM      1  N   UNL     1       1.789   7.947  20.288  0.00  0.00    +0.000 NA
ATOM      2  C   UNL     1       1.851   8.183  18.835  0.00  0.00    +0.000 C 
ATOM      3  C   UNL     1       1.986   9.665  18.465  0.00  0.00    +0.000 C 
ATOM      4  C   UNL     1       0.915  10.545  19.109  0.00  0.00    +0.000 C 
ATOM      5  C   UNL     1       0.868  10.263  20.612  0.00  0.00    +0.000 C 
ATOM      6  C   UNL     1       0.740   8.771  20.922  0.00  0.00    +0.000 C 
ENDROOT
BRANCH   4   7
ATOM      7  C   UNL     1      -0.471  10.427  18.459  0.00  0.00    +0.000 C 
ATOM      8  O   UNL     1      -0.692   9.718  17.483  0.00  0.00    +0.000 OA
ATOM      9  N   UNL     1      -1.466  11.125  19.109  0.00  0.00    +0.000 N 
ATOM     10  H   UNL     1      -1.253  11.634  19.958  0.00  0.00    +0.000 HD
BRANCH   9  11
ATOM     11  C   UNL     1      -2.869  10.991  18.749  0.00  0.00    +0.000 C 
BRANCH  11  12
ATOM     12  C   UNL     1      -3.686  12.247  19.066  0.00  0.00    +0.000 C 
BRANCH  12  13
ATOM     13  C   UNL     1      -3.116  13.106  20.207  0.00  0.00    +0.000 C 
BRANCH  13  14
ATOM     14  N   UNL     1      -4.086  13.490  21.253  0.00  0.00    +0.000 NA
ATOM     15  C   UNL     1      -5.472  13.238  20.820  0.00  0.00    +0.000 C 
ATOM     16  C   UNL     1      -6.495  13.654  21.889  0.00  0.00    +0.000 C 
ATOM     17  C   UNL     1      -7.913  13.343  21.410  0.00  0.00    +0.000 C 
ATOM     18  C   UNL     1      -6.211  12.953  23.221  0.00  0.00    +0.000 C 
ATOM     19  C   UNL     1      -4.750  13.151  23.636  0.00  0.00    +0.000 C 
ATOM     20  C   UNL     1      -4.450  12.352  24.905  0.00  0.00    +0.000 C 
ATOM     21  C   UNL     1      -3.799  12.747  22.497  0.00  0.00    +0.000 C 
ENDBRANCH  13  14
ENDBRANCH  12  13
ENDBRANCH  11  12
ENDBRANCH   9  11
ENDBRANCH   4   7
BRANCH   1  22
ATOM     22  C   UNL     1       1.469   6.522  20.564  0.00  0.00    +0.000 C 
BRANCH  22  25
ATOM     23  C   UNL     1       3.879   4.927  18.487  0.00  0.00    +0.000 A 
ATOM     24  N   UNL     1       3.510   5.952  19.231  0.00  0.00    +0.000 NA
ATOM     25  C   UNL     1       2.297   5.560  19.774  0.00  0.00    +0.000 A 
ATOM     26  C   UNL     1       2.016   4.276  19.363  0.00  0.00    +0.000 A 
ATOM     27  C   UNL     1       0.914   3.317  19.551  0.00  0.00    +0.000 C 
ATOM     28  O   UNL     1       3.021   3.864  18.541  0.00  0.00    +0.000 OA
BRANCH  23  35
ATOM     29  C   UNL     1       5.488   3.940  13.885  0.00  0.00    +0.000 C 
ATOM     30  C   UNL     1       5.814   4.252  15.315  0.00  0.00    +0.000 A 
ATOM     31  C   UNL     1       7.130   4.383  15.752  0.00  0.00    +0.000 A 
ATOM     32  C   UNL     1       7.399   4.702  17.087  0.00  0.00    +0.000 A 
ATOM     33  C   UNL     1       6.359   4.893  18.015  0.00  0.00    +0.000 A 
ATOM     34  C   UNL     1       6.707   5.250  19.436  0.00  0.00    +0.000 C 
ATOM     35  C   UNL     1       5.024   4.751  17.590  0.00  0.00    +0.000 A 
ATOM     36  C   UNL     1       4.776   4.435  16.237  0.00  0.00    +0.000 A 
ENDBRANCH  23  35
ENDBRANCH  22  25
ENDBRANCH   1  22
TORSDOF 8
ENDMDL
MODEL 5
REMARK VINA RESULT:      -8.4      4.063      6.746
REMARK  Name = 
REMARK  13 active torsions:
REMARK  status: ('A' for Active; 'I' for Inactive)
REMARK    1  A    between atoms: C_1  and  C_2
REMARK    2  A    between atoms: C_5  and  C_6
REMARK    3  A    between atoms: C_7  and  C_8
REMARK    4  A    between atoms: C_10  and  C_11
REMARK    5  A    between atoms: C_11  and  N_12
REMARK    6  A    between atoms: C_15  and  C_16
REMARK    7  A    between atoms: N_18  and  C_19
REMARK    8  A    between atoms: C_19  and  C_20
REMARK    9  A    between atoms: C_20  and  C_21
REMARK   10  A    between atoms: C_21  and  N_22
REMARK   11  A    between atoms: C_24  and  C_25
REMARK   12  A    between atoms: C_27  and  C_28
REMARK   13  A    between atoms: C_32  and  C_33
REMARK                            x       y       z     vdW  Elec       q    Type
REMARK                         _______ _______ _______ _____ _____    ______ ____
ROOT
ATOM      1  N   UNL     1       1.342   5.564  19.568  0.00  0.00    +0.000 NA
ATOM      2  C   UNL     1       1.987   5.217  18.289  0.00  0.00    +0.000 C 
ATOM      3  C   UNL     1       1.363   3.995  17.605  0.00  0.00    +0.000 C 
ATOM      4  C   UNL     1       1.282   2.771  18.518  0.00  0.00    +0.000 C 
ATOM      5  C   UNL     1       0.623   3.172  19.840  0.00  0.00    +0.000 C 
ATOM      6  C   UNL     1       1.281   4.399  20.473  0.00  0.00    +0.000 C 
ENDROOT
BRANCH   4   7
ATOM      7  C   UNL     1       2.626   2.062  18.739  0.00  0.00    +0.000 C 
ATOM      8  O   UNL     1       3.243   1.504  17.837  0.00  0.00    +0.000 OA
ATOM      9  N   UNL     1       3.121   2.167  20.022  0.00  0.00    +0.000 N 
ATOM     10  H   UNL     1       2.616   2.704  20.714  0.00  0.00    +0.000 HD
BRANCH   9  11
ATOM     11  C   UNL     1       4.458   1.716  20.375  0.00  0.00    +0.000 C 
BRANCH  11  12
ATOM     12  C   UNL     1       5.491   2.846  20.351  0.00  0.00    +0.000 C 
BRANCH  12  13
ATOM     13  C   UNL     1       5.091   4.056  19.490  0.00  0.00    +0.000 C 
BRANCH  13  14
ATOM     14  N   UNL     1       6.056   4.427  18.435  0.00  0.00    +0.000 NA
ATOM     15  C   UNL     1       5.539   4.100  17.094  0.00  0.00    +0.000 C 
ATOM     16  C   UNL     1       6.541   4.460  15.985  0.00  0.00    +0.000 C 
ATOM     17  C   UNL     1       5.948   4.135  14.614  0.00  0.00    +0.000 C 
ATOM     18  C   UNL     1       6.938   5.936  16.064  0.00  0.00    +0.000 C 
ATOM     19  C   UNL     1       7.406   6.297  17.477  0.00  0.00    +0.000 C 
ATOM     20  C   UNL     1       7.688   7.797  17.572  0.00  0.00    +0.000 C 
ATOM     21  C   UNL     1       6.362   5.869  18.523  0.00  0.00    +0.000 C 
ENDBRANCH  13  14
ENDBRANCH  12  13
ENDBRANCH  11  12
ENDBRANCH   9  11
ENDBRANCH   4   7
BRANCH   1  22
ATOM     22  C   UNL     1       2.114   6.630  20.260  0.00  0.00    +0.000 C 
BRANCH  22  25
ATOM     23  C   UNL     1       0.470   9.777  20.033  0.00  0.00    +0.000 A 
ATOM     24  N   UNL     1       0.744   8.677  20.706  0.00  0.00    +0.000 NA
ATOM     25  C   UNL     1       1.666   8.013  19.913  0.00  0.00    +0.000 A 
ATOM     26  C   UNL     1       1.943   8.786  18.807  0.00  0.00    +0.000 A 
ATOM     27  C   UNL     1       2.784   8.656  17.604  0.00  0.00    +0.000 C 
ATOM     28  O   UNL     1       1.184   9.914  18.876  0.00  0.00    +0.000 OA
BRANCH  23  35
ATOM     29  C   UNL     1      -1.033  13.410  23.082  0.00  0.00    +0.000 C 
ATOM     30  C   UNL     1      -1.238  12.639  21.812  0.00  0.00    +0.000 A 
ATOM     31  C   UNL     1      -2.272  12.944  20.931  0.00  0.00    +0.000 A 
ATOM     32  C   UNL     1      -2.418  12.223  19.741  0.00  0.00    +0.000 A 
ATOM     33  C   UNL     1      -1.536  11.179  19.408  0.00  0.00    +0.000 A 
ATOM     34  C   UNL     1      -1.731  10.447  18.107  0.00  0.00    +0.000 C 
ATOM     35  C   UNL     1      -0.492  10.851  20.295  0.00  0.00    +0.000 A 
ATOM     36  C   UNL     1      -0.361  11.597  21.487  0.00  0.00    +0.000 A 
ENDBRANCH  23  35
ENDBRANCH  22  25
ENDBRANCH   1  22
TORSDOF 8
ENDMDL
MODEL 6
REMARK VINA RESULT:      -8.4      4.634      8.314
REMARK  Name = 
REMARK  13 active torsions:
REMARK  status: ('A' for Active; 'I' for Inactive)
REMARK    1  A    between atoms: C_1  and  C_2
REMARK    2  A    between atoms: C_5  and  C_6
REMARK    3  A    between atoms: C_7  and  C_8
REMARK    4  A    between atoms: C_10  and  C_11
REMARK    5  A    between atoms: C_11  and  N_12
REMARK    6  A    between atoms: C_15  and  C_16
REMARK    7  A    between atoms: N_18  and  C_19
REMARK    8  A    between atoms: C_19  and  C_20
REMARK    9  A    between atoms: C_20  and  C_21
REMARK   10  A    between atoms: C_21  and  N_22
REMARK   11  A    between atoms: C_24  and  C_25
REMARK   12  A    between atoms: C_27  and  C_28
REMARK   13  A    between atoms: C_32  and  C_33
REMARK                            x       y       z     vdW  Elec       q    Type
REMARK                         _______ _______ _______ _____ _____    ______ ____
ROOT
ATOM      1  N   UNL     1       1.106   9.505  18.892  0.00  0.00    +0.000 NA
ATOM      2  C   UNL     1       0.758   8.817  20.148  0.00  0.00    +0.000 C 
ATOM      3  C   UNL     1       1.944   8.085  20.788  0.00  0.00    +0.000 C 
ATOM      4  C   UNL     1       2.650   7.129  19.826  0.00  0.00    +0.000 C 
ATOM      5  C   UNL     1       2.981   7.872  18.531  0.00  0.00    +0.000 C 
ATOM      6  C   UNL     1       1.766   8.588  17.941  0.00  0.00    +0.000 C 
ENDROOT
BRANCH   4   7
ATOM      7  C   UNL     1       1.885   5.825  19.561  0.00  0.00    +0.000 C 
ATOM      8  O   UNL     1       0.997   5.410  20.298  0.00  0.00    +0.000 OA
ATOM      9  N   UNL     1       2.226   5.194  18.383  0.00  0.00    +0.000 N 
ATOM     10  H   UNL     1       2.909   5.614  17.766  0.00  0.00    +0.000 HD
BRANCH   9  11
ATOM     11  C   UNL     1       1.488   4.049  17.875  0.00  0.00    +0.000 C 
BRANCH  11  12
ATOM     12  C   UNL     1       2.402   2.936  17.357  0.00  0.00    +0.000 C 
BRANCH  12  13
ATOM     13  C   UNL     1       3.837   2.982  17.909  0.00  0.00    +0.000 C 
BRANCH  13  14
ATOM     14  N   UNL     1       4.651   4.129  17.454  0.00  0.00    +0.000 NA
ATOM     15  C   UNL     1       5.713   4.452  18.424  0.00  0.00    +0.000 C 
ATOM     16  C   UNL     1       6.556   5.657  17.976  0.00  0.00    +0.000 C 
ATOM     17  C   UNL     1       7.663   5.931  18.994  0.00  0.00    +0.000 C 
ATOM     18  C   UNL     1       7.150   5.423  16.584  0.00  0.00    +0.000 C 
ATOM     19  C   UNL     1       6.058   5.014  15.591  0.00  0.00    +0.000 C 
ATOM     20  C   UNL     1       6.680   4.672  14.236  0.00  0.00    +0.000 C 
ATOM     21  C   UNL     1       5.242   3.829  16.134  0.00  0.00    +0.000 C 
ENDBRANCH  13  14
ENDBRANCH  12  13
ENDBRANCH  11  12
ENDBRANCH   9  11
ENDBRANCH   4   7
BRANCH   1  22
ATOM     22  C   UNL     1      -0.121  10.027  18.235  0.00  0.00    +0.000 C 
BRANCH  22  25
ATOM     23  C   UNL     1      -2.275  12.196  20.058  0.00  0.00    +0.000 A 
ATOM     24  N   UNL     1      -1.929  10.980  19.682  0.00  0.00    +0.000 NA
ATOM     25  C   UNL     1      -0.755  11.165  18.970  0.00  0.00    +0.000 A 
ATOM     26  C   UNL     1      -0.420  12.501  18.997  0.00  0.00    +0.000 A 
ATOM     27  C   UNL     1       0.652  13.339  18.434  0.00  0.00    +0.000 C 
ATOM     28  O   UNL     1      -1.386  13.166  19.690  0.00  0.00    +0.000 OA
BRANCH  23  35
ATOM     29  C   UNL     1      -6.866  14.084  19.738  0.00  0.00    +0.000 C 
ATOM     30  C   UNL     1      -5.728  13.627  20.600  0.00  0.00    +0.000 A 
ATOM     31  C   UNL     1      -5.811  13.650  21.991  0.00  0.00    +0.000 A 
ATOM     32  C   UNL     1      -4.741  13.190  22.766  0.00  0.00    +0.000 A 
ATOM     33  C   UNL     1      -3.565  12.701  22.170  0.00  0.00    +0.000 A 
ATOM     34  C   UNL     1      -2.452  12.204  23.053  0.00  0.00    +0.000 C 
ATOM     35  C   UNL     1      -3.463  12.683  20.765  0.00  0.00    +0.000 A 
ATOM     36  C   UNL     1      -4.557  13.146  20.003  0.00  0.00    +0.000 A 
ENDBRANCH  23  35
ENDBRANCH  22  25
ENDBRANCH   1  22
TORSDOF 8
ENDMDL
MODEL 7
REMARK VINA RESULT:      -8.3      3.115      4.639
REMARK  Name = 
REMARK  13 active torsions:
REMARK  status: ('A' for Active; 'I' for Inactive)
REMARK    1  A    between atoms: C_1  and  C_2
REMARK    2  A    between atoms: C_5  and  C_6
REMARK    3  A    between atoms: C_7  and  C_8
REMARK    4  A    between atoms: C_10  and  C_11
REMARK    5  A    between atoms: C_11  and  N_12
REMARK    6  A    between atoms: C_15  and  C_16
REMARK    7  A    between atoms: N_18  and  C_19
REMARK    8  A    between atoms: C_19  and  C_20
REMARK    9  A    between atoms: C_20  and  C_21
REMARK   10  A    between atoms: C_21  and  N_22
REMARK   11  A    between atoms: C_24  and  C_25
REMARK   12  A    between atoms: C_27  and  C_28
REMARK   13  A    between atoms: C_32  and  C_33
REMARK                            x       y       z     vdW  Elec       q    Type
REMARK                         _______ _______ _______ _____ _____    ______ ____
ROOT
ATOM      1  N   UNL     1       2.927   7.446  18.090  0.00  0.00    +0.000 NA
ATOM      2  C   UNL     1       3.955   7.179  17.068  0.00  0.00    +0.000 C 
ATOM      3  C   UNL     1       4.400   5.713  17.022  0.00  0.00    +0.000 C 
ATOM      4  C   UNL     1       4.840   5.175  18.384  0.00  0.00    +0.000 C 
ATOM      5  C   UNL     1       3.759   5.484  19.421  0.00  0.00    +0.000 C 
ATOM      6  C   UNL     1       3.349   6.957  19.418  0.00  0.00    +0.000 C 
ENDROOT
BRANCH   4   7
ATOM      7  C   UNL     1       6.224   5.664  18.835  0.00  0.00    +0.000 C 
ATOM      8  O   UNL     1       6.858   5.132  19.741  0.00  0.00    +0.000 OA
ATOM      9  N   UNL     1       6.731   6.707  18.089  0.00  0.00    +0.000 N 
ATOM     10  H   UNL     1       6.207   7.063  17.300  0.00  0.00    +0.000 HD
BRANCH   9  11
ATOM     11  C   UNL     1       8.096   7.183  18.250  0.00  0.00    +0.000 C 
BRANCH  11  12
ATOM     12  C   UNL     1       8.224   8.695  18.043  0.00  0.00    +0.000 C 
BRANCH  12  13
ATOM     13  C   UNL     1       9.088   9.410  19.097  0.00  0.00    +0.000 C 
BRANCH  13  14
ATOM     14  N   UNL     1       9.145  10.881  18.973  0.00  0.00    +0.000 NA
ATOM     15  C   UNL     1       9.458  11.518  20.265  0.00  0.00    +0.000 C 
ATOM     16  C   UNL     1       9.500  13.050  20.158  0.00  0.00    +0.000 C 
ATOM     17  C   UNL     1       9.861  13.662  21.512  0.00  0.00    +0.000 C 
ATOM     18  C   UNL     1      10.493  13.498  19.083  0.00  0.00    +0.000 C 
ATOM     19  C   UNL     1      10.216  12.782  17.758  0.00  0.00    +0.000 C 
ATOM     20  C   UNL     1      11.284  13.149  16.726  0.00  0.00    +0.000 C 
ATOM     21  C   UNL     1      10.154  11.258  17.963  0.00  0.00    +0.000 C 
ENDBRANCH  13  14
ENDBRANCH  12  13
ENDBRANCH  11  12
ENDBRANCH   9  11
ENDBRANCH   4   7
BRANCH   1  22
ATOM     22  C   UNL     1       2.686   8.908  18.206  0.00  0.00    +0.000 C 
BRANCH  22  25
ATOM     23  C   UNL     1      -0.717   9.942  18.061  0.00  0.00    +0.000 A 
ATOM     24  N   UNL     1       0.379   9.528  17.455  0.00  0.00    +0.000 NA
ATOM     25  C   UNL     1       1.260   9.258  18.490  0.00  0.00    +0.000 A 
ATOM     26  C   UNL     1       0.622   9.480  19.690  0.00  0.00    +0.000 A 
ATOM     27  C   UNL     1       0.986   9.411  21.116  0.00  0.00    +0.000 C 
ATOM     28  O   UNL     1      -0.641   9.916  19.425  0.00  0.00    +0.000 OA
BRANCH  23  35
ATOM     29  C   UNL     1      -3.954   9.996  14.284  0.00  0.00    +0.000 C 
ATOM     30  C   UNL     1      -3.570  10.489  15.647  0.00  0.00    +0.000 A 
ATOM     31  C   UNL     1      -4.379  11.371  16.360  0.00  0.00    +0.000 A 
ATOM     32  C   UNL     1      -4.005  11.790  17.641  0.00  0.00    +0.000 A 
ATOM     33  C   UNL     1      -2.812  11.340  18.236  0.00  0.00    +0.000 A 
ATOM     34  C   UNL     1      -2.467  11.812  19.624  0.00  0.00    +0.000 C 
ATOM     35  C   UNL     1      -1.978  10.458  17.522  0.00  0.00    +0.000 A 
ATOM     36  C   UNL     1      -2.379  10.044  16.234  0.00  0.00    +0.000 A 
ENDBRANCH  23  35
ENDBRANCH  22  25
ENDBRANCH   1  22
TORSDOF 8
ENDMDL
MODEL 8
REMARK VINA RESULT:      -8.3      4.799     10.273
REMARK  Name = 
REMARK  13 active torsions:
REMARK  status: ('A' for Active; 'I' for Inactive)
REMARK    1  A    between atoms: C_1  and  C_2
REMARK    2  A    between atoms: C_5  and  C_6
REMARK    3  A    between atoms: C_7  and  C_8
REMARK    4  A    between atoms: C_10  and  C_11
REMARK    5  A    between atoms: C_11  and  N_12
REMARK    6  A    between atoms: C_15  and  C_16
REMARK    7  A    between atoms: N_18  and  C_19
REMARK    8  A    between atoms: C_19  and  C_20
REMARK    9  A    between atoms: C_20  and  C_21
REMARK   10  A    between atoms: C_21  and  N_22
REMARK   11  A    between atoms: C_24  and  C_25
REMARK   12  A    between atoms: C_27  and  C_28
REMARK   13  A    between atoms: C_32  and  C_33
REMARK                            x       y       z     vdW  Elec       q    Type
REMARK                         _______ _______ _______ _____ _____    ______ ____
ROOT
ATOM      1  N   UNL     1       1.790   8.330  20.067  0.00  0.00    +0.000 NA
ATOM      2  C   UNL     1       1.639   8.439  18.605  0.00  0.00    +0.000 C 
ATOM      3  C   UNL     1       1.712   9.882  18.092  0.00  0.00    +0.000 C 
ATOM      4  C   UNL     1       0.742  10.823  18.807  0.00  0.00    +0.000 C 
ATOM      5  C   UNL     1       0.915  10.672  20.319  0.00  0.00    +0.000 C 
ATOM      6  C   UNL     1       0.841   9.214  20.773  0.00  0.00    +0.000 C 
ENDROOT
BRANCH   4   7
ATOM      7  C   UNL     1      -0.723  10.660  18.378  0.00  0.00    +0.000 C 
ATOM      8  O   UNL     1      -1.087   9.839  17.542  0.00  0.00    +0.000 OA
ATOM      9  N   UNL     1      -1.611  11.462  19.065  0.00  0.00    +0.000 N 
ATOM     10  H   UNL     1      -1.275  12.068  19.803  0.00  0.00    +0.000 HD
BRANCH   9  11
ATOM     11  C   UNL     1      -3.051  11.320  18.926  0.00  0.00    +0.000 C 
BRANCH  11  12
ATOM     12  C   UNL     1      -3.816  12.570  19.369  0.00  0.00    +0.000 C 
BRANCH  12  13
ATOM     13  C   UNL     1      -3.634  12.935  20.852  0.00  0.00    +0.000 C 
BRANCH  13  14
ATOM     14  N   UNL     1      -4.719  13.749  21.439  0.00  0.00    +0.000 NA
ATOM     15  C   UNL     1      -5.532  12.961  22.383  0.00  0.00    +0.000 C 
ATOM     16  C   UNL     1      -6.678  13.788  22.986  0.00  0.00    +0.000 C 
ATOM     17  C   UNL     1      -7.470  12.940  23.982  0.00  0.00    +0.000 C 
ATOM     18  C   UNL     1      -6.144  15.054  23.662  0.00  0.00    +0.000 C 
ATOM     19  C   UNL     1      -5.238  15.837  22.707  0.00  0.00    +0.000 C 
ATOM     20  C   UNL     1      -4.620  17.034  23.430  0.00  0.00    +0.000 C 
ATOM     21  C   UNL     1      -4.145  14.926  22.122  0.00  0.00    +0.000 C 
ENDBRANCH  13  14
ENDBRANCH  12  13
ENDBRANCH  11  12
ENDBRANCH   9  11
ENDBRANCH   4   7
BRANCH   1  22
ATOM     22  C   UNL     1       1.520   6.937  20.509  0.00  0.00    +0.000 C 
BRANCH  22  25
ATOM     23  C   UNL     1       3.934   5.185  18.567  0.00  0.00    +0.000 A 
ATOM     24  N   UNL     1       3.551   6.275  19.202  0.00  0.00    +0.000 NA
ATOM     25  C   UNL     1       2.359   5.915  19.811  0.00  0.00    +0.000 A 
ATOM     26  C   UNL     1       2.106   4.587  19.548  0.00  0.00    +0.000 A 
ATOM     27  C   UNL     1       1.034   3.627  19.863  0.00  0.00    +0.000 C 
ATOM     28  O   UNL     1       3.107   4.113  18.755  0.00  0.00    +0.000 OA
BRANCH  23  35
ATOM     29  C   UNL     1       5.480   4.086  13.968  0.00  0.00    +0.000 C 
ATOM     30  C   UNL     1       5.825   4.387  15.396  0.00  0.00    +0.000 A 
ATOM     31  C   UNL     1       7.147   4.447  15.832  0.00  0.00    +0.000 A 
ATOM     32  C   UNL     1       7.434   4.758  17.165  0.00  0.00    +0.000 A 
ATOM     33  C   UNL     1       6.408   5.011  18.093  0.00  0.00    +0.000 A 
ATOM     34  C   UNL     1       6.777   5.355  19.511  0.00  0.00    +0.000 C 
ATOM     35  C   UNL     1       5.066   4.942  17.670  0.00  0.00    +0.000 A 
ATOM     36  C   UNL     1       4.800   4.633  16.318  0.00  0.00    +0.000 A 
ENDBRANCH  23  35
ENDBRANCH  22  25
ENDBRANCH   1  22
TORSDOF 8
ENDMDL
MODEL 9
REMARK VINA RESULT:      -8.2      1.844      3.050
REMARK  Name = 
REMARK  13 active torsions:
REMARK  status: ('A' for Active; 'I' for Inactive)
REMARK    1  A    between atoms: C_1  and  C_2
REMARK    2  A    between atoms: C_5  and  C_6
REMARK    3  A    between atoms: C_7  and  C_8
REMARK    4  A    between atoms: C_10  and  C_11
REMARK    5  A    between atoms: C_11  and  N_12
REMARK    6  A    between atoms: C_15  and  C_16
REMARK    7  A    between atoms: N_18  and  C_19
REMARK    8  A    between atoms: C_19  and  C_20
REMARK    9  A    between atoms: C_20  and  C_21
REMARK   10  A    between atoms: C_21  and  N_22
REMARK   11  A    between atoms: C_24  and  C_25
REMARK   12  A    between atoms: C_27  and  C_28
REMARK   13  A    between atoms: C_32  and  C_33
REMARK                            x       y       z     vdW  Elec       q    Type
REMARK                         _______ _______ _______ _____ _____    ______ ____
ROOT
ATOM      1  N   UNL     1       5.041   4.509  18.412  0.00  0.00    +0.000 NA
ATOM      2  C   UNL     1       5.834   4.570  17.171  0.00  0.00    +0.000 C 
ATOM      3  C   UNL     1       7.348   4.526  17.414  0.00  0.00    +0.000 C 
ATOM      4  C   UNL     1       7.827   5.579  18.413  0.00  0.00    +0.000 C 
ATOM      5  C   UNL     1       6.973   5.497  19.680  0.00  0.00    +0.000 C 
ATOM      6  C   UNL     1       5.474   5.538  19.378  0.00  0.00    +0.000 C 
ENDROOT
BRANCH   4   7
ATOM      7  C   UNL     1       7.878   7.005  17.848  0.00  0.00    +0.000 C 
ATOM      8  O   UNL     1       7.357   7.321  16.783  0.00  0.00    +0.000 OA
ATOM      9  N   UNL     1       8.496   7.923  18.671  0.00  0.00    +0.000 N 
ATOM     10  H   UNL     1       8.842   7.633  19.577  0.00  0.00    +0.000 HD
BRANCH   9  11
ATOM     11  C   UNL     1       8.483   9.349  18.389  0.00  0.00    +0.000 C 
BRANCH  11  12
ATOM     12  C   UNL     1       9.501  10.129  19.225  0.00  0.00    +0.000 C 
BRANCH  12  13
ATOM     13  C   UNL     1       9.031  11.528  19.657  0.00  0.00    +0.000 C 
BRANCH  13  14
ATOM     14  N   UNL     1       9.198  12.591  18.644  0.00  0.00    +0.000 NA
ATOM     15  C   UNL     1       8.684  13.884  19.131  0.00  0.00    +0.000 C 
ATOM     16  C   UNL     1       8.830  14.995  18.080  0.00  0.00    +0.000 C 
ATOM     17  C   UNL     1       8.317  16.321  18.642  0.00  0.00    +0.000 C 
ATOM     18  C   UNL     1      10.285  15.131  17.624  0.00  0.00    +0.000 C 
ATOM     19  C   UNL     1      10.845  13.774  17.187  0.00  0.00    +0.000 C 
ATOM     20  C   UNL     1      12.330  13.901  16.845  0.00  0.00    +0.000 C 
ATOM     21  C   UNL     1      10.623  12.715  18.280  0.00  0.00    +0.000 C 
ENDBRANCH  13  14
ENDBRANCH  12  13
ENDBRANCH  11  12
ENDBRANCH   9  11
ENDBRANCH   4   7
BRANCH   1  22
ATOM     22  C   UNL     1       3.604   4.747  18.115  0.00  0.00    +0.000 C 
BRANCH  22  25
ATOM     23  C   UNL     1       2.087   7.907  18.733  0.00  0.00    +0.000 A 
ATOM     24  N   UNL     1       2.304   6.655  19.085  0.00  0.00    +0.000 NA
ATOM     25  C   UNL     1       3.218   6.191  18.152  0.00  0.00    +0.000 A 
ATOM     26  C   UNL     1       3.549   7.221  17.300  0.00  0.00    +0.000 A 
ATOM     27  C   UNL     1       4.411   7.385  16.117  0.00  0.00    +0.000 C 
ATOM     28  O   UNL     1       2.832   8.320  17.664  0.00  0.00    +0.000 OA
BRANCH  23  35
ATOM     29  C   UNL     1      -1.234  11.482  17.765  0.00  0.00    +0.000 C 
ATOM     30  C   UNL     1      -0.471  10.685  18.781  0.00  0.00    +0.000 A 
ATOM     31  C   UNL     1      -0.652  10.880  20.148  0.00  0.00    +0.000 A 
ATOM     32  C   UNL     1       0.055  10.100  21.069  0.00  0.00    +0.000 A 
ATOM     33  C   UNL     1       0.960   9.111  20.645  0.00  0.00    +0.000 A 
ATOM     34  C   UNL     1       1.681   8.291  21.681  0.00  0.00    +0.000 C 
ATOM     35  C   UNL     1       1.162   8.910  19.265  0.00  0.00    +0.000 A 
ATOM     36  C   UNL     1       0.433   9.705  18.354  0.00  0.00    +0.000 A 
ENDBRANCH  23  35
ENDBRANCH  22  25
ENDBRANCH   1  22
TORSDOF 8
ENDMDL
