MODEL 1
REMARK VINA RESULT:      -8.9      0.000      0.000
REMARK  Name = 
REMARK  5 active torsions:
REMARK  status: ('A' for Active; 'I' for Inactive)
REMARK    1  A    between atoms: C_1  and  O_2
REMARK    2  A    between atoms: O_2  and  C_3
REMARK    3  A    between atoms: C_12  and  C_13
REMARK    4  A    between atoms: C_14  and  C_15
REMARK    5  A    between atoms: C_18  and  C_19
REMARK                            x       y       z     vdW  Elec       q    Type
REMARK                         _______ _______ _______ _____ _____    ______ ____
ROOT
ATOM      1  C   UNL     1       4.645   5.839  17.801  0.00  0.00    +0.000 C 
ATOM      2  C   UNL     1       3.554   6.626  17.813  0.00  0.00    +0.000 C 
ENDROOT
BRANCH   1  12
ATOM      3  C   UNL     1       6.820   5.866  16.444  0.00  0.00    +0.000 A 
ATOM      4  N   UNL     1       7.545   5.572  15.337  0.00  0.00    +0.000 NA
ATOM      5  C   UNL     1       6.948   4.905  14.342  0.00  0.00    +0.000 A 
ATOM      6  C   UNL     1       7.683   4.589  13.209  0.00  0.00    +0.000 A 
ATOM      7  C   UNL     1       7.123   3.874  12.149  0.00  0.00    +0.000 A 
ATOM      8  C   UNL     1       5.796   3.468  12.216  0.00  0.00    +0.000 A 
ATOM      9  C   UNL     1       5.032   3.783  13.340  0.00  0.00    +0.000 A 
ATOM     10  C   UNL     1       5.601   4.502  14.408  0.00  0.00    +0.000 A 
ATOM     11  C   UNL     1       4.871   4.834  15.563  0.00  0.00    +0.000 A 
ATOM     12  C   UNL     1       5.472   5.539  16.614  0.00  0.00    +0.000 A 
BRANCH   3  14
ATOM     13  C   UNL     1       7.547   7.885  17.359  0.00  0.00    +0.000 C 
ATOM     14  O   UNL     1       7.492   6.468  17.491  0.00  0.00    +0.000 OA
ENDBRANCH   3  14
ENDBRANCH   1  12
BRANCH   2  15
ATOM     15  C   UNL     1       2.738   6.903  18.946  0.00  0.00    +0.000 A 
ATOM     16  N   UNL     1       2.424   6.012  19.894  0.00  0.00    +0.000 NA
ATOM     17  O   UNL     1       1.626   6.740  20.770  0.00  0.00    +0.000 OA
ATOM     18  C   UNL     1       1.535   8.005  20.263  0.00  0.00    +0.000 A 
ATOM     19  N   UNL     1       2.212   8.160  19.142  0.00  0.00    +0.000 NA
BRANCH  18  20
ATOM     20  C   UNL     1       0.717   8.952  21.008  0.00  0.00    +0.000 A 
ATOM     21  C   UNL     1       0.068  10.021  20.363  0.00  0.00    +0.000 A 
ATOM     22  C   UNL     1      -0.690  10.941  21.091  0.00  0.00    +0.000 A 
ATOM     23  C   UNL     1      -0.805  10.795  22.467  0.00  0.00    +0.000 A 
ATOM     24  F   UNL     1      -1.524  11.684  23.165  0.00  0.00    +0.000 F 
ATOM     25  C   UNL     1      -0.183   9.744  23.128  0.00  0.00    +0.000 A 
ATOM     26  C   UNL     1       0.575   8.822  22.400  0.00  0.00    +0.000 A 
ENDBRANCH  18  20
ENDBRANCH   2  15
TORSDOF 4
ENDMDL
MODEL 2
REMARK VINA RESULT:      -8.6      5.299      8.489
REMARK  Name = 
REMARK  5 active torsions:
REMARK  status: ('A' for Active; 'I' for Inactive)
REMARK    1  A    between atoms: C_1  and  O_2
REMARK    2  A    between atoms: O_2  and  C_3
REMARK    3  A    between atoms: C_12  and  C_13
REMARK    4  A    between atoms: C_14  and  C_15
REMARK    5  A    between atoms: C_18  and  C_19
REMARK                            x       y       z     vdW  Elec       q    Type
REMARK                         _______ _______ _______ _____ _____    ______ ____
ROOT
ATOM      1  C   UNL     1       8.743   9.243  18.704  0.00  0.00    +0.000 C 
ATOM      2  C   UNL     1       7.965   8.920  17.656  0.00  0.00    +0.000 C 
ENDROOT
BRANCH   1  12
ATOM      3  C   UNL     1       9.428  11.256  20.136  0.00  0.00    +0.000 A 
ATOM      4  N   UNL     1      10.024  12.463  20.300  0.00  0.00    +0.000 NA
ATOM      5  C   UNL     1      10.627  13.023  19.245  0.00  0.00    +0.000 A 
ATOM      6  C   UNL     1      11.249  14.253  19.402  0.00  0.00    +0.000 A 
ATOM      7  C   UNL     1      11.917  14.877  18.347  0.00  0.00    +0.000 A 
ATOM      8  C   UNL     1      11.960  14.264  17.101  0.00  0.00    +0.000 A 
ATOM      9  C   UNL     1      11.333  13.032  16.914  0.00  0.00    +0.000 A 
ATOM     10  C   UNL     1      10.664  12.405  17.981  0.00  0.00    +0.000 A 
ATOM     11  C   UNL     1      10.025  11.161  17.840  0.00  0.00    +0.000 A 
ATOM     12  C   UNL     1       9.379  10.557  18.927  0.00  0.00    +0.000 A 
BRANCH   3  14
ATOM     13  C   UNL     1       8.474  11.615  22.234  0.00  0.00    +0.000 C 
ATOM     14  O   UNL     1       8.900  10.661  21.266  0.00  0.00    +0.000 OA
ENDBRANCH   3  14
ENDBRANCH   1  12
BRANCH   2  15
ATOM     15  C   UNL     1       7.366   7.650  17.420  0.00  0.00    +0.000 A 
ATOM     16  N   UNL     1       7.776   6.775  16.494  0.00  0.00    +0.000 NA
ATOM     17  O   UNL     1       6.898   5.707  16.647  0.00  0.00    +0.000 OA
ATOM     18  C   UNL     1       6.038   6.045  17.653  0.00  0.00    +0.000 A 
ATOM     19  N   UNL     1       6.290   7.231  18.170  0.00  0.00    +0.000 NA
BRANCH  18  20
ATOM     20  C   UNL     1       4.998   5.078  17.978  0.00  0.00    +0.000 A 
ATOM     21  C   UNL     1       3.735   5.129  17.360  0.00  0.00    +0.000 A 
ATOM     22  C   UNL     1       2.735   4.216  17.700  0.00  0.00    +0.000 A 
ATOM     23  C   UNL     1       2.994   3.244  18.658  0.00  0.00    +0.000 A 
ATOM     24  F   UNL     1       2.031   2.375  18.990  0.00  0.00    +0.000 F 
ATOM     25  C   UNL     1       4.235   3.164  19.277  0.00  0.00    +0.000 A 
ATOM     26  C   UNL     1       5.237   4.078  18.936  0.00  0.00    +0.000 A 
ENDBRANCH  18  20
ENDBRANCH   2  15
TORSDOF 4
ENDMDL
MODEL 3
REMARK VINA RESULT:      -8.5      2.998      4.983
REMARK  Name = 
REMARK  5 active torsions:
REMARK  status: ('A' for Active; 'I' for Inactive)
REMARK    1  A    between atoms: C_1  and  O_2
REMARK    2  A    between atoms: O_2  and  C_3
REMARK    3  A    between atoms: C_12  and  C_13
REMARK    4  A    between atoms: C_14  and  C_15
REMARK    5  A    between atoms: C_18  and  C_19
REMARK                            x       y       z     vdW  Elec       q    Type
REMARK                         _______ _______ _______ _____ _____    ______ ____
ROOT
ATOM      1  C   UNL     1       1.441   7.166  20.798  0.00  0.00    +0.000 C 
ATOM      2  C   UNL     1       1.408   8.509  20.721  0.00  0.00    +0.000 C 
ENDROOT
BRANCH   1  12
ATOM      3  C   UNL     1       2.108   4.876  19.859  0.00  0.00    +0.000 A 
ATOM      4  N   UNL     1       2.787   4.090  18.987  0.00  0.00    +0.000 NA
ATOM      5  C   UNL     1       3.548   4.679  18.057  0.00  0.00    +0.000 A 
ATOM      6  C   UNL     1       4.239   3.885  17.154  0.00  0.00    +0.000 A 
ATOM      7  C   UNL     1       5.029   4.440  16.145  0.00  0.00    +0.000 A 
ATOM      8  C   UNL     1       5.138   5.822  16.038  0.00  0.00    +0.000 A 
ATOM      9  C   UNL     1       4.462   6.641  16.941  0.00  0.00    +0.000 A 
ATOM     10  C   UNL     1       3.664   6.077  17.954  0.00  0.00    +0.000 A 
ATOM     11  C   UNL     1       2.959   6.866  18.881  0.00  0.00    +0.000 A 
ATOM     12  C   UNL     1       2.163   6.272  19.870  0.00  0.00    +0.000 A 
BRANCH   3  14
ATOM     13  C   UNL     1       1.935   3.296  21.566  0.00  0.00    +0.000 C 
ATOM     14  O   UNL     1       1.257   4.240  20.742  0.00  0.00    +0.000 OA
ENDBRANCH   3  14
ENDBRANCH   1  12
BRANCH   2  15
ATOM     15  C   UNL     1       0.698   9.378  21.597  0.00  0.00    +0.000 A 
ATOM     16  N   UNL     1       0.856   9.415  22.926  0.00  0.00    +0.000 NA
ATOM     17  O   UNL     1      -0.035  10.403  23.330  0.00  0.00    +0.000 OA
ATOM     18  C   UNL     1      -0.648  10.867  22.201  0.00  0.00    +0.000 A 
ATOM     19  N   UNL     1      -0.224  10.273  21.103  0.00  0.00    +0.000 NA
BRANCH  18  20
ATOM     20  C   UNL     1      -1.656  11.903  22.382  0.00  0.00    +0.000 A 
ATOM     21  C   UNL     1      -2.622  11.812  23.401  0.00  0.00    +0.000 A 
ATOM     22  C   UNL     1      -3.602  12.796  23.547  0.00  0.00    +0.000 A 
ATOM     23  C   UNL     1      -3.620  13.877  22.677  0.00  0.00    +0.000 A 
ATOM     24  F   UNL     1      -4.566  14.816  22.812  0.00  0.00    +0.000 F 
ATOM     25  C   UNL     1      -2.672  13.998  21.668  0.00  0.00    +0.000 A 
ATOM     26  C   UNL     1      -1.691  13.014  21.522  0.00  0.00    +0.000 A 
ENDBRANCH  18  20
ENDBRANCH   2  15
TORSDOF 4
ENDMDL
MODEL 4
REMARK VINA RESULT:      -8.5      0.518      1.053
REMARK  Name = 
REMARK  5 active torsions:
REMARK  status: ('A' for Active; 'I' for Inactive)
REMARK    1  A    between atoms: C_1  and  O_2
REMARK    2  A    between atoms: O_2  and  C_3
REMARK    3  A    between atoms: C_12  and  C_13
REMARK    4  A    between atoms: C_14  and  C_15
REMARK    5  A    between atoms: C_18  and  C_19
REMARK                            x       y       z     vdW  Elec       q    Type
REMARK                         _______ _______ _______ _____ _____    ______ ____
ROOT
ATOM      1  C   UNL     1       4.694   6.048  17.882  0.00  0.00    +0.000 C 
ATOM      2  C   UNL     1       3.441   6.537  17.863  0.00  0.00    +0.000 C 
ENDROOT
BRANCH   1  12
ATOM      3  C   UNL     1       6.835   6.061  16.472  0.00  0.00    +0.000 A 
ATOM      4  N   UNL     1       7.541   5.729  15.363  0.00  0.00    +0.000 NA
ATOM      5  C   UNL     1       6.938   4.997  14.419  0.00  0.00    +0.000 A 
ATOM      6  C   UNL     1       7.654   4.642  13.285  0.00  0.00    +0.000 A 
ATOM      7  C   UNL     1       7.088   3.860  12.276  0.00  0.00    +0.000 A 
ATOM      8  C   UNL     1       5.774   3.425  12.398  0.00  0.00    +0.000 A 
ATOM      9  C   UNL     1       5.029   3.778  13.523  0.00  0.00    +0.000 A 
ATOM     10  C   UNL     1       5.604   4.564  14.538  0.00  0.00    +0.000 A 
ATOM     11  C   UNL     1       4.893   4.936  15.693  0.00  0.00    +0.000 A 
ATOM     12  C   UNL     1       5.500   5.709  16.692  0.00  0.00    +0.000 A 
BRANCH   3  14
ATOM     13  C   UNL     1       7.873   5.877  18.552  0.00  0.00    +0.000 C 
ATOM     14  O   UNL     1       7.515   6.732  17.470  0.00  0.00    +0.000 OA
ENDBRANCH   3  14
ENDBRANCH   1  12
BRANCH   2  15
ATOM     15  C   UNL     1       2.647   6.846  19.004  0.00  0.00    +0.000 A 
ATOM     16  N   UNL     1       2.265   5.956  19.928  0.00  0.00    +0.000 NA
ATOM     17  O   UNL     1       1.525   6.720  20.825  0.00  0.00    +0.000 OA
ATOM     18  C   UNL     1       1.531   8.001  20.351  0.00  0.00    +0.000 A 
ATOM     19  N   UNL     1       2.219   8.134  19.234  0.00  0.00    +0.000 NA
BRANCH  18  20
ATOM     20  C   UNL     1       0.788   8.988  21.122  0.00  0.00    +0.000 A 
ATOM     21  C   UNL     1       0.291   8.689  22.404  0.00  0.00    +0.000 A 
ATOM     22  C   UNL     1      -0.446   9.632  23.123  0.00  0.00    +0.000 A 
ATOM     23  C   UNL     1      -0.688  10.880  22.565  0.00  0.00    +0.000 A 
ATOM     24  F   UNL     1      -1.404  11.781  23.251  0.00  0.00    +0.000 F 
ATOM     25  C   UNL     1      -0.201  11.206  21.305  0.00  0.00    +0.000 A 
ATOM     26  C   UNL     1       0.537  10.262  20.586  0.00  0.00    +0.000 A 
ENDBRANCH  18  20
ENDBRANCH   2  15
TORSDOF 4
ENDMDL
MODEL 5
REMARK VINA RESULT:      -8.4      5.106      8.457
REMARK  Name = 
REMARK  5 active torsions:
REMARK  status: ('A' for Active; 'I' for Inactive)
REMARK    1  A    between atoms: C_1  and  O_2
REMARK    2  A    between atoms: O_2  and  C_3
REMARK    3  A    between atoms: C_12  and  C_13
REMARK    4  A    between atoms: C_14  and  C_15
REMARK    5  A    between atoms: C_18  and  C_19
REMARK                            x       y       z     vdW  Elec       q    Type
REMARK                         _______ _______ _______ _____ _____    ______ ____
ROOT
ATOM      1  C   UNL     1       8.627   9.599  18.836  0.00  0.00    +0.000 C 
ATOM      2  C   UNL     1       8.221   9.164  17.629  0.00  0.00    +0.000 C 
ENDROOT
BRANCH   1  12
ATOM      3  C   UNL     1       9.708  11.378  20.332  0.00  0.00    +0.000 A 
ATOM      4  N   UNL     1      10.449  12.498  20.518  0.00  0.00    +0.000 NA
ATOM      5  C   UNL     1      10.971  13.101  19.444  0.00  0.00    +0.000 A 
ATOM      6  C   UNL     1      11.741  14.242  19.622  0.00  0.00    +0.000 A 
ATOM      7  C   UNL     1      12.333  14.902  18.544  0.00  0.00    +0.000 A 
ATOM      8  C   UNL     1      12.149  14.418  17.255  0.00  0.00    +0.000 A 
ATOM      9  C   UNL     1      11.371  13.279  17.047  0.00  0.00    +0.000 A 
ATOM     10  C   UNL     1      10.778  12.615  18.137  0.00  0.00    +0.000 A 
ATOM     11  C   UNL     1       9.993  11.460  17.976  0.00  0.00    +0.000 A 
ATOM     12  C   UNL     1       9.428  10.815  19.084  0.00  0.00    +0.000 A 
BRANCH   3  14
ATOM     13  C   UNL     1       8.198  11.415  22.110  0.00  0.00    +0.000 C 
ATOM     14  O   UNL     1       9.266  10.725  21.467  0.00  0.00    +0.000 OA
ENDBRANCH   3  14
ENDBRANCH   1  12
BRANCH   2  15
ATOM     15  C   UNL     1       7.468   7.982  17.377  0.00  0.00    +0.000 A 
ATOM     16  N   UNL     1       7.895   6.952  16.636  0.00  0.00    +0.000 NA
ATOM     17  O   UNL     1       6.831   6.057  16.685  0.00  0.00    +0.000 OA
ATOM     18  C   UNL     1       5.863   6.637  17.453  0.00  0.00    +0.000 A 
ATOM     19  N   UNL     1       6.210   7.822  17.913  0.00  0.00    +0.000 NA
BRANCH  18  20
ATOM     20  C   UNL     1       4.627   5.884  17.628  0.00  0.00    +0.000 A 
ATOM     21  C   UNL     1       4.596   4.487  17.468  0.00  0.00    +0.000 A 
ATOM     22  C   UNL     1       3.400   3.779  17.607  0.00  0.00    +0.000 A 
ATOM     23  C   UNL     1       2.231   4.463  17.910  0.00  0.00    +0.000 A 
ATOM     24  F   UNL     1       1.083   3.784  18.035  0.00  0.00    +0.000 F 
ATOM     25  C   UNL     1       2.236   5.842  18.084  0.00  0.00    +0.000 A 
ATOM     26  C   UNL     1       3.432   6.551  17.945  0.00  0.00    +0.000 A 
ENDBRANCH  18  20
ENDBRANCH   2  15
TORSDOF 4
ENDMDL
MODEL 6
REMARK VINA RESULT:      -8.3      5.489      8.031
REMARK  Name = 
REMARK  5 active torsions:
REMARK  status: ('A' for Active; 'I' for Inactive)
REMARK    1  A    between atoms: C_1  and  O_2
REMARK    2  A    between atoms: O_2  and  C_3
REMARK    3  A    between atoms: C_12  and  C_13
REMARK    4  A    between atoms: C_14  and  C_15
REMARK    5  A    between atoms: C_18  and  C_19
REMARK                            x       y       z     vdW  Elec       q    Type
REMARK                         _______ _______ _______ _____ _____    ______ ____
ROOT
ATOM      1  C   UNL     1       7.661   7.050  18.118  0.00  0.00    +0.000 C 
ATOM      2  C   UNL     1       7.490   8.355  17.841  0.00  0.00    +0.000 C 
ENDROOT
BRANCH   1  12
ATOM      3  C   UNL     1       6.584   5.335  16.546  0.00  0.00    +0.000 A 
ATOM      4  N   UNL     1       5.695   4.346  16.280  0.00  0.00    +0.000 NA
ATOM      5  C   UNL     1       4.893   3.928  17.266  0.00  0.00    +0.000 A 
ATOM      6  C   UNL     1       3.987   2.910  17.008  0.00  0.00    +0.000 A 
ATOM      7  C   UNL     1       3.141   2.413  18.001  0.00  0.00    +0.000 A 
ATOM      8  C   UNL     1       3.194   2.948  19.282  0.00  0.00    +0.000 A 
ATOM      9  C   UNL     1       4.088   3.980  19.564  0.00  0.00    +0.000 A 
ATOM     10  C   UNL     1       4.942   4.476  18.561  0.00  0.00    +0.000 A 
ATOM     11  C   UNL     1       5.864   5.510  18.803  0.00  0.00    +0.000 A 
ATOM     12  C   UNL     1       6.708   5.971  17.784  0.00  0.00    +0.000 A 
BRANCH   3  14
ATOM     13  C   UNL     1       7.182   4.991  14.318  0.00  0.00    +0.000 C 
ATOM     14  O   UNL     1       7.463   5.675  15.536  0.00  0.00    +0.000 OA
ENDBRANCH   3  14
ENDBRANCH   1  12
BRANCH   2  15
ATOM     15  C   UNL     1       8.390   9.405  18.178  0.00  0.00    +0.000 A 
ATOM     16  N   UNL     1       9.290   9.347  19.168  0.00  0.00    +0.000 NA
ATOM     17  O   UNL     1       9.921  10.586  19.103  0.00  0.00    +0.000 OA
ATOM     18  C   UNL     1       9.337  11.273  18.078  0.00  0.00    +0.000 A 
ATOM     19  N   UNL     1       8.392  10.584  17.468  0.00  0.00    +0.000 NA
BRANCH  18  20
ATOM     20  C   UNL     1       9.823  12.624  17.835  0.00  0.00    +0.000 A 
ATOM     21  C   UNL     1       9.079  13.750  18.233  0.00  0.00    +0.000 A 
ATOM     22  C   UNL     1       9.540  15.041  17.969  0.00  0.00    +0.000 A 
ATOM     23  C   UNL     1      10.748  15.214  17.307  0.00  0.00    +0.000 A 
ATOM     24  F   UNL     1      11.184  16.453  17.046  0.00  0.00    +0.000 F 
ATOM     25  C   UNL     1      11.508  14.120  16.911  0.00  0.00    +0.000 A 
ATOM     26  C   UNL     1      11.048  12.828  17.176  0.00  0.00    +0.000 A 
ENDBRANCH  18  20
ENDBRANCH   2  15
TORSDOF 4
ENDMDL
MODEL 7
REMARK VINA RESULT:      -8.3      2.795      4.573
REMARK  Name = 
REMARK  5 active torsions:
REMARK  status: ('A' for Active; 'I' for Inactive)
REMARK    1  A    between atoms: C_1  and  O_2
REMARK    2  A    between atoms: O_2  and  C_3
REMARK    3  A    between atoms: C_12  and  C_13
REMARK    4  A    between atoms: C_14  and  C_15
REMARK    5  A    between atoms: C_18  and  C_19
REMARK                            x       y       z     vdW  Elec       q    Type
REMARK                         _______ _______ _______ _____ _____    ______ ____
ROOT
ATOM      1  C   UNL     1       1.736   7.080  20.526  0.00  0.00    +0.000 C 
ATOM      2  C   UNL     1       1.750   8.425  20.516  0.00  0.00    +0.000 C 
ENDROOT
BRANCH   1  12
ATOM      3  C   UNL     1       2.621   4.818  19.707  0.00  0.00    +0.000 A 
ATOM      4  N   UNL     1       3.346   4.052  18.854  0.00  0.00    +0.000 NA
ATOM      5  C   UNL     1       3.986   4.654  17.845  0.00  0.00    +0.000 A 
ATOM      6  C   UNL     1       4.722   3.880  16.960  0.00  0.00    +0.000 A 
ATOM      7  C   UNL     1       5.392   4.446  15.874  0.00  0.00    +0.000 A 
ATOM      8  C   UNL     1       5.333   5.819  15.667  0.00  0.00    +0.000 A 
ATOM      9  C   UNL     1       4.609   6.621  16.550  0.00  0.00    +0.000 A 
ATOM     10  C   UNL     1       3.933   6.046  17.642  0.00  0.00    +0.000 A 
ATOM     11  C   UNL     1       3.186   6.814  18.551  0.00  0.00    +0.000 A 
ATOM     12  C   UNL     1       2.513   6.209  19.621  0.00  0.00    +0.000 A 
BRANCH   3  14
ATOM     13  C   UNL     1       0.820   3.397  20.129  0.00  0.00    +0.000 C 
ATOM     14  O   UNL     1       1.894   4.156  20.678  0.00  0.00    +0.000 OA
ENDBRANCH   3  14
ENDBRANCH   1  12
BRANCH   2  15
ATOM     15  C   UNL     1       0.989   9.274  21.369  0.00  0.00    +0.000 A 
ATOM     16  N   UNL     1       1.201   9.420  22.683  0.00  0.00    +0.000 NA
ATOM     17  O   UNL     1       0.226  10.336  23.067  0.00  0.00    +0.000 OA
ATOM     18  C   UNL     1      -0.482  10.653  21.943  0.00  0.00    +0.000 A 
ATOM     19  N   UNL     1      -0.044  10.031  20.866  0.00  0.00    +0.000 NA
BRANCH  18  20
ATOM     20  C   UNL     1      -1.586  11.588  22.108  0.00  0.00    +0.000 A 
ATOM     21  C   UNL     1      -2.000  12.422  21.053  0.00  0.00    +0.000 A 
ATOM     22  C   UNL     1      -3.040  13.336  21.230  0.00  0.00    +0.000 A 
ATOM     23  C   UNL     1      -3.675  13.420  22.462  0.00  0.00    +0.000 A 
ATOM     24  F   UNL     1      -4.666  14.304  22.633  0.00  0.00    +0.000 F 
ATOM     25  C   UNL     1      -3.293  12.602  23.518  0.00  0.00    +0.000 A 
ATOM     26  C   UNL     1      -2.253  11.686  23.341  0.00  0.00    +0.000 A 
ENDBRANCH  18  20
ENDBRANCH   2  15
TORSDOF 4
ENDMDL
MODEL 8
REMARK VINA RESULT:      -8.1      2.436      3.827
REMARK  Name = 
REMARK  5 active torsions:
REMARK  status: ('A' for Active; 'I' for Inactive)
REMARK    1  A    between atoms: C_1  and  O_2
REMARK    2  A    between atoms: O_2  and  C_3
REMARK    3  A    between atoms: C_12  and  C_13
REMARK    4  A    between atoms: C_14  and  C_15
REMARK    5  A    between atoms: C_18  and  C_19
REMARK                            x       y       z     vdW  Elec       q    Type
REMARK                         _______ _______ _______ _____ _____    ______ ____
ROOT
ATOM      1  C   UNL     1       2.455   7.749  18.749  0.00  0.00    +0.000 C 
ATOM      2  C   UNL     1       1.980   8.831  18.107  0.00  0.00    +0.000 C 
ENDROOT
BRANCH   1  12
ATOM      3  C   UNL     1       2.889   5.255  18.342  0.00  0.00    +0.000 A 
ATOM      4  N   UNL     1       3.547   4.237  17.735  0.00  0.00    +0.000 NA
ATOM      5  C   UNL     1       4.494   4.536  16.838  0.00  0.00    +0.000 A 
ATOM      6  C   UNL     1       5.167   3.503  16.202  0.00  0.00    +0.000 A 
ATOM      7  C   UNL     1       6.148   3.749  15.240  0.00  0.00    +0.000 A 
ATOM      8  C   UNL     1       6.471   5.059  14.905  0.00  0.00    +0.000 A 
ATOM      9  C   UNL     1       5.817   6.116  15.538  0.00  0.00    +0.000 A 
ATOM     10  C   UNL     1       4.827   5.862  16.505  0.00  0.00    +0.000 A 
ATOM     11  C   UNL     1       4.137   6.897  17.162  0.00  0.00    +0.000 A 
ATOM     12  C   UNL     1       3.147   6.610  18.112  0.00  0.00    +0.000 A 
BRANCH   3  14
ATOM     13  C   UNL     1       1.278   3.651  18.862  0.00  0.00    +0.000 C 
ATOM     14  O   UNL     1       1.852   4.914  19.188  0.00  0.00    +0.000 OA
ENDBRANCH   3  14
ENDBRANCH   1  12
BRANCH   2  15
ATOM     15  C   UNL     1       1.293   9.924  18.707  0.00  0.00    +0.000 A 
ATOM     16  N   UNL     1       1.473  11.209  18.379  0.00  0.00    +0.000 NA
ATOM     17  O   UNL     1       0.596  11.884  19.222  0.00  0.00    +0.000 OA
ATOM     18  C   UNL     1      -0.030  10.936  19.981  0.00  0.00    +0.000 A 
ATOM     19  N   UNL     1       0.359   9.709  19.695  0.00  0.00    +0.000 NA
BRANCH  18  20
ATOM     20  C   UNL     1      -0.988  11.415  20.968  0.00  0.00    +0.000 A 
ATOM     21  C   UNL     1      -2.011  12.313  20.615  0.00  0.00    +0.000 A 
ATOM     22  C   UNL     1      -2.906  12.790  21.575  0.00  0.00    +0.000 A 
ATOM     23  C   UNL     1      -2.785  12.368  22.892  0.00  0.00    +0.000 A 
ATOM     24  F   UNL     1      -3.638  12.833  23.814  0.00  0.00    +0.000 F 
ATOM     25  C   UNL     1      -1.789  11.474  23.267  0.00  0.00    +0.000 A 
ATOM     26  C   UNL     1      -0.894  10.996  22.306  0.00  0.00    +0.000 A 
ENDBRANCH  18  20
ENDBRANCH   2  15
TORSDOF 4
ENDMDL
MODEL 9
REMARK VINA RESULT:      -8.0      3.829      5.552
REMARK  Name = 
REMARK  5 active torsions:
REMARK  status: ('A' for Active; 'I' for Inactive)
REMARK    1  A    between atoms: C_1  and  O_2
REMARK    2  A    between atoms: O_2  and  C_3
REMARK    3  A    between atoms: C_12  and  C_13
REMARK    4  A    between atoms: C_14  and  C_15
REMARK    5  A    between atoms: C_18  and  C_19
REMARK                            x       y       z     vdW  Elec       q    Type
REMARK                         _______ _______ _______ _____ _____    ______ ____
ROOT
ATOM      1  C   UNL     1       1.486   7.750  21.027  0.00  0.00    +0.000 C 
ATOM      2  C   UNL     1       0.351   8.470  20.990  0.00  0.00    +0.000 C 
ENDROOT
BRANCH   1  12
ATOM      3  C   UNL     1       2.472   6.870  18.830  0.00  0.00    +0.000 A 
ATOM      4  N   UNL     1       2.798   5.864  17.981  0.00  0.00    +0.000 NA
ATOM      5  C   UNL     1       2.538   4.606  18.355  0.00  0.00    +0.000 A 
ATOM      6  C   UNL     1       2.876   3.567  17.499  0.00  0.00    +0.000 A 
ATOM      7  C   UNL     1       2.654   2.233  17.842  0.00  0.00    +0.000 A 
ATOM      8  C   UNL     1       2.074   1.924  19.067  0.00  0.00    +0.000 A 
ATOM      9  C   UNL     1       1.714   2.950  19.940  0.00  0.00    +0.000 A 
ATOM     10  C   UNL     1       1.943   4.294  19.592  0.00  0.00    +0.000 A 
ATOM     11  C   UNL     1       1.604   5.359  20.444  0.00  0.00    +0.000 A 
ATOM     12  C   UNL     1       1.857   6.686  20.072  0.00  0.00    +0.000 A 
BRANCH   3  14
ATOM     13  C   UNL     1       1.848   8.792  17.666  0.00  0.00    +0.000 C 
ATOM     14  O   UNL     1       2.842   8.148  18.458  0.00  0.00    +0.000 OA
ENDBRANCH   3  14
ENDBRANCH   1  12
BRANCH   2  15
ATOM     15  C   UNL     1      -0.026   9.482  21.917  0.00  0.00    +0.000 A 
ATOM     16  N   UNL     1       0.415   9.561  23.179  0.00  0.00    +0.000 NA
ATOM     17  O   UNL     1      -0.221  10.695  23.674  0.00  0.00    +0.000 OA
ATOM     18  C   UNL     1      -0.988  11.191  22.659  0.00  0.00    +0.000 A 
ATOM     19  N   UNL     1      -0.896  10.484  21.550  0.00  0.00    +0.000 NA
BRANCH  18  20
ATOM     20  C   UNL     1      -1.777  12.380  22.955  0.00  0.00    +0.000 A 
ATOM     21  C   UNL     1      -3.181  12.360  22.883  0.00  0.00    +0.000 A 
ATOM     22  C   UNL     1      -3.927  13.512  23.139  0.00  0.00    +0.000 A 
ATOM     23  C   UNL     1      -3.272  14.690  23.472  0.00  0.00    +0.000 A 
ATOM     24  F   UNL     1      -3.987  15.798  23.709  0.00  0.00    +0.000 F 
ATOM     25  C   UNL     1      -1.886  14.736  23.561  0.00  0.00    +0.000 A 
ATOM     26  C   UNL     1      -1.139  13.582  23.305  0.00  0.00    +0.000 A 
ENDBRANCH  18  20
ENDBRANCH   2  15
TORSDOF 4
ENDMDL
