MODEL 1
REMARK VINA RESULT:      -8.1      0.000      0.000
REMARK  Name = 
REMARK  10 active torsions:
REMARK  status: ('A' for Active; 'I' for Inactive)
REMARK    1  A    between atoms: C_1  and  C_2
REMARK    2  A    between atoms: C_2  and  C_3
REMARK    3  A    between atoms: C_2  and  C_4
REMARK    4  A    between atoms: C_4  and  C_5
REMARK    5  A    between atoms: C_5  and  O_7
REMARK    6  A    between atoms: O_7  and  C_8
REMARK    7  A    between atoms: C_8  and  C_9
REMARK    8  A    between atoms: C_11  and  N_12
REMARK    9  A    between atoms: C_22  and  O_23
REMARK   10  A    between atoms: C_24  and  O_25
REMARK                            x       y       z     vdW  Elec       q    Type
REMARK                         _______ _______ _______ _____ _____    ______ ____
ROOT
ATOM      1  C   UNL     1       6.789   5.287  16.340  0.00  0.00    +0.000 C 
ATOM      2  O   UNL     1       5.493   5.912  16.490  0.00  0.00    +0.000 OA
ATOM      3  C   UNL     1       5.055   5.764  17.864  0.00  0.00    +0.000 C 
ATOM      4  C   UNL     1       6.291   5.301  18.648  0.00  0.00    +0.000 C 
ATOM      5  C   UNL     1       7.046   4.477  17.612  0.00  0.00    +0.000 C 
ENDROOT
BRANCH   3   6
ATOM      6  N   UNL     1       3.921   4.858  17.889  0.00  0.00    +0.000 N 
ATOM      7  C   UNL     1       3.521   3.999  16.900  0.00  0.00    +0.000 A 
ATOM      8  N   UNL     1       2.480   3.280  17.250  0.00  0.00    +0.000 NA
ATOM      9  C   UNL     1       2.150   3.736  18.504  0.00  0.00    +0.000 A 
ATOM     10  C   UNL     1       1.120   3.385  19.388  0.00  0.00    +0.000 A 
ATOM     11  N   UNL     1       0.188   2.396  19.101  0.00  0.00    +0.000 N 
ATOM     12  N   UNL     1       1.022   4.054  20.559  0.00  0.00    +0.000 NA
ATOM     13  C   UNL     1       1.941   5.006  20.830  0.00  0.00    +0.000 A 
ATOM     14  N   UNL     1       2.982   5.414  20.070  0.00  0.00    +0.000 NA
ATOM     15  C   UNL     1       3.021   4.734  18.914  0.00  0.00    +0.000 A 
ATOM     16  H   UNL     1       0.115   2.194  18.109  0.00  0.00    +0.000 HD
ATOM     17  H   UNL     1      -0.670   2.513  19.620  0.00  0.00    +0.000 HD
ENDBRANCH   3   6
BRANCH   4  18
ATOM     18  O   UNL     1       6.065   4.616  19.870  0.00  0.00    +0.000 OA
ATOM     19  H   UNL     1       6.123   3.654  19.729  0.00  0.00    +0.000 HD
ENDBRANCH   4  18
BRANCH   5  20
ATOM     20  O   UNL     1       8.432   4.334  17.901  0.00  0.00    +0.000 OA
ATOM     21  H   UNL     1       8.742   5.114  18.393  0.00  0.00    +0.000 HD
ENDBRANCH   5  20
BRANCH   1  22
ATOM     22  C   UNL     1       6.811   4.436  15.063  0.00  0.00    +0.000 C 
BRANCH  22  23
ATOM     23  O   UNL     1       7.198   5.188  13.913  0.00  0.00    +0.000 OA
BRANCH  23  24
ATOM     24  C   UNL     1       7.005   4.558  12.724  0.00  0.00    +0.000 C 
ATOM     25  O   UNL     1       7.627   4.800  11.697  0.00  0.00    +0.000 OA
BRANCH  24  26
ATOM     26  C   UNL     1       5.912   3.528  12.859  0.00  0.00    +0.000 C 
BRANCH  26  28
ATOM     27  C   UNL     1       5.852   1.479  11.366  0.00  0.00    +0.000 C 
ATOM     28  C   UNL     1       5.489   2.961  11.498  0.00  0.00    +0.000 C 
ATOM     29  C   UNL     1       3.984   3.145  11.301  0.00  0.00    +0.000 C 
ENDBRANCH  26  28
ENDBRANCH  24  26
ENDBRANCH  23  24
ENDBRANCH  22  23
ENDBRANCH   1  22
TORSDOF 8
ENDMDL
MODEL 2
REMARK VINA RESULT:      -7.7      2.783      3.851
REMARK  Name = 
REMARK  10 active torsions:
REMARK  status: ('A' for Active; 'I' for Inactive)
REMARK    1  A    between atoms: C_1  and  C_2
REMARK    2  A    between atoms: C_2  and  C_3
REMARK    3  A    between atoms: C_2  and  C_4
REMARK    4  A    between atoms: C_4  and  C_5
REMARK    5  A    between atoms: C_5  and  O_7
REMARK    6  A    between atoms: O_7  and  C_8
REMARK    7  A    between atoms: C_8  and  C_9
REMARK    8  A    between atoms: C_11  and  N_12
REMARK    9  A    between atoms: C_22  and  O_23
REMARK   10  A    between atoms: C_24  and  O_25
REMARK                            x       y       z     vdW  Elec       q    Type
REMARK                         _______ _______ _______ _____ _____    ______ ____
ROOT
ATOM      1  C   UNL     1       5.267   4.047  18.639  0.00  0.00    +0.000 C 
ATOM      2  O   UNL     1       5.020   5.182  19.502  0.00  0.00    +0.000 OA
ATOM      3  C   UNL     1       3.593   5.304  19.723  0.00  0.00    +0.000 C 
ATOM      4  C   UNL     1       2.979   3.989  19.221  0.00  0.00    +0.000 C 
ATOM      5  C   UNL     1       3.914   3.607  18.079  0.00  0.00    +0.000 C 
ENDROOT
BRANCH   3   6
ATOM      6  N   UNL     1       3.126   6.508  19.058  0.00  0.00    +0.000 N 
ATOM      7  C   UNL     1       3.487   6.965  17.819  0.00  0.00    +0.000 A 
ATOM      8  N   UNL     1       2.851   8.063  17.484  0.00  0.00    +0.000 NA
ATOM      9  C   UNL     1       2.084   8.368  18.584  0.00  0.00    +0.000 A 
ATOM     10  C   UNL     1       1.211   9.431  18.853  0.00  0.00    +0.000 A 
ATOM     11  N   UNL     1       0.945  10.436  17.931  0.00  0.00    +0.000 N 
ATOM     12  N   UNL     1       0.620   9.487  20.067  0.00  0.00    +0.000 NA
ATOM     13  C   UNL     1       0.878   8.497  20.949  0.00  0.00    +0.000 A 
ATOM     14  N   UNL     1       1.680   7.419  20.798  0.00  0.00    +0.000 NA
ATOM     15  C   UNL     1       2.256   7.424  19.585  0.00  0.00    +0.000 A 
ATOM     16  H   UNL     1       1.658  10.516  17.213  0.00  0.00    +0.000 HD
ATOM     17  H   UNL     1       0.627  11.287  18.371  0.00  0.00    +0.000 HD
ENDBRANCH   3   6
BRANCH   4  18
ATOM     18  O   UNL     1       1.609   4.010  18.857  0.00  0.00    +0.000 OA
ATOM     19  H   UNL     1       1.057   4.173  19.643  0.00  0.00    +0.000 HD
ENDBRANCH   4  18
BRANCH   5  20
ATOM     20  O   UNL     1       3.877   2.222  17.756  0.00  0.00    +0.000 OA
ATOM     21  H   UNL     1       3.239   2.073  17.037  0.00  0.00    +0.000 HD
ENDBRANCH   5  20
BRANCH   1  22
ATOM     22  C   UNL     1       6.279   4.432  17.552  0.00  0.00    +0.000 C 
BRANCH  22  23
ATOM     23  O   UNL     1       5.919   3.921  16.268  0.00  0.00    +0.000 OA
BRANCH  23  24
ATOM     24  C   UNL     1       6.557   4.505  15.218  0.00  0.00    +0.000 C 
ATOM     25  O   UNL     1       7.692   4.963  15.259  0.00  0.00    +0.000 OA
BRANCH  24  26
ATOM     26  C   UNL     1       5.657   4.510  14.009  0.00  0.00    +0.000 C 
BRANCH  26  28
ATOM     27  C   UNL     1       5.057   3.077  12.005  0.00  0.00    +0.000 C 
ATOM     28  C   UNL     1       6.189   3.597  12.896  0.00  0.00    +0.000 C 
ATOM     29  C   UNL     1       7.212   4.351  12.047  0.00  0.00    +0.000 C 
ENDBRANCH  26  28
ENDBRANCH  24  26
ENDBRANCH  23  24
ENDBRANCH  22  23
ENDBRANCH   1  22
TORSDOF 8
ENDMDL
MODEL 3
REMARK VINA RESULT:      -7.6      0.994      1.020
REMARK  Name = 
REMARK  10 active torsions:
REMARK  status: ('A' for Active; 'I' for Inactive)
REMARK    1  A    between atoms: C_1  and  C_2
REMARK    2  A    between atoms: C_2  and  C_3
REMARK    3  A    between atoms: C_2  and  C_4
REMARK    4  A    between atoms: C_4  and  C_5
REMARK    5  A    between atoms: C_5  and  O_7
REMARK    6  A    between atoms: O_7  and  C_8
REMARK    7  A    between atoms: C_8  and  C_9
REMARK    8  A    between atoms: C_11  and  N_12
REMARK    9  A    between atoms: C_22  and  O_23
REMARK   10  A    between atoms: C_24  and  O_25
REMARK                            x       y       z     vdW  Elec       q    Type
REMARK                         _______ _______ _______ _____ _____    ______ ____
ROOT
ATOM      1  C   UNL     1       6.062   6.436  16.864  0.00  0.00    +0.000 C 
ATOM      2  O   UNL     1       4.707   6.669  17.311  0.00  0.00    +0.000 OA
ATOM      3  C   UNL     1       4.498   5.973  18.566  0.00  0.00    +0.000 C 
ATOM      4  C   UNL     1       5.895   5.559  19.050  0.00  0.00    +0.000 C 
ATOM      5  C   UNL     1       6.638   5.323  17.741  0.00  0.00    +0.000 C 
ENDROOT
BRANCH   3   6
ATOM      6  N   UNL     1       3.565   4.884  18.337  0.00  0.00    +0.000 N 
ATOM      7  C   UNL     1       3.246   4.301  17.139  0.00  0.00    +0.000 A 
ATOM      8  N   UNL     1       2.400   3.307  17.274  0.00  0.00    +0.000 NA
ATOM      9  C   UNL     1       2.108   3.281  18.618  0.00  0.00    +0.000 A 
ATOM     10  C   UNL     1       1.252   2.469  19.376  0.00  0.00    +0.000 A 
ATOM     11  N   UNL     1       0.505   1.440  18.818  0.00  0.00    +0.000 N 
ATOM     12  N   UNL     1       1.139   2.714  20.700  0.00  0.00    +0.000 NA
ATOM     13  C   UNL     1       1.881   3.711  21.231  0.00  0.00    +0.000 A 
ATOM     14  N   UNL     1       2.748   4.541  20.609  0.00  0.00    +0.000 NA
ATOM     15  C   UNL     1       2.807   4.268  19.297  0.00  0.00    +0.000 A 
ATOM     16  H   UNL     1       0.378   1.538  17.815  0.00  0.00    +0.000 HD
ATOM     17  H   UNL     1      -0.307   1.211  19.373  0.00  0.00    +0.000 HD
ENDBRANCH   3   6
BRANCH   4  18
ATOM     18  O   UNL     1       5.971   4.470  19.956  0.00  0.00    +0.000 OA
ATOM     19  H   UNL     1       5.930   4.796  20.874  0.00  0.00    +0.000 HD
ENDBRANCH   4  18
BRANCH   5  20
ATOM     20  O   UNL     1       8.053   5.402  17.871  0.00  0.00    +0.000 OA
ATOM     21  H   UNL     1       8.399   6.064  17.246  0.00  0.00    +0.000 HD
ENDBRANCH   5  20
BRANCH   1  22
ATOM     22  C   UNL     1       6.064   6.093  15.369  0.00  0.00    +0.000 C 
BRANCH  22  23
ATOM     23  O   UNL     1       7.175   5.277  14.998  0.00  0.00    +0.000 OA
BRANCH  23  24
ATOM     24  C   UNL     1       7.198   4.898  13.691  0.00  0.00    +0.000 C 
ATOM     25  O   UNL     1       7.889   5.421  12.826  0.00  0.00    +0.000 OA
BRANCH  24  26
ATOM     26  C   UNL     1       6.246   3.751  13.472  0.00  0.00    +0.000 C 
BRANCH  26  28
ATOM     27  C   UNL     1       6.791   2.196  11.544  0.00  0.00    +0.000 C 
ATOM     28  C   UNL     1       6.038   3.456  11.981  0.00  0.00    +0.000 C 
ATOM     29  C   UNL     1       4.547   3.299  11.681  0.00  0.00    +0.000 C 
ENDBRANCH  26  28
ENDBRANCH  24  26
ENDBRANCH  23  24
ENDBRANCH  22  23
ENDBRANCH   1  22
TORSDOF 8
ENDMDL
MODEL 4
REMARK VINA RESULT:      -7.5      1.168      1.541
REMARK  Name = 
REMARK  10 active torsions:
REMARK  status: ('A' for Active; 'I' for Inactive)
REMARK    1  A    between atoms: C_1  and  C_2
REMARK    2  A    between atoms: C_2  and  C_3
REMARK    3  A    between atoms: C_2  and  C_4
REMARK    4  A    between atoms: C_4  and  C_5
REMARK    5  A    between atoms: C_5  and  O_7
REMARK    6  A    between atoms: O_7  and  C_8
REMARK    7  A    between atoms: C_8  and  C_9
REMARK    8  A    between atoms: C_11  and  N_12
REMARK    9  A    between atoms: C_22  and  O_23
REMARK   10  A    between atoms: C_24  and  O_25
REMARK                            x       y       z     vdW  Elec       q    Type
REMARK                         _______ _______ _______ _____ _____    ______ ____
ROOT
ATOM      1  C   UNL     1       5.655   6.599  16.552  0.00  0.00    +0.000 C 
ATOM      2  O   UNL     1       4.326   6.739  17.105  0.00  0.00    +0.000 OA
ATOM      3  C   UNL     1       4.279   6.072  18.391  0.00  0.00    +0.000 C 
ATOM      4  C   UNL     1       5.741   5.787  18.767  0.00  0.00    +0.000 C 
ATOM      5  C   UNL     1       6.391   5.566  17.407  0.00  0.00    +0.000 C 
ENDROOT
BRANCH   3   6
ATOM      6  N   UNL     1       3.424   4.904  18.272  0.00  0.00    +0.000 N 
ATOM      7  C   UNL     1       3.080   4.240  17.125  0.00  0.00    +0.000 A 
ATOM      8  N   UNL     1       2.325   3.192  17.358  0.00  0.00    +0.000 NA
ATOM      9  C   UNL     1       2.118   3.211  18.718  0.00  0.00    +0.000 A 
ATOM     10  C   UNL     1       1.375   2.376  19.565  0.00  0.00    +0.000 A 
ATOM     11  N   UNL     1       0.679   1.266  19.103  0.00  0.00    +0.000 N 
ATOM     12  N   UNL     1       1.322   2.678  20.881  0.00  0.00    +0.000 NA
ATOM     13  C   UNL     1       2.013   3.754  21.318  0.00  0.00    +0.000 A 
ATOM     14  N   UNL     1       2.773   4.615  20.605  0.00  0.00    +0.000 NA
ATOM     15  C   UNL     1       2.775   4.282  19.305  0.00  0.00    +0.000 A 
ATOM     16  H   UNL     1       0.485   1.304  18.107  0.00  0.00    +0.000 HD
ATOM     17  H   UNL     1      -0.078   1.004  19.718  0.00  0.00    +0.000 HD
ENDBRANCH   3   6
BRANCH   4  18
ATOM     18  O   UNL     1       5.980   4.739  19.693  0.00  0.00    +0.000 OA
ATOM     19  H   UNL     1       6.076   3.892  19.222  0.00  0.00    +0.000 HD
ENDBRANCH   4  18
BRANCH   5  20
ATOM     20  O   UNL     1       7.800   5.762  17.414  0.00  0.00    +0.000 OA
ATOM     21  H   UNL     1       8.036   6.396  18.113  0.00  0.00    +0.000 HD
ENDBRANCH   5  20
BRANCH   1  22
ATOM     22  C   UNL     1       5.562   6.207  15.071  0.00  0.00    +0.000 C 
BRANCH  22  23
ATOM     23  O   UNL     1       6.673   5.417  14.646  0.00  0.00    +0.000 OA
BRANCH  23  24
ATOM     24  C   UNL     1       6.361   4.152  14.254  0.00  0.00    +0.000 C 
ATOM     25  O   UNL     1       6.020   3.253  15.011  0.00  0.00    +0.000 OA
BRANCH  24  26
ATOM     26  C   UNL     1       6.507   4.027  12.759  0.00  0.00    +0.000 C 
BRANCH  26  28
ATOM     27  C   UNL     1       4.461   3.303  11.449  0.00  0.00    +0.000 C 
ATOM     28  C   UNL     1       5.710   2.840  12.204  0.00  0.00    +0.000 C 
ATOM     29  C   UNL     1       6.594   2.003  11.279  0.00  0.00    +0.000 C 
ENDBRANCH  26  28
ENDBRANCH  24  26
ENDBRANCH  23  24
ENDBRANCH  22  23
ENDBRANCH   1  22
TORSDOF 8
ENDMDL
MODEL 5
REMARK VINA RESULT:      -7.4      2.960      5.070
REMARK  Name = 
REMARK  10 active torsions:
REMARK  status: ('A' for Active; 'I' for Inactive)
REMARK    1  A    between atoms: C_1  and  C_2
REMARK    2  A    between atoms: C_2  and  C_3
REMARK    3  A    between atoms: C_2  and  C_4
REMARK    4  A    between atoms: C_4  and  C_5
REMARK    5  A    between atoms: C_5  and  O_7
REMARK    6  A    between atoms: O_7  and  C_8
REMARK    7  A    between atoms: C_8  and  C_9
REMARK    8  A    between atoms: C_11  and  N_12
REMARK    9  A    between atoms: C_22  and  O_23
REMARK   10  A    between atoms: C_24  and  O_25
REMARK                            x       y       z     vdW  Elec       q    Type
REMARK                         _______ _______ _______ _____ _____    ______ ____
ROOT
ATOM      1  C   UNL     1       4.120   3.552  18.234  0.00  0.00    +0.000 C 
ATOM      2  O   UNL     1       4.469   4.720  19.012  0.00  0.00    +0.000 OA
ATOM      3  C   UNL     1       3.293   5.181  19.723  0.00  0.00    +0.000 C 
ATOM      4  C   UNL     1       2.264   4.046  19.608  0.00  0.00    +0.000 C 
ATOM      5  C   UNL     1       2.594   3.443  18.248  0.00  0.00    +0.000 C 
ENDROOT
BRANCH   3   6
ATOM      6  N   UNL     1       2.886   6.456  19.159  0.00  0.00    +0.000 N 
ATOM      7  C   UNL     1       3.258   6.988  17.953  0.00  0.00    +0.000 A 
ATOM      8  N   UNL     1       2.680   8.141  17.713  0.00  0.00    +0.000 NA
ATOM      9  C   UNL     1       1.942   8.400  18.844  0.00  0.00    +0.000 A 
ATOM     10  C   UNL     1       1.131   9.485  19.206  0.00  0.00    +0.000 A 
ATOM     11  N   UNL     1       0.911  10.571  18.368  0.00  0.00    +0.000 N 
ATOM     12  N   UNL     1       0.556   9.478  20.429  0.00  0.00    +0.000 NA
ATOM     13  C   UNL     1       0.769   8.411  21.229  0.00  0.00    +0.000 A 
ATOM     14  N   UNL     1       1.509   7.307  20.984  0.00  0.00    +0.000 NA
ATOM     15  C   UNL     1       2.072   7.374  19.768  0.00  0.00    +0.000 A 
ATOM     16  H   UNL     1       1.620  10.667  17.648  0.00  0.00    +0.000 HD
ATOM     17  H   UNL     1       0.644  11.401  18.877  0.00  0.00    +0.000 HD
ENDBRANCH   3   6
BRANCH   4  18
ATOM     18  O   UNL     1       0.898   4.392  19.766  0.00  0.00    +0.000 OA
ATOM     19  H   UNL     1       0.551   4.016  20.595  0.00  0.00    +0.000 HD
ENDBRANCH   4  18
BRANCH   5  20
ATOM     20  O   UNL     1       2.138   2.104  18.097  0.00  0.00    +0.000 OA
ATOM     21  H   UNL     1       2.637   1.670  17.383  0.00  0.00    +0.000 HD
ENDBRANCH   5  20
BRANCH   1  22
ATOM     22  C   UNL     1       4.707   3.675  16.822  0.00  0.00    +0.000 C 
BRANCH  22  23
ATOM     23  O   UNL     1       4.971   5.029  16.457  0.00  0.00    +0.000 OA
BRANCH  23  24
ATOM     24  C   UNL     1       6.202   5.249  15.922  0.00  0.00    +0.000 C 
ATOM     25  O   UNL     1       6.413   5.525  14.748  0.00  0.00    +0.000 OA
BRANCH  24  26
ATOM     26  C   UNL     1       7.259   5.096  16.986  0.00  0.00    +0.000 C 
BRANCH  26  28
ATOM     27  C   UNL     1       7.917   5.802  19.331  0.00  0.00    +0.000 C 
ATOM     28  C   UNL     1       7.151   6.185  18.061  0.00  0.00    +0.000 C 
ATOM     29  C   UNL     1       7.680   7.512  17.517  0.00  0.00    +0.000 C 
ENDBRANCH  26  28
ENDBRANCH  24  26
ENDBRANCH  23  24
ENDBRANCH  22  23
ENDBRANCH   1  22
TORSDOF 8
ENDMDL
MODEL 6
REMARK VINA RESULT:      -7.4      3.559      7.544
REMARK  Name = 
REMARK  10 active torsions:
REMARK  status: ('A' for Active; 'I' for Inactive)
REMARK    1  A    between atoms: C_1  and  C_2
REMARK    2  A    between atoms: C_2  and  C_3
REMARK    3  A    between atoms: C_2  and  C_4
REMARK    4  A    between atoms: C_4  and  C_5
REMARK    5  A    between atoms: C_5  and  O_7
REMARK    6  A    between atoms: O_7  and  C_8
REMARK    7  A    between atoms: C_8  and  C_9
REMARK    8  A    between atoms: C_11  and  N_12
REMARK    9  A    between atoms: C_22  and  O_23
REMARK   10  A    between atoms: C_24  and  O_25
REMARK                            x       y       z     vdW  Elec       q    Type
REMARK                         _______ _______ _______ _____ _____    ______ ____
ROOT
ATOM      1  C   UNL     1       1.836   3.352  19.757  0.00  0.00    +0.000 C 
ATOM      2  O   UNL     1       2.436   3.498  18.449  0.00  0.00    +0.000 OA
ATOM      3  C   UNL     1       3.791   2.986  18.493  0.00  0.00    +0.000 C 
ATOM      4  C   UNL     1       3.901   2.209  19.813  0.00  0.00    +0.000 C 
ATOM      5  C   UNL     1       2.959   2.983  20.727  0.00  0.00    +0.000 C 
ENDROOT
BRANCH   3   6
ATOM      6  N   UNL     1       4.708   4.102  18.344  0.00  0.00    +0.000 N 
ATOM      7  C   UNL     1       4.982   5.080  19.263  0.00  0.00    +0.000 A 
ATOM      8  N   UNL     1       5.895   5.923  18.840  0.00  0.00    +0.000 NA
ATOM      9  C   UNL     1       6.184   5.509  17.561  0.00  0.00    +0.000 A 
ATOM     10  C   UNL     1       7.054   6.017  16.585  0.00  0.00    +0.000 A 
ATOM     11  N   UNL     1       7.859   7.128  16.802  0.00  0.00    +0.000 N 
ATOM     12  N   UNL     1       7.092   5.408  15.380  0.00  0.00    +0.000 NA
ATOM     13  C   UNL     1       6.312   4.322  15.187  0.00  0.00    +0.000 A 
ATOM     14  N   UNL     1       5.455   3.734  16.051  0.00  0.00    +0.000 NA
ATOM     15  C   UNL     1       5.441   4.388  17.223  0.00  0.00    +0.000 A 
ATOM     16  H   UNL     1       7.533   7.713  17.566  0.00  0.00    +0.000 HD
ATOM     17  H   UNL     1       8.123   7.585  15.942  0.00  0.00    +0.000 HD
ENDBRANCH   3   6
BRANCH   4  18
ATOM     18  O   UNL     1       5.200   2.026  20.351  0.00  0.00    +0.000 OA
ATOM     19  H   UNL     1       5.544   1.148  20.105  0.00  0.00    +0.000 HD
ENDBRANCH   4  18
BRANCH   5  20
ATOM     20  O   UNL     1       2.498   2.224  21.838  0.00  0.00    +0.000 OA
ATOM     21  H   UNL     1       3.013   1.400  21.905  0.00  0.00    +0.000 HD
ENDBRANCH   5  20
BRANCH   1  22
ATOM     22  C   UNL     1       1.103   4.644  20.139  0.00  0.00    +0.000 C 
BRANCH  22  23
ATOM     23  O   UNL     1       1.968   5.600  20.753  0.00  0.00    +0.000 OA
BRANCH  23  24
ATOM     24  C   UNL     1       2.001   6.817  20.147  0.00  0.00    +0.000 C 
ATOM     25  O   UNL     1       2.200   6.995  18.952  0.00  0.00    +0.000 OA
BRANCH  24  26
ATOM     26  C   UNL     1       1.766   7.904  21.164  0.00  0.00    +0.000 C 
BRANCH  26  28
ATOM     27  C   UNL     1      -0.510   8.582  22.054  0.00  0.00    +0.000 C 
ATOM     28  C   UNL     1       0.473   8.680  20.883  0.00  0.00    +0.000 C 
ATOM     29  C   UNL     1       0.795  10.148  20.600  0.00  0.00    +0.000 C 
ENDBRANCH  26  28
ENDBRANCH  24  26
ENDBRANCH  23  24
ENDBRANCH  22  23
ENDBRANCH   1  22
TORSDOF 8
ENDMDL
MODEL 7
REMARK VINA RESULT:      -7.4      1.151      1.956
REMARK  Name = 
REMARK  10 active torsions:
REMARK  status: ('A' for Active; 'I' for Inactive)
REMARK    1  A    between atoms: C_1  and  C_2
REMARK    2  A    between atoms: C_2  and  C_3
REMARK    3  A    between atoms: C_2  and  C_4
REMARK    4  A    between atoms: C_4  and  C_5
REMARK    5  A    between atoms: C_5  and  O_7
REMARK    6  A    between atoms: O_7  and  C_8
REMARK    7  A    between atoms: C_8  and  C_9
REMARK    8  A    between atoms: C_11  and  N_12
REMARK    9  A    between atoms: C_22  and  O_23
REMARK   10  A    between atoms: C_24  and  O_25
REMARK                            x       y       z     vdW  Elec       q    Type
REMARK                         _______ _______ _______ _____ _____    ______ ____
ROOT
ATOM      1  C   UNL     1       5.951   5.477  16.149  0.00  0.00    +0.000 C 
ATOM      2  O   UNL     1       4.996   6.390  16.738  0.00  0.00    +0.000 OA
ATOM      3  C   UNL     1       5.142   6.358  18.180  0.00  0.00    +0.000 C 
ATOM      4  C   UNL     1       6.462   5.622  18.449  0.00  0.00    +0.000 C 
ATOM      5  C   UNL     1       6.530   4.638  17.288  0.00  0.00    +0.000 C 
ENDROOT
BRANCH   3   6
ATOM      6  N   UNL     1       3.954   5.744  18.748  0.00  0.00    +0.000 N 
ATOM      7  C   UNL     1       2.966   6.359  19.470  0.00  0.00    +0.000 A 
ATOM      8  N   UNL     1       2.002   5.534  19.804  0.00  0.00    +0.000 NA
ATOM      9  C   UNL     1       2.412   4.310  19.328  0.00  0.00    +0.000 A 
ATOM     10  C   UNL     1       1.832   3.035  19.395  0.00  0.00    +0.000 A 
ATOM     11  N   UNL     1       0.606   2.800  20.003  0.00  0.00    +0.000 N 
ATOM     12  N   UNL     1       2.507   1.994  18.860  0.00  0.00    +0.000 NA
ATOM     13  C   UNL     1       3.693   2.239  18.262  0.00  0.00    +0.000 A 
ATOM     14  N   UNL     1       4.338   3.419  18.121  0.00  0.00    +0.000 NA
ATOM     15  C   UNL     1       3.636   4.414  18.684  0.00  0.00    +0.000 A 
ATOM     16  H   UNL     1       0.339   3.529  20.657  0.00  0.00    +0.000 HD
ATOM     17  H   UNL     1       0.503   1.841  20.303  0.00  0.00    +0.000 HD
ENDBRANCH   3   6
BRANCH   4  18
ATOM     18  O   UNL     1       6.619   5.018  19.723  0.00  0.00    +0.000 OA
ATOM     19  H   UNL     1       7.070   4.159  19.633  0.00  0.00    +0.000 HD
ENDBRANCH   4  18
BRANCH   5  20
ATOM     20  O   UNL     1       7.848   4.175  17.015  0.00  0.00    +0.000 OA
ATOM     21  H   UNL     1       8.467   4.559  17.660  0.00  0.00    +0.000 HD
ENDBRANCH   5  20
BRANCH   1  22
ATOM     22  C   UNL     1       5.265   4.637  15.064  0.00  0.00    +0.000 C 
BRANCH  22  23
ATOM     23  O   UNL     1       6.179   3.782  14.377  0.00  0.00    +0.000 OA
BRANCH  23  24
ATOM     24  C   UNL     1       7.027   4.415  13.523  0.00  0.00    +0.000 C 
ATOM     25  O   UNL     1       7.866   5.242  13.859  0.00  0.00    +0.000 OA
BRANCH  24  26
ATOM     26  C   UNL     1       6.774   3.953  12.111  0.00  0.00    +0.000 C 
BRANCH  26  28
ATOM     27  C   UNL     1       4.432   3.244  11.445  0.00  0.00    +0.000 C 
ATOM     28  C   UNL     1       5.763   2.800  12.058  0.00  0.00    +0.000 C 
ATOM     29  C   UNL     1       6.341   1.635  11.255  0.00  0.00    +0.000 C 
ENDBRANCH  26  28
ENDBRANCH  24  26
ENDBRANCH  23  24
ENDBRANCH  22  23
ENDBRANCH   1  22
TORSDOF 8
ENDMDL
MODEL 8
REMARK VINA RESULT:      -7.3      2.974      4.145
REMARK  Name = 
REMARK  10 active torsions:
REMARK  status: ('A' for Active; 'I' for Inactive)
REMARK    1  A    between atoms: C_1  and  C_2
REMARK    2  A    between atoms: C_2  and  C_3
REMARK    3  A    between atoms: C_2  and  C_4
REMARK    4  A    between atoms: C_4  and  C_5
REMARK    5  A    between atoms: C_5  and  O_7
REMARK    6  A    between atoms: O_7  and  C_8
REMARK    7  A    between atoms: C_8  and  C_9
REMARK    8  A    between atoms: C_11  and  N_12
REMARK    9  A    between atoms: C_22  and  O_23
REMARK   10  A    between atoms: C_24  and  O_25
REMARK                            x       y       z     vdW  Elec       q    Type
REMARK                         _______ _______ _______ _____ _____    ______ ____
ROOT
ATOM      1  C   UNL     1       4.802   4.148  18.796  0.00  0.00    +0.000 C 
ATOM      2  O   UNL     1       4.691   5.338  19.610  0.00  0.00    +0.000 OA
ATOM      3  C   UNL     1       3.297   5.551  19.947  0.00  0.00    +0.000 C 
ATOM      4  C   UNL     1       2.575   4.247  19.577  0.00  0.00    +0.000 C 
ATOM      5  C   UNL     1       3.383   3.755  18.382  0.00  0.00    +0.000 C 
ENDROOT
BRANCH   3   6
ATOM      6  N   UNL     1       2.834   6.742  19.258  0.00  0.00    +0.000 N 
ATOM      7  C   UNL     1       3.181   7.162  18.001  0.00  0.00    +0.000 A 
ATOM      8  N   UNL     1       2.553   8.258  17.647  0.00  0.00    +0.000 NA
ATOM      9  C   UNL     1       1.806   8.601  18.750  0.00  0.00    +0.000 A 
ATOM     10  C   UNL     1       0.949   9.682  19.003  0.00  0.00    +0.000 A 
ATOM     11  N   UNL     1       0.681  10.665  18.059  0.00  0.00    +0.000 N 
ATOM     12  N   UNL     1       0.377   9.775  20.224  0.00  0.00    +0.000 NA
ATOM     13  C   UNL     1       0.637   8.806  21.129  0.00  0.00    +0.000 A 
ATOM     14  N   UNL     1       1.425   7.716  20.994  0.00  0.00    +0.000 NA
ATOM     15  C   UNL     1       1.982   7.682  19.773  0.00  0.00    +0.000 A 
ATOM     16  H   UNL     1       1.384  10.717  17.329  0.00  0.00    +0.000 HD
ATOM     17  H   UNL     1       0.379  11.530  18.482  0.00  0.00    +0.000 HD
ENDBRANCH   3   6
BRANCH   4  18
ATOM     18  O   UNL     1       1.180   4.325  19.332  0.00  0.00    +0.000 OA
ATOM     19  H   UNL     1       0.796   3.431  19.299  0.00  0.00    +0.000 HD
ENDBRANCH   4  18
BRANCH   5  20
ATOM     20  O   UNL     1       3.248   2.359  18.143  0.00  0.00    +0.000 OA
ATOM     21  H   UNL     1       2.994   1.911  18.969  0.00  0.00    +0.000 HD
ENDBRANCH   5  20
BRANCH   1  22
ATOM     22  C   UNL     1       5.730   4.418  17.605  0.00  0.00    +0.000 C 
BRANCH  22  23
ATOM     23  O   UNL     1       5.099   4.157  16.352  0.00  0.00    +0.000 OA
BRANCH  23  24
ATOM     24  C   UNL     1       5.644   4.805  15.288  0.00  0.00    +0.000 C 
ATOM     25  O   UNL     1       5.582   6.013  15.101  0.00  0.00    +0.000 OA
BRANCH  24  26
ATOM     26  C   UNL     1       6.324   3.815  14.377  0.00  0.00    +0.000 C 
BRANCH  26  28
ATOM     27  C   UNL     1       7.502   4.796  12.356  0.00  0.00    +0.000 C 
ATOM     28  C   UNL     1       6.195   4.212  12.901  0.00  0.00    +0.000 C 
ATOM     29  C   UNL     1       5.783   2.999  12.067  0.00  0.00    +0.000 C 
ENDBRANCH  26  28
ENDBRANCH  24  26
ENDBRANCH  23  24
ENDBRANCH  22  23
ENDBRANCH   1  22
TORSDOF 8
ENDMDL
MODEL 9
REMARK VINA RESULT:      -7.3      3.744      5.456
REMARK  Name = 
REMARK  10 active torsions:
REMARK  status: ('A' for Active; 'I' for Inactive)
REMARK    1  A    between atoms: C_1  and  C_2
REMARK    2  A    between atoms: C_2  and  C_3
REMARK    3  A    between atoms: C_2  and  C_4
REMARK    4  A    between atoms: C_4  and  C_5
REMARK    5  A    between atoms: C_5  and  O_7
REMARK    6  A    between atoms: O_7  and  C_8
REMARK    7  A    between atoms: C_8  and  C_9
REMARK    8  A    between atoms: C_11  and  N_12
REMARK    9  A    between atoms: C_22  and  O_23
REMARK   10  A    between atoms: C_24  and  O_25
REMARK                            x       y       z     vdW  Elec       q    Type
REMARK                         _______ _______ _______ _____ _____    ______ ____
ROOT
ATOM      1  C   UNL     1       4.370   3.594  19.308  0.00  0.00    +0.000 C 
ATOM      2  O   UNL     1       4.154   4.771  20.120  0.00  0.00    +0.000 OA
ATOM      3  C   UNL     1       2.737   5.076  20.140  0.00  0.00    +0.000 C 
ATOM      4  C   UNL     1       2.035   3.836  19.567  0.00  0.00    +0.000 C 
ATOM      5  C   UNL     1       3.061   3.313  18.569  0.00  0.00    +0.000 C 
ENDROOT
BRANCH   3   6
ATOM      6  N   UNL     1       2.523   6.312  19.409  0.00  0.00    +0.000 N 
ATOM      7  C   UNL     1       2.929   6.604  18.134  0.00  0.00    +0.000 A 
ATOM      8  N   UNL     1       2.539   7.794  17.743  0.00  0.00    +0.000 NA
ATOM      9  C   UNL     1       1.900   8.326  18.838  0.00  0.00    +0.000 A 
ATOM     10  C   UNL     1       1.295   9.572  19.057  0.00  0.00    +0.000 A 
ATOM     11  N   UNL     1       1.223  10.555  18.078  0.00  0.00    +0.000 N 
ATOM     12  N   UNL     1       0.776   9.829  20.278  0.00  0.00    +0.000 NA
ATOM     13  C   UNL     1       0.843   8.860  21.218  0.00  0.00    +0.000 A 
ATOM     14  N   UNL     1       1.381   7.624  21.118  0.00  0.00    +0.000 NA
ATOM     15  C   UNL     1       1.897   7.429  19.895  0.00  0.00    +0.000 A 
ATOM     16  H   UNL     1       1.909  10.431  17.339  0.00  0.00    +0.000 HD
ATOM     17  H   UNL     1       1.118  11.479  18.468  0.00  0.00    +0.000 HD
ENDBRANCH   3   6
BRANCH   4  18
ATOM     18  O   UNL     1       0.742   4.020  19.016  0.00  0.00    +0.000 OA
ATOM     19  H   UNL     1       0.569   4.969  18.878  0.00  0.00    +0.000 HD
ENDBRANCH   4  18
BRANCH   5  20
ATOM     20  O   UNL     1       2.893   1.936  18.253  0.00  0.00    +0.000 OA
ATOM     21  H   UNL     1       3.202   1.771  17.345  0.00  0.00    +0.000 HD
ENDBRANCH   5  20
BRANCH   1  22
ATOM     22  C   UNL     1       5.561   3.822  18.369  0.00  0.00    +0.000 C 
BRANCH  22  23
ATOM     23  O   UNL     1       6.653   4.471  19.021  0.00  0.00    +0.000 OA
BRANCH  23  24
ATOM     24  C   UNL     1       7.619   4.944  18.189  0.00  0.00    +0.000 C 
ATOM     25  O   UNL     1       8.129   4.305  17.277  0.00  0.00    +0.000 OA
BRANCH  24  26
ATOM     26  C   UNL     1       7.970   6.362  18.562  0.00  0.00    +0.000 C 
BRANCH  26  28
ATOM     27  C   UNL     1       6.171   7.284  17.031  0.00  0.00    +0.000 C 
ATOM     28  C   UNL     1       7.648   7.348  17.431  0.00  0.00    +0.000 C 
ATOM     29  C   UNL     1       8.007   8.770  17.860  0.00  0.00    +0.000 C 
ENDBRANCH  26  28
ENDBRANCH  24  26
ENDBRANCH  23  24
ENDBRANCH  22  23
ENDBRANCH   1  22
TORSDOF 8
ENDMDL
