MODEL 1
REMARK VINA RESULT:     -10.0      0.000      0.000
REMARK  Name = 
REMARK  7 active torsions:
REMARK  status: ('A' for Active; 'I' for Inactive)
REMARK    1  A    between atoms: C_1  and  O_2
REMARK    2  A    between atoms: O_2  and  C_3
REMARK    3  A    between atoms: C_9  and  C_10
REMARK    4  A    between atoms: C_10  and  N_11
REMARK    5  A    between atoms: C_15  and  N_16
REMARK    6  A    between atoms: C_17  and  C_19
REMARK    7  A    between atoms: C_25  and  C_26
REMARK                            x       y       z     vdW  Elec       q    Type
REMARK                         _______ _______ _______ _____ _____    ______ ____
ROOT
ATOM      1  N   UNL     1       1.067   7.412  21.299  0.00  0.00    +0.000 N 
ATOM      2  C   UNL     1       1.858   7.067  20.234  0.00  0.00    +0.000 C 
ATOM      3  O   UNL     1       2.453   7.881  19.534  0.00  0.00    +0.000 OA
ATOM      4  H   UNL     1       0.806   6.703  21.968  0.00  0.00    +0.000 HD
ENDROOT
BRANCH   2   5
ATOM      5  C   UNL     1       1.999   5.610  19.946  0.00  0.00    +0.000 A 
ATOM      6  C   UNL     1       1.137   4.648  20.480  0.00  0.00    +0.000 A 
ATOM      7  C   UNL     1       1.253   3.295  20.140  0.00  0.00    +0.000 A 
ATOM      8  C   UNL     1       2.264   2.956  19.235  0.00  0.00    +0.000 A 
ATOM      9  N   UNL     1       2.625   1.756  18.678  0.00  0.00    +0.000 N 
ATOM     10  N   UNL     1       3.679   1.832  17.850  0.00  0.00    +0.000 NA
ATOM     11  C   UNL     1       4.000   3.132  17.846  0.00  0.00    +0.000 A 
ATOM     12  C   UNL     1       3.143   3.883  18.690  0.00  0.00    +0.000 A 
ATOM     13  C   UNL     1       3.010   5.238  19.044  0.00  0.00    +0.000 A 
ATOM     14  H   UNL     1       2.195   0.851  18.823  0.00  0.00    +0.000 HD
BRANCH  11  15
ATOM     15  C   UNL     1       5.154   3.642  17.019  0.00  0.00    +0.000 C 
ATOM     16  C   UNL     1       6.166   4.416  17.874  0.00  0.00    +0.000 C 
ATOM     17  C   UNL     1       7.224   5.083  17.012  0.00  0.00    +0.000 C 
ATOM     18  O   UNL     1       6.626   5.902  16.007  0.00  0.00    +0.000 OA
ATOM     19  C   UNL     1       5.827   5.140  15.107  0.00  0.00    +0.000 C 
ATOM     20  C   UNL     1       4.663   4.486  15.835  0.00  0.00    +0.000 C 
ENDBRANCH  11  15
ENDBRANCH   2   5
BRANCH   1  25
ATOM     21  N   UNL     1       0.191  11.042  20.651  0.00  0.00    +0.000 NA
ATOM     22  C   UNL     1      -0.758  11.243  21.745  0.00  0.00    +0.000 C 
ATOM     23  C   UNL     1      -0.494  10.413  23.000  0.00  0.00    +0.000 C 
ATOM     24  C   UNL     1      -0.294   8.945  22.655  0.00  0.00    +0.000 C 
ATOM     25  C   UNL     1       0.874   8.810  21.680  0.00  0.00    +0.000 C 
ATOM     26  C   UNL     1       0.641   9.671  20.422  0.00  0.00    +0.000 C 
BRANCH  21  27
ATOM     27  C   UNL     1      -0.213  11.718  19.393  0.00  0.00    +0.000 C 
BRANCH  27  34
ATOM     28  C   UNL     1      -2.743  11.918  19.039  0.00  0.00    +0.000 A 
ATOM     29  C   UNL     1      -3.926  11.516  18.403  0.00  0.00    +0.000 A 
ATOM     30  C   UNL     1      -3.920  10.476  17.475  0.00  0.00    +0.000 A 
ATOM     31  C   UNL     1      -2.722   9.837  17.175  0.00  0.00    +0.000 A 
ATOM     32  C   UNL     1      -1.543  10.244  17.798  0.00  0.00    +0.000 A 
ATOM     33  F   UNL     1      -0.407   9.612  17.462  0.00  0.00    +0.000 F 
ATOM     34  C   UNL     1      -1.520  11.283  18.740  0.00  0.00    +0.000 A 
BRANCH  28  36
ATOM     35  C   UNL     1      -3.926  13.281  20.574  0.00  0.00    +0.000 C 
ATOM     36  O   UNL     1      -2.698  12.965  19.925  0.00  0.00    +0.000 OA
ENDBRANCH  28  36
ENDBRANCH  27  34
ENDBRANCH  21  27
ENDBRANCH   1  25
TORSDOF 6
ENDMDL
MODEL 2
REMARK VINA RESULT:      -9.5      0.805      1.069
REMARK  Name = 
REMARK  7 active torsions:
REMARK  status: ('A' for Active; 'I' for Inactive)
REMARK    1  A    between atoms: C_1  and  O_2
REMARK    2  A    between atoms: O_2  and  C_3
REMARK    3  A    between atoms: C_9  and  C_10
REMARK    4  A    between atoms: C_10  and  N_11
REMARK    5  A    between atoms: C_15  and  N_16
REMARK    6  A    between atoms: C_17  and  C_19
REMARK    7  A    between atoms: C_25  and  C_26
REMARK                            x       y       z     vdW  Elec       q    Type
REMARK                         _______ _______ _______ _____ _____    ______ ____
ROOT
ATOM      1  N   UNL     1       0.916   7.950  21.393  0.00  0.00    +0.000 N 
ATOM      2  C   UNL     1       1.676   7.697  20.282  0.00  0.00    +0.000 C 
ATOM      3  O   UNL     1       2.127   8.572  19.550  0.00  0.00    +0.000 OA
ATOM      4  H   UNL     1       0.781   7.217  22.075  0.00  0.00    +0.000 HD
ENDROOT
BRANCH   2   5
ATOM      5  C   UNL     1       1.971   6.265  19.981  0.00  0.00    +0.000 A 
ATOM      6  C   UNL     1       1.315   5.209  20.620  0.00  0.00    +0.000 A 
ATOM      7  C   UNL     1       1.565   3.876  20.270  0.00  0.00    +0.000 A 
ATOM      8  C   UNL     1       2.494   3.656  19.247  0.00  0.00    +0.000 A 
ATOM      9  N   UNL     1       2.939   2.504  18.653  0.00  0.00    +0.000 N 
ATOM     10  N   UNL     1       3.864   2.701  17.699  0.00  0.00    +0.000 NA
ATOM     11  C   UNL     1       4.008   4.032  17.654  0.00  0.00    +0.000 A 
ATOM     12  C   UNL     1       3.170   4.680  18.596  0.00  0.00    +0.000 A 
ATOM     13  C   UNL     1       2.905   6.012  18.962  0.00  0.00    +0.000 A 
ATOM     14  H   UNL     1       2.653   1.553  18.851  0.00  0.00    +0.000 HD
BRANCH  11  15
ATOM     15  C   UNL     1       4.974   4.673  16.689  0.00  0.00    +0.000 C 
ATOM     16  C   UNL     1       5.515   3.660  15.671  0.00  0.00    +0.000 C 
ATOM     17  C   UNL     1       6.623   4.264  14.825  0.00  0.00    +0.000 C 
ATOM     18  O   UNL     1       7.655   4.811  15.644  0.00  0.00    +0.000 OA
ATOM     19  C   UNL     1       7.177   5.876  16.461  0.00  0.00    +0.000 C 
ATOM     20  C   UNL     1       6.116   5.382  17.431  0.00  0.00    +0.000 C 
ENDBRANCH  11  15
ENDBRANCH   2   5
BRANCH   1  25
ATOM     21  N   UNL     1      -0.351  11.471  20.791  0.00  0.00    +0.000 NA
ATOM     22  C   UNL     1      -1.299  11.563  21.901  0.00  0.00    +0.000 C 
ATOM     23  C   UNL     1      -0.927  10.756  23.144  0.00  0.00    +0.000 C 
ATOM     24  C   UNL     1      -0.578   9.320  22.784  0.00  0.00    +0.000 C 
ATOM     25  C   UNL     1       0.581   9.317  21.790  0.00  0.00    +0.000 C 
ATOM     26  C   UNL     1       0.239  10.157  20.543  0.00  0.00    +0.000 C 
BRANCH  21  27
ATOM     27  C   UNL     1      -0.844  12.109  19.546  0.00  0.00    +0.000 C 
BRANCH  27  34
ATOM     28  C   UNL     1      -3.391  12.095  19.263  0.00  0.00    +0.000 A 
ATOM     29  C   UNL     1      -4.553  11.594  18.659  0.00  0.00    +0.000 A 
ATOM     30  C   UNL     1      -4.485  10.560  17.728  0.00  0.00    +0.000 A 
ATOM     31  C   UNL     1      -3.246  10.025  17.392  0.00  0.00    +0.000 A 
ATOM     32  C   UNL     1      -2.089  10.530  17.983  0.00  0.00    +0.000 A 
ATOM     33  F   UNL     1      -0.913   9.996  17.614  0.00  0.00    +0.000 F 
ATOM     34  C   UNL     1      -2.127  11.566  18.928  0.00  0.00    +0.000 A 
BRANCH  28  36
ATOM     35  C   UNL     1      -4.697  13.662  20.468  0.00  0.00    +0.000 C 
ATOM     36  O   UNL     1      -3.410  13.140  20.151  0.00  0.00    +0.000 OA
ENDBRANCH  28  36
ENDBRANCH  27  34
ENDBRANCH  21  27
ENDBRANCH   1  25
TORSDOF 6
ENDMDL
MODEL 3
REMARK VINA RESULT:      -9.4      1.760      2.625
REMARK  Name = 
REMARK  7 active torsions:
REMARK  status: ('A' for Active; 'I' for Inactive)
REMARK    1  A    between atoms: C_1  and  O_2
REMARK    2  A    between atoms: O_2  and  C_3
REMARK    3  A    between atoms: C_9  and  C_10
REMARK    4  A    between atoms: C_10  and  N_11
REMARK    5  A    between atoms: C_15  and  N_16
REMARK    6  A    between atoms: C_17  and  C_19
REMARK    7  A    between atoms: C_25  and  C_26
REMARK                            x       y       z     vdW  Elec       q    Type
REMARK                         _______ _______ _______ _____ _____    ______ ____
ROOT
ATOM      1  N   UNL     1       1.095   7.450  21.267  0.00  0.00    +0.000 N 
ATOM      2  C   UNL     1       1.875   7.095  20.197  0.00  0.00    +0.000 C 
ATOM      3  O   UNL     1       2.461   7.903  19.483  0.00  0.00    +0.000 OA
ATOM      4  H   UNL     1       0.842   6.746  21.946  0.00  0.00    +0.000 HD
ENDROOT
BRANCH   2   5
ATOM      5  C   UNL     1       2.014   5.636  19.921  0.00  0.00    +0.000 A 
ATOM      6  C   UNL     1       1.158   4.678  20.472  0.00  0.00    +0.000 A 
ATOM      7  C   UNL     1       1.272   3.322  20.143  0.00  0.00    +0.000 A 
ATOM      8  C   UNL     1       2.276   2.975  19.232  0.00  0.00    +0.000 A 
ATOM      9  N   UNL     1       2.633   1.771  18.684  0.00  0.00    +0.000 N 
ATOM     10  N   UNL     1       3.680   1.840  17.845  0.00  0.00    +0.000 NA
ATOM     11  C   UNL     1       3.999   3.141  17.827  0.00  0.00    +0.000 A 
ATOM     12  C   UNL     1       3.149   3.898  18.672  0.00  0.00    +0.000 A 
ATOM     13  C   UNL     1       3.018   5.256  19.014  0.00  0.00    +0.000 A 
ATOM     14  H   UNL     1       2.205   0.866  18.840  0.00  0.00    +0.000 HD
BRANCH  11  15
ATOM     15  C   UNL     1       5.146   3.644  16.985  0.00  0.00    +0.000 C 
ATOM     16  C   UNL     1       6.177   4.403  17.829  0.00  0.00    +0.000 C 
ATOM     17  C   UNL     1       7.229   5.065  16.954  0.00  0.00    +0.000 C 
ATOM     18  O   UNL     1       6.624   5.894  15.963  0.00  0.00    +0.000 OA
ATOM     19  C   UNL     1       5.804   5.145  15.070  0.00  0.00    +0.000 C 
ATOM     20  C   UNL     1       4.645   4.498  15.813  0.00  0.00    +0.000 C 
ENDBRANCH  11  15
ENDBRANCH   2   5
BRANCH   1  25
ATOM     21  N   UNL     1       0.347  11.099  20.567  0.00  0.00    +0.000 NA
ATOM     22  C   UNL     1      -0.676  11.319  21.588  0.00  0.00    +0.000 C 
ATOM     23  C   UNL     1      -0.522  10.481  22.857  0.00  0.00    +0.000 C 
ATOM     24  C   UNL     1      -0.329   9.010  22.524  0.00  0.00    +0.000 C 
ATOM     25  C   UNL     1       0.904   8.851  21.637  0.00  0.00    +0.000 C 
ATOM     26  C   UNL     1       0.783   9.718  20.368  0.00  0.00    +0.000 C 
BRANCH  21  27
ATOM     27  C   UNL     1       0.052  11.784  19.285  0.00  0.00    +0.000 C 
BRANCH  27  34
ATOM     28  C   UNL     1       0.352  14.328  19.201  0.00  0.00    +0.000 A 
ATOM     29  C   UNL     1       1.122  15.461  18.905  0.00  0.00    +0.000 A 
ATOM     30  C   UNL     1       2.392  15.334  18.344  0.00  0.00    +0.000 A 
ATOM     31  C   UNL     1       2.898  14.066  18.082  0.00  0.00    +0.000 A 
ATOM     32  C   UNL     1       2.137  12.938  18.387  0.00  0.00    +0.000 A 
ATOM     33  F   UNL     1       2.674  11.733  18.136  0.00  0.00    +0.000 F 
ATOM     34  C   UNL     1       0.854  13.035  18.946  0.00  0.00    +0.000 A 
BRANCH  28  36
ATOM     35  C   UNL     1      -1.271  15.701  20.249  0.00  0.00    +0.000 C 
ATOM     36  O   UNL     1      -0.883  14.408  19.793  0.00  0.00    +0.000 OA
ENDBRANCH  28  36
ENDBRANCH  27  34
ENDBRANCH  21  27
ENDBRANCH   1  25
TORSDOF 6
ENDMDL
MODEL 4
REMARK VINA RESULT:      -9.1      1.996      2.894
REMARK  Name = 
REMARK  7 active torsions:
REMARK  status: ('A' for Active; 'I' for Inactive)
REMARK    1  A    between atoms: C_1  and  O_2
REMARK    2  A    between atoms: O_2  and  C_3
REMARK    3  A    between atoms: C_9  and  C_10
REMARK    4  A    between atoms: C_10  and  N_11
REMARK    5  A    between atoms: C_15  and  N_16
REMARK    6  A    between atoms: C_17  and  C_19
REMARK    7  A    between atoms: C_25  and  C_26
REMARK                            x       y       z     vdW  Elec       q    Type
REMARK                         _______ _______ _______ _____ _____    ______ ____
ROOT
ATOM      1  N   UNL     1       1.280   7.973  21.566  0.00  0.00    +0.000 N 
ATOM      2  C   UNL     1       1.703   7.654  20.302  0.00  0.00    +0.000 C 
ATOM      3  O   UNL     1       1.802   8.470  19.390  0.00  0.00    +0.000 OA
ATOM      4  H   UNL     1       1.448   7.321  22.320  0.00  0.00    +0.000 HD
ENDROOT
BRANCH   2   5
ATOM      5  C   UNL     1       2.076   6.230  20.057  0.00  0.00    +0.000 A 
ATOM      6  C   UNL     1       1.514   5.169  20.772  0.00  0.00    +0.000 A 
ATOM      7  C   UNL     1       1.834   3.838  20.474  0.00  0.00    +0.000 A 
ATOM      8  C   UNL     1       2.733   3.625  19.424  0.00  0.00    +0.000 A 
ATOM      9  N   UNL     1       3.226   2.475  18.866  0.00  0.00    +0.000 N 
ATOM     10  N   UNL     1       4.098   2.681  17.866  0.00  0.00    +0.000 NA
ATOM     11  C   UNL     1       4.155   4.014  17.751  0.00  0.00    +0.000 A 
ATOM     12  C   UNL     1       3.316   4.655  18.698  0.00  0.00    +0.000 A 
ATOM     13  C   UNL     1       2.982   5.985  19.011  0.00  0.00    +0.000 A 
ATOM     14  H   UNL     1       3.009   1.519  19.120  0.00  0.00    +0.000 HD
BRANCH  11  15
ATOM     15  C   UNL     1       5.040   4.664  16.717  0.00  0.00    +0.000 C 
ATOM     16  C   UNL     1       5.554   3.647  15.690  0.00  0.00    +0.000 C 
ATOM     17  C   UNL     1       6.588   4.267  14.766  0.00  0.00    +0.000 C 
ATOM     18  O   UNL     1       7.648   4.868  15.511  0.00  0.00    +0.000 OA
ATOM     19  C   UNL     1       7.182   5.936  16.331  0.00  0.00    +0.000 C 
ATOM     20  C   UNL     1       6.198   5.429  17.374  0.00  0.00    +0.000 C 
ENDBRANCH  11  15
ENDBRANCH   2   5
BRANCH   1  25
ATOM     21  N   UNL     1       0.180  11.520  20.811  0.00  0.00    +0.000 NA
ATOM     22  C   UNL     1      -0.933  11.616  21.754  0.00  0.00    +0.000 C 
ATOM     23  C   UNL     1      -0.779  10.792  23.032  0.00  0.00    +0.000 C 
ATOM     24  C   UNL     1      -0.398   9.354  22.714  0.00  0.00    +0.000 C 
ATOM     25  C   UNL     1       0.906   9.341  21.920  0.00  0.00    +0.000 C 
ATOM     26  C   UNL     1       0.782  10.198  20.645  0.00  0.00    +0.000 C 
BRANCH  21  27
ATOM     27  C   UNL     1      -0.096  12.178  19.510  0.00  0.00    +0.000 C 
BRANCH  27  34
ATOM     28  C   UNL     1       0.396  14.687  19.326  0.00  0.00    +0.000 A 
ATOM     29  C   UNL     1       1.243  15.745  18.968  0.00  0.00    +0.000 A 
ATOM     30  C   UNL     1       2.480  15.501  18.376  0.00  0.00    +0.000 A 
ATOM     31  C   UNL     1       2.879  14.189  18.146  0.00  0.00    +0.000 A 
ATOM     32  C   UNL     1       2.043  13.135  18.513  0.00  0.00    +0.000 A 
ATOM     33  F   UNL     1       2.478  11.884  18.290  0.00  0.00    +0.000 F 
ATOM     34  C   UNL     1       0.789  13.350  19.105  0.00  0.00    +0.000 A 
BRANCH  28  36
ATOM     35  C   UNL     1      -0.876  15.994  20.839  0.00  0.00    +0.000 C 
ATOM     36  O   UNL     1      -0.810  14.883  19.950  0.00  0.00    +0.000 OA
ENDBRANCH  28  36
ENDBRANCH  27  34
ENDBRANCH  21  27
ENDBRANCH   1  25
TORSDOF 6
ENDMDL
MODEL 5
REMARK VINA RESULT:      -9.1      1.229      1.848
REMARK  Name = 
REMARK  7 active torsions:
REMARK  status: ('A' for Active; 'I' for Inactive)
REMARK    1  A    between atoms: C_1  and  O_2
REMARK    2  A    between atoms: O_2  and  C_3
REMARK    3  A    between atoms: C_9  and  C_10
REMARK    4  A    between atoms: C_10  and  N_11
REMARK    5  A    between atoms: C_15  and  N_16
REMARK    6  A    between atoms: C_17  and  C_19
REMARK    7  A    between atoms: C_25  and  C_26
REMARK                            x       y       z     vdW  Elec       q    Type
REMARK                         _______ _______ _______ _____ _____    ______ ____
ROOT
ATOM      1  N   UNL     1       1.021   7.455  21.271  0.00  0.00    +0.000 N 
ATOM      2  C   UNL     1       1.809   7.117  20.203  0.00  0.00    +0.000 C 
ATOM      3  O   UNL     1       2.389   7.937  19.497  0.00  0.00    +0.000 OA
ATOM      4  H   UNL     1       0.773   6.743  21.945  0.00  0.00    +0.000 HD
ENDROOT
BRANCH   2   5
ATOM      5  C   UNL     1       1.968   5.661  19.918  0.00  0.00    +0.000 A 
ATOM      6  C   UNL     1       1.110   4.691  20.444  0.00  0.00    +0.000 A 
ATOM      7  C   UNL     1       1.243   3.339  20.105  0.00  0.00    +0.000 A 
ATOM      8  C   UNL     1       2.267   3.009  19.212  0.00  0.00    +0.000 A 
ATOM      9  N   UNL     1       2.646   1.813  18.661  0.00  0.00    +0.000 N 
ATOM     10  N   UNL     1       3.708   1.898  17.843  0.00  0.00    +0.000 NA
ATOM     11  C   UNL     1       4.016   3.202  17.842  0.00  0.00    +0.000 A 
ATOM     12  C   UNL     1       3.143   3.945  18.676  0.00  0.00    +0.000 A 
ATOM     13  C   UNL     1       2.993   5.299  19.027  0.00  0.00    +0.000 A 
ATOM     14  H   UNL     1       2.224   0.903  18.801  0.00  0.00    +0.000 HD
BRANCH  11  15
ATOM     15  C   UNL     1       5.173   3.723  17.027  0.00  0.00    +0.000 C 
ATOM     16  C   UNL     1       6.192   4.468  17.900  0.00  0.00    +0.000 C 
ATOM     17  C   UNL     1       7.255   5.147  17.053  0.00  0.00    +0.000 C 
ATOM     18  O   UNL     1       6.663   5.994  16.069  0.00  0.00    +0.000 OA
ATOM     19  C   UNL     1       5.857   5.261  15.151  0.00  0.00    +0.000 C 
ATOM     20  C   UNL     1       4.689   4.598  15.863  0.00  0.00    +0.000 C 
ENDBRANCH  11  15
ENDBRANCH   2   5
BRANCH   1  25
ATOM     21  N   UNL     1      -0.017  11.047  20.650  0.00  0.00    +0.000 NA
ATOM     22  C   UNL     1      -0.889  11.233  21.809  0.00  0.00    +0.000 C 
ATOM     23  C   UNL     1      -0.506  10.428  23.050  0.00  0.00    +0.000 C 
ATOM     24  C   UNL     1      -0.285   8.963  22.708  0.00  0.00    +0.000 C 
ATOM     25  C   UNL     1       0.811   8.851  21.650  0.00  0.00    +0.000 C 
ATOM     26  C   UNL     1       0.459   9.686  20.403  0.00  0.00    +0.000 C 
BRANCH  21  27
ATOM     27  C   UNL     1      -0.534  11.692  19.418  0.00  0.00    +0.000 C 
BRANCH  27  34
ATOM     28  C   UNL     1      -2.763  10.966  18.383  0.00  0.00    +0.000 A 
ATOM     29  C   UNL     1      -4.157  11.076  18.274  0.00  0.00    +0.000 A 
ATOM     30  C   UNL     1      -4.857  12.025  19.016  0.00  0.00    +0.000 A 
ATOM     31  C   UNL     1      -4.163  12.866  19.877  0.00  0.00    +0.000 A 
ATOM     32  C   UNL     1      -2.778  12.749  19.995  0.00  0.00    +0.000 A 
ATOM     33  F   UNL     1      -2.151  13.569  20.854  0.00  0.00    +0.000 F 
ATOM     34  C   UNL     1      -2.045  11.808  19.256  0.00  0.00    +0.000 A 
BRANCH  28  36
ATOM     35  C   UNL     1      -2.396   9.827  16.337  0.00  0.00    +0.000 C 
ATOM     36  O   UNL     1      -2.042  10.017  17.703  0.00  0.00    +0.000 OA
ENDBRANCH  28  36
ENDBRANCH  27  34
ENDBRANCH  21  27
ENDBRANCH   1  25
TORSDOF 6
ENDMDL
MODEL 6
REMARK VINA RESULT:      -9.0      3.189      9.350
REMARK  Name = 
REMARK  7 active torsions:
REMARK  status: ('A' for Active; 'I' for Inactive)
REMARK    1  A    between atoms: C_1  and  O_2
REMARK    2  A    between atoms: O_2  and  C_3
REMARK    3  A    between atoms: C_9  and  C_10
REMARK    4  A    between atoms: C_10  and  N_11
REMARK    5  A    between atoms: C_15  and  N_16
REMARK    6  A    between atoms: C_17  and  C_19
REMARK    7  A    between atoms: C_25  and  C_26
REMARK                            x       y       z     vdW  Elec       q    Type
REMARK                         _______ _______ _______ _____ _____    ______ ____
ROOT
ATOM      1  N   UNL     1       3.035   8.118  17.393  0.00  0.00    +0.000 N 
ATOM      2  C   UNL     1       2.262   8.367  18.497  0.00  0.00    +0.000 C 
ATOM      3  O   UNL     1       2.378   7.765  19.561  0.00  0.00    +0.000 OA
ATOM      4  H   UNL     1       3.055   8.796  16.645  0.00  0.00    +0.000 HD
ENDROOT
BRANCH   2   5
ATOM      5  C   UNL     1       1.242   9.449  18.375  0.00  0.00    +0.000 A 
ATOM      6  C   UNL     1      -0.101   9.192  18.087  0.00  0.00    +0.000 A 
ATOM      7  C   UNL     1      -1.048  10.223  18.044  0.00  0.00    +0.000 A 
ATOM      8  C   UNL     1      -0.586  11.516  18.310  0.00  0.00    +0.000 A 
ATOM      9  N   UNL     1      -1.237  12.720  18.378  0.00  0.00    +0.000 N 
ATOM     10  N   UNL     1      -0.434  13.763  18.647  0.00  0.00    +0.000 NA
ATOM     11  C   UNL     1       0.779  13.214  18.785  0.00  0.00    +0.000 A 
ATOM     12  C   UNL     1       0.742  11.810  18.591  0.00  0.00    +0.000 A 
ATOM     13  C   UNL     1       1.678  10.761  18.630  0.00  0.00    +0.000 A 
ATOM     14  H   UNL     1      -2.226  12.900  18.250  0.00  0.00    +0.000 HD
BRANCH  11  15
ATOM     15  C   UNL     1       1.983  14.066  19.100  0.00  0.00    +0.000 C 
ATOM     16  C   UNL     1       1.591  15.528  19.353  0.00  0.00    +0.000 C 
ATOM     17  C   UNL     1       2.818  16.415  19.485  0.00  0.00    +0.000 C 
ATOM     18  O   UNL     1       3.678  16.273  18.356  0.00  0.00    +0.000 OA
ATOM     19  C   UNL     1       4.181  14.945  18.234  0.00  0.00    +0.000 C 
ATOM     20  C   UNL     1       3.049  13.956  18.002  0.00  0.00    +0.000 C 
ENDBRANCH  11  15
ENDBRANCH   2   5
BRANCH   1  25
ATOM     21  N   UNL     1       4.323   4.561  17.616  0.00  0.00    +0.000 NA
ATOM     22  C   UNL     1       5.188   4.561  16.437  0.00  0.00    +0.000 C 
ATOM     23  C   UNL     1       5.819   5.909  16.090  0.00  0.00    +0.000 C 
ATOM     24  C   UNL     1       4.773   7.012  16.053  0.00  0.00    +0.000 C 
ATOM     25  C   UNL     1       4.075   7.092  17.409  0.00  0.00    +0.000 C 
ATOM     26  C   UNL     1       3.463   5.730  17.794  0.00  0.00    +0.000 C 
BRANCH  21  27
ATOM     27  C   UNL     1       3.585   3.288  17.801  0.00  0.00    +0.000 C 
BRANCH  27  34
ATOM     28  C   UNL     1       3.399   2.707  20.290  0.00  0.00    +0.000 A 
ATOM     29  C   UNL     1       2.643   2.578  21.464  0.00  0.00    +0.000 A 
ATOM     30  C   UNL     1       1.273   2.832  21.463  0.00  0.00    +0.000 A 
ATOM     31  C   UNL     1       0.653   3.226  20.283  0.00  0.00    +0.000 A 
ATOM     32  C   UNL     1       1.406   3.366  19.117  0.00  0.00    +0.000 A 
ATOM     33  F   UNL     1       0.769   3.766  18.004  0.00  0.00    +0.000 F 
ATOM     34  C   UNL     1       2.785   3.110  19.086  0.00  0.00    +0.000 A 
BRANCH  28  36
ATOM     35  C   UNL     1       5.211   1.252  20.753  0.00  0.00    +0.000 C 
ATOM     36  O   UNL     1       4.756   2.508  20.258  0.00  0.00    +0.000 OA
ENDBRANCH  28  36
ENDBRANCH  27  34
ENDBRANCH  21  27
ENDBRANCH   1  25
TORSDOF 6
ENDMDL
MODEL 7
REMARK VINA RESULT:      -8.9      2.628     10.014
REMARK  Name = 
REMARK  7 active torsions:
REMARK  status: ('A' for Active; 'I' for Inactive)
REMARK    1  A    between atoms: C_1  and  O_2
REMARK    2  A    between atoms: O_2  and  C_3
REMARK    3  A    between atoms: C_9  and  C_10
REMARK    4  A    between atoms: C_10  and  N_11
REMARK    5  A    between atoms: C_15  and  N_16
REMARK    6  A    between atoms: C_17  and  C_19
REMARK    7  A    between atoms: C_25  and  C_26
REMARK                            x       y       z     vdW  Elec       q    Type
REMARK                         _______ _______ _______ _____ _____    ______ ____
ROOT
ATOM      1  N   UNL     1       1.793   8.182  19.482  0.00  0.00    +0.000 N 
ATOM      2  C   UNL     1       1.710   8.984  18.373  0.00  0.00    +0.000 C 
ATOM      3  O   UNL     1       1.768   8.564  17.222  0.00  0.00    +0.000 OA
ATOM      4  H   UNL     1       1.500   8.548  20.377  0.00  0.00    +0.000 HD
ENDROOT
BRANCH   2   5
ATOM      5  C   UNL     1       1.517  10.444  18.613  0.00  0.00    +0.000 A 
ATOM      6  C   UNL     1       2.352  11.416  18.054  0.00  0.00    +0.000 A 
ATOM      7  C   UNL     1       2.107  12.783  18.242  0.00  0.00    +0.000 A 
ATOM      8  C   UNL     1       0.986  13.124  19.006  0.00  0.00    +0.000 A 
ATOM      9  N   UNL     1       0.454  14.339  19.351  0.00  0.00    +0.000 N 
ATOM     10  N   UNL     1      -0.641  14.258  20.124  0.00  0.00    +0.000 NA
ATOM     11  C   UNL     1      -0.844  12.942  20.267  0.00  0.00    +0.000 A 
ATOM     12  C   UNL     1       0.141  12.186  19.583  0.00  0.00    +0.000 A 
ATOM     13  C   UNL     1       0.402  10.818  19.382  0.00  0.00    +0.000 A 
ATOM     14  H   UNL     1       0.789  15.260  19.093  0.00  0.00    +0.000 HD
BRANCH  11  15
ATOM     15  C   UNL     1      -2.002  12.422  21.082  0.00  0.00    +0.000 C 
ATOM     16  C   UNL     1      -3.289  13.210  20.806  0.00  0.00    +0.000 C 
ATOM     17  C   UNL     1      -4.400  12.807  21.760  0.00  0.00    +0.000 C 
ATOM     18  O   UNL     1      -3.977  12.921  23.118  0.00  0.00    +0.000 OA
ATOM     19  C   UNL     1      -2.889  12.048  23.411  0.00  0.00    +0.000 C 
ATOM     20  C   UNL     1      -1.667  12.406  22.580  0.00  0.00    +0.000 C 
ENDBRANCH  11  15
ENDBRANCH   2   5
BRANCH   1  25
ATOM     21  N   UNL     1       3.804   5.006  19.004  0.00  0.00    +0.000 NA
ATOM     22  C   UNL     1       3.293   4.242  20.141  0.00  0.00    +0.000 C 
ATOM     23  C   UNL     1       1.848   4.546  20.535  0.00  0.00    +0.000 C 
ATOM     24  C   UNL     1       1.621   6.043  20.680  0.00  0.00    +0.000 C 
ATOM     25  C   UNL     1       1.963   6.736  19.362  0.00  0.00    +0.000 C 
ATOM     26  C   UNL     1       3.407   6.411  18.930  0.00  0.00    +0.000 C 
BRANCH  21  27
ATOM     27  C   UNL     1       5.259   4.821  18.780  0.00  0.00    +0.000 C 
BRANCH  27  34
ATOM     28  C   UNL     1       6.913   5.449  16.926  0.00  0.00    +0.000 A 
ATOM     29  C   UNL     1       7.362   5.352  15.602  0.00  0.00    +0.000 A 
ATOM     30  C   UNL     1       6.669   4.585  14.667  0.00  0.00    +0.000 A 
ATOM     31  C   UNL     1       5.523   3.903  15.059  0.00  0.00    +0.000 A 
ATOM     32  C   UNL     1       5.082   3.990  16.379  0.00  0.00    +0.000 A 
ATOM     33  F   UNL     1       3.981   3.299  16.718  0.00  0.00    +0.000 F 
ATOM     34  C   UNL     1       5.755   4.759  17.340  0.00  0.00    +0.000 A 
BRANCH  28  36
ATOM     35  C   UNL     1       7.607   7.572  17.717  0.00  0.00    +0.000 C 
ATOM     36  O   UNL     1       7.589   6.158  17.886  0.00  0.00    +0.000 OA
ENDBRANCH  28  36
ENDBRANCH  27  34
ENDBRANCH  21  27
ENDBRANCH   1  25
TORSDOF 6
ENDMDL
MODEL 8
REMARK VINA RESULT:      -8.9      1.987      2.915
REMARK  Name = 
REMARK  7 active torsions:
REMARK  status: ('A' for Active; 'I' for Inactive)
REMARK    1  A    between atoms: C_1  and  O_2
REMARK    2  A    between atoms: O_2  and  C_3
REMARK    3  A    between atoms: C_9  and  C_10
REMARK    4  A    between atoms: C_10  and  N_11
REMARK    5  A    between atoms: C_15  and  N_16
REMARK    6  A    between atoms: C_17  and  C_19
REMARK    7  A    between atoms: C_25  and  C_26
REMARK                            x       y       z     vdW  Elec       q    Type
REMARK                         _______ _______ _______ _____ _____    ______ ____
ROOT
ATOM      1  N   UNL     1       0.925   7.444  21.275  0.00  0.00    +0.000 N 
ATOM      2  C   UNL     1       1.809   7.112  20.283  0.00  0.00    +0.000 C 
ATOM      3  O   UNL     1       2.501   7.929  19.684  0.00  0.00    +0.000 OA
ATOM      4  H   UNL     1       0.571   6.718  21.882  0.00  0.00    +0.000 HD
ENDROOT
BRANCH   2   5
ATOM      5  C   UNL     1       1.929   5.663  19.946  0.00  0.00    +0.000 A 
ATOM      6  C   UNL     1       1.030   4.702  20.416  0.00  0.00    +0.000 A 
ATOM      7  C   UNL     1       1.129   3.359  20.030  0.00  0.00    +0.000 A 
ATOM      8  C   UNL     1       2.164   3.031  19.147  0.00  0.00    +0.000 A 
ATOM      9  N   UNL     1       2.519   1.844  18.560  0.00  0.00    +0.000 N 
ATOM     10  N   UNL     1       3.602   1.926  17.770  0.00  0.00    +0.000 NA
ATOM     11  C   UNL     1       3.949   3.219  17.825  0.00  0.00    +0.000 A 
ATOM     12  C   UNL     1       3.080   3.957  18.667  0.00  0.00    +0.000 A 
ATOM     13  C   UNL     1       2.964   5.301  19.066  0.00  0.00    +0.000 A 
ATOM     14  H   UNL     1       2.065   0.944  18.656  0.00  0.00    +0.000 HD
BRANCH  11  15
ATOM     15  C   UNL     1       5.141   3.732  17.056  0.00  0.00    +0.000 C 
ATOM     16  C   UNL     1       6.134   4.463  17.971  0.00  0.00    +0.000 C 
ATOM     17  C   UNL     1       7.234   5.136  17.168  0.00  0.00    +0.000 C 
ATOM     18  O   UNL     1       6.687   5.994  16.167  0.00  0.00    +0.000 OA
ATOM     19  C   UNL     1       5.909   5.274  15.216  0.00  0.00    +0.000 C 
ATOM     20  C   UNL     1       4.708   4.619  15.881  0.00  0.00    +0.000 C 
ENDBRANCH  11  15
ENDBRANCH   2   5
BRANCH   1  25
ATOM     21  N   UNL     1       0.028  11.087  20.742  0.00  0.00    +0.000 NA
ATOM     22  C   UNL     1      -0.891  11.260  21.865  0.00  0.00    +0.000 C 
ATOM     23  C   UNL     1      -0.592  10.399  23.091  0.00  0.00    +0.000 C 
ATOM     24  C   UNL     1      -0.401   8.940  22.705  0.00  0.00    +0.000 C 
ATOM     25  C   UNL     1       0.741   8.831  21.696  0.00  0.00    +0.000 C 
ATOM     26  C   UNL     1       0.473   9.722  20.466  0.00  0.00    +0.000 C 
BRANCH  21  27
ATOM     27  C   UNL     1      -0.409  11.793  19.512  0.00  0.00    +0.000 C 
BRANCH  27  34
ATOM     28  C   UNL     1       1.027  13.842  18.960  0.00  0.00    +0.000 A 
ATOM     29  C   UNL     1       1.198  15.231  18.877  0.00  0.00    +0.000 A 
ATOM     30  C   UNL     1       0.184  16.100  19.274  0.00  0.00    +0.000 A 
ATOM     31  C   UNL     1      -1.013  15.579  19.752  0.00  0.00    +0.000 A 
ATOM     32  C   UNL     1      -1.188  14.198  19.824  0.00  0.00    +0.000 A 
ATOM     33  F   UNL     1      -2.368  13.739  20.273  0.00  0.00    +0.000 F 
ATOM     34  C   UNL     1      -0.183  13.298  19.438  0.00  0.00    +0.000 A 
BRANCH  28  36
ATOM     35  C   UNL     1       3.239  13.517  18.173  0.00  0.00    +0.000 C 
ATOM     36  O   UNL     1       1.983  12.953  18.539  0.00  0.00    +0.000 OA
ENDBRANCH  28  36
ENDBRANCH  27  34
ENDBRANCH  21  27
ENDBRANCH   1  25
TORSDOF 6
ENDMDL
MODEL 9
REMARK VINA RESULT:      -8.9      2.698     10.147
REMARK  Name = 
REMARK  7 active torsions:
REMARK  status: ('A' for Active; 'I' for Inactive)
REMARK    1  A    between atoms: C_1  and  O_2
REMARK    2  A    between atoms: O_2  and  C_3
REMARK    3  A    between atoms: C_9  and  C_10
REMARK    4  A    between atoms: C_10  and  N_11
REMARK    5  A    between atoms: C_15  and  N_16
REMARK    6  A    between atoms: C_17  and  C_19
REMARK    7  A    between atoms: C_25  and  C_26
REMARK                            x       y       z     vdW  Elec       q    Type
REMARK                         _______ _______ _______ _____ _____    ______ ____
ROOT
ATOM      1  N   UNL     1       0.003   9.865  20.413  0.00  0.00    +0.000 N 
ATOM      2  C   UNL     1       0.074  11.038  21.117  0.00  0.00    +0.000 C 
ATOM      3  O   UNL     1       1.108  11.683  21.266  0.00  0.00    +0.000 OA
ATOM      4  H   UNL     1      -0.901   9.517  20.126  0.00  0.00    +0.000 HD
ENDROOT
BRANCH   2   5
ATOM      5  C   UNL     1      -1.198  11.546  21.708  0.00  0.00    +0.000 A 
ATOM      6  C   UNL     1      -1.397  11.662  23.086  0.00  0.00    +0.000 A 
ATOM      7  C   UNL     1      -2.577  12.204  23.610  0.00  0.00    +0.000 A 
ATOM      8  C   UNL     1      -3.540  12.631  22.689  0.00  0.00    +0.000 A 
ATOM      9  N   UNL     1      -4.764  13.222  22.858  0.00  0.00    +0.000 N 
ATOM     10  N   UNL     1      -5.415  13.473  21.711  0.00  0.00    +0.000 NA
ATOM     11  C   UNL     1      -4.571  13.055  20.758  0.00  0.00    +0.000 A 
ATOM     12  C   UNL     1      -3.379  12.524  21.314  0.00  0.00    +0.000 A 
ATOM     13  C   UNL     1      -2.187  11.977  20.806  0.00  0.00    +0.000 A 
ATOM     14  H   UNL     1      -5.215  13.479  23.728  0.00  0.00    +0.000 HD
BRANCH  11  15
ATOM     15  C   UNL     1      -4.935  13.166  19.299  0.00  0.00    +0.000 C 
ATOM     16  C   UNL     1      -6.330  13.776  19.108  0.00  0.00    +0.000 C 
ATOM     17  C   UNL     1      -6.767  13.715  17.654  0.00  0.00    +0.000 C 
ATOM     18  O   UNL     1      -6.685  12.382  17.149  0.00  0.00    +0.000 OA
ATOM     19  C   UNL     1      -5.348  11.889  17.165  0.00  0.00    +0.000 C 
ATOM     20  C   UNL     1      -4.816  11.811  18.588  0.00  0.00    +0.000 C 
ENDBRANCH  11  15
ENDBRANCH   2   5
BRANCH   1  25
ATOM     21  N   UNL     1       2.557   7.136  19.788  0.00  0.00    +0.000 NA
ATOM     22  C   UNL     1       2.504   7.108  18.327  0.00  0.00    +0.000 C 
ATOM     23  C   UNL     1       2.180   8.444  17.660  0.00  0.00    +0.000 C 
ATOM     24  C   UNL     1       0.948   9.084  18.282  0.00  0.00    +0.000 C 
ATOM     25  C   UNL     1       1.185   9.287  19.777  0.00  0.00    +0.000 C 
ATOM     26  C   UNL     1       1.550   7.954  20.462  0.00  0.00    +0.000 C 
BRANCH  21  27
ATOM     27  C   UNL     1       2.683   5.788  20.395  0.00  0.00    +0.000 C 
BRANCH  27  34
ATOM     28  C   UNL     1       3.748   4.126  18.760  0.00  0.00    +0.000 A 
ATOM     29  C   UNL     1       3.664   2.997  17.934  0.00  0.00    +0.000 A 
ATOM     30  C   UNL     1       2.461   2.309  17.786  0.00  0.00    +0.000 A 
ATOM     31  C   UNL     1       1.335   2.748  18.472  0.00  0.00    +0.000 A 
ATOM     32  C   UNL     1       1.420   3.865  19.303  0.00  0.00    +0.000 A 
ATOM     33  F   UNL     1       0.312   4.241  19.962  0.00  0.00    +0.000 F 
ATOM     34  C   UNL     1       2.615   4.581  19.467  0.00  0.00    +0.000 A 
BRANCH  28  36
ATOM     35  C   UNL     1       5.598   5.249  17.795  0.00  0.00    +0.000 C 
ATOM     36  O   UNL     1       4.922   4.805  18.967  0.00  0.00    +0.000 OA
ENDBRANCH  28  36
ENDBRANCH  27  34
ENDBRANCH  21  27
ENDBRANCH   1  25
TORSDOF 6
ENDMDL
