MODEL 1
REMARK VINA RESULT:      -8.5      0.000      0.000
REMARK  Name = 
REMARK  12 active torsions:
REMARK  status: ('A' for Active; 'I' for Inactive)
REMARK    1  A    between atoms: C_1  and  C_2
REMARK    2  A    between atoms: C_4  and  O_5
REMARK    3  A    between atoms: O_5  and  C_6
REMARK    4  A    between atoms: C_9  and  C_10
REMARK    5  A    between atoms: C_10  and  C_11
REMARK    6  A    between atoms: C_10  and  C_12
REMARK    7  A    between atoms: C_10  and  C_13
REMARK    8  A    between atoms: C_16  and  C_17
REMARK    9  A    between atoms: C_17  and  N_18
REMARK   10  A    between atoms: C_21  and  C_22
REMARK   11  A    between atoms: C_21  and  C_23
REMARK   12  A    between atoms: C_23  and  O_25
REMARK                            x       y       z     vdW  Elec       q    Type
REMARK                         _______ _______ _______ _____ _____    ______ ____
ROOT
ATOM      1  C   UNL     1       7.760   7.433  17.172  0.00  0.00    +0.000 C 
ATOM      2  C   UNL     1       6.493   6.622  17.011  0.00  0.00    +0.000 A 
ATOM      3  C   UNL     1       5.407   6.840  17.906  0.00  0.00    +0.000 A 
ATOM      4  C   UNL     1       4.206   6.138  17.786  0.00  0.00    +0.000 A 
ATOM      5  C   UNL     1       4.152   5.069  16.814  0.00  0.00    +0.000 A 
ATOM      6  C   UNL     1       5.277   4.833  15.909  0.00  0.00    +0.000 A 
ATOM      7  C   UNL     1       5.337   3.788  14.943  0.00  0.00    +0.000 A 
ATOM      8  C   UNL     1       6.316   3.676  13.949  0.00  0.00    +0.000 A 
ATOM      9  C   UNL     1       7.367   4.565  13.950  0.00  0.00    +0.000 A 
ATOM     10  C   UNL     1       7.431   5.515  14.962  0.00  0.00    +0.000 A 
ATOM     11  C   UNL     1       6.409   5.672  15.960  0.00  0.00    +0.000 A 
ENDROOT
BRANCH   4  12
ATOM     12  O   UNL     1       3.108   6.353  18.574  0.00  0.00    +0.000 OA
BRANCH  12  13
ATOM     13  C   UNL     1       2.227   7.489  18.816  0.00  0.00    +0.000 C 
ATOM     14  C   UNL     1       1.938   7.957  20.250  0.00  0.00    +0.000 C 
ATOM     15  C   UNL     1       0.639   8.814  20.299  0.00  0.00    +0.000 C 
ATOM     16  C   UNL     1       0.696  10.090  19.417  0.00  0.00    +0.000 C 
ATOM     17  C   UNL     1       1.123   9.673  17.981  0.00  0.00    +0.000 C 
ATOM     18  C   UNL     1       2.375   8.733  17.914  0.00  0.00    +0.000 C 
BRANCH  16  19
ATOM     19  C   UNL     1      -0.622  11.005  19.513  0.00  0.00    +0.000 C 
ATOM     20  C   UNL     1      -0.384  12.378  18.831  0.00  0.00    +0.000 C 
ATOM     21  C   UNL     1      -1.821  10.360  18.775  0.00  0.00    +0.000 C 
ATOM     22  C   UNL     1      -1.081  11.297  20.957  0.00  0.00    +0.000 C 
ENDBRANCH  16  19
ENDBRANCH  12  13
ENDBRANCH   4  12
BRANCH   5  23
ATOM     23  C   UNL     1       2.936   4.095  16.746  0.00  0.00    +0.000 C 
BRANCH  23  24
ATOM     24  N   UNL     1       3.004   2.841  17.527  0.00  0.00    +0.000 NA
ATOM     25  C   UNL     1       1.722   2.227  17.877  0.00  0.00    +0.000 C 
ATOM     26  C   UNL     1       1.027   2.706  19.172  0.00  0.00    +0.000 C 
ATOM     27  C   UNL     1       1.866   3.218  20.386  0.00  0.00    +0.000 C 
ATOM     28  C   UNL     1       1.044   4.480  20.823  0.00  0.00    +0.000 C 
ATOM     29  C   UNL     1       3.356   3.416  20.002  0.00  0.00    +0.000 C 
ATOM     30  C   UNL     1       3.870   2.794  18.689  0.00  0.00    +0.000 C 
BRANCH  27  31
ATOM     31  C   UNL     1       1.980   2.532  21.776  0.00  0.00    +0.000 C 
ATOM     32  O   UNL     1       0.987   2.342  22.499  0.00  0.00    +0.000 OA
BRANCH  31  33
ATOM     33  O   UNL     1       3.178   2.146  22.191  0.00  0.00    +0.000 OA
ATOM     34  H   UNL     1       3.816   1.958  21.480  0.00  0.00    +0.000 HD
ENDBRANCH  31  33
ENDBRANCH  27  31
ENDBRANCH  23  24
ENDBRANCH   5  23
TORSDOF 7
ENDMDL
MODEL 2
REMARK VINA RESULT:      -8.4      0.568      1.056
REMARK  Name = 
REMARK  12 active torsions:
REMARK  status: ('A' for Active; 'I' for Inactive)
REMARK    1  A    between atoms: C_1  and  C_2
REMARK    2  A    between atoms: C_4  and  O_5
REMARK    3  A    between atoms: O_5  and  C_6
REMARK    4  A    between atoms: C_9  and  C_10
REMARK    5  A    between atoms: C_10  and  C_11
REMARK    6  A    between atoms: C_10  and  C_12
REMARK    7  A    between atoms: C_10  and  C_13
REMARK    8  A    between atoms: C_16  and  C_17
REMARK    9  A    between atoms: C_17  and  N_18
REMARK   10  A    between atoms: C_21  and  C_22
REMARK   11  A    between atoms: C_21  and  C_23
REMARK   12  A    between atoms: C_23  and  O_25
REMARK                            x       y       z     vdW  Elec       q    Type
REMARK                         _______ _______ _______ _____ _____    ______ ____
ROOT
ATOM      1  C   UNL     1       7.767   7.629  17.237  0.00  0.00    +0.000 C 
ATOM      2  C   UNL     1       6.523   6.783  17.079  0.00  0.00    +0.000 A 
ATOM      3  C   UNL     1       5.431   6.974  17.974  0.00  0.00    +0.000 A 
ATOM      4  C   UNL     1       4.250   6.240  17.857  0.00  0.00    +0.000 A 
ATOM      5  C   UNL     1       4.224   5.166  16.888  0.00  0.00    +0.000 A 
ATOM      6  C   UNL     1       5.355   4.957  15.983  0.00  0.00    +0.000 A 
ATOM      7  C   UNL     1       5.443   3.912  15.022  0.00  0.00    +0.000 A 
ATOM      8  C   UNL     1       6.425   3.822  14.027  0.00  0.00    +0.000 A 
ATOM      9  C   UNL     1       7.451   4.740  14.025  0.00  0.00    +0.000 A 
ATOM     10  C   UNL     1       7.490   5.694  15.034  0.00  0.00    +0.000 A 
ATOM     11  C   UNL     1       6.464   5.827  16.031  0.00  0.00    +0.000 A 
ENDROOT
BRANCH   4  12
ATOM     12  O   UNL     1       3.146   6.427  18.644  0.00  0.00    +0.000 OA
BRANCH  12  13
ATOM     13  C   UNL     1       2.354   7.586  19.039  0.00  0.00    +0.000 C 
ATOM     14  C   UNL     1       1.520   8.348  17.999  0.00  0.00    +0.000 C 
ATOM     15  C   UNL     1       1.178   9.779  18.508  0.00  0.00    +0.000 C 
ATOM     16  C   UNL     1       0.365   9.796  19.830  0.00  0.00    +0.000 C 
ATOM     17  C   UNL     1       1.110   8.917  20.874  0.00  0.00    +0.000 C 
ATOM     18  C   UNL     1       1.547   7.505  20.353  0.00  0.00    +0.000 C 
BRANCH  16  19
ATOM     19  C   UNL     1      -0.039  11.272  20.325  0.00  0.00    +0.000 C 
ATOM     20  C   UNL     1       1.058  12.297  19.934  0.00  0.00    +0.000 C 
ATOM     21  C   UNL     1      -1.345  11.762  19.653  0.00  0.00    +0.000 C 
ATOM     22  C   UNL     1      -0.239  11.391  21.850  0.00  0.00    +0.000 C 
ENDBRANCH  16  19
ENDBRANCH  12  13
ENDBRANCH   4  12
BRANCH   5  23
ATOM     23  C   UNL     1       3.036   4.159  16.824  0.00  0.00    +0.000 C 
BRANCH  23  24
ATOM     24  N   UNL     1       3.152   2.894  17.583  0.00  0.00    +0.000 NA
ATOM     25  C   UNL     1       1.900   2.191  17.864  0.00  0.00    +0.000 C 
ATOM     26  C   UNL     1       1.120   2.596  19.136  0.00  0.00    +0.000 C 
ATOM     27  C   UNL     1       1.871   3.132  20.396  0.00  0.00    +0.000 C 
ATOM     28  C   UNL     1       0.950   4.329  20.821  0.00  0.00    +0.000 C 
ATOM     29  C   UNL     1       3.360   3.435  20.081  0.00  0.00    +0.000 C 
ATOM     30  C   UNL     1       3.970   2.877  18.780  0.00  0.00    +0.000 C 
BRANCH  27  31
ATOM     31  C   UNL     1       1.971   2.424  21.775  0.00  0.00    +0.000 C 
ATOM     32  O   UNL     1       0.977   2.256  22.502  0.00  0.00    +0.000 OA
BRANCH  31  33
ATOM     33  O   UNL     1       3.158   1.994  22.177  0.00  0.00    +0.000 OA
ATOM     34  H   UNL     1       3.418   1.123  21.828  0.00  0.00    +0.000 HD
ENDBRANCH  31  33
ENDBRANCH  27  31
ENDBRANCH  23  24
ENDBRANCH   5  23
TORSDOF 7
ENDMDL
MODEL 3
REMARK VINA RESULT:      -8.1      0.553      1.141
REMARK  Name = 
REMARK  12 active torsions:
REMARK  status: ('A' for Active; 'I' for Inactive)
REMARK    1  A    between atoms: C_1  and  C_2
REMARK    2  A    between atoms: C_4  and  O_5
REMARK    3  A    between atoms: O_5  and  C_6
REMARK    4  A    between atoms: C_9  and  C_10
REMARK    5  A    between atoms: C_10  and  C_11
REMARK    6  A    between atoms: C_10  and  C_12
REMARK    7  A    between atoms: C_10  and  C_13
REMARK    8  A    between atoms: C_16  and  C_17
REMARK    9  A    between atoms: C_17  and  N_18
REMARK   10  A    between atoms: C_21  and  C_22
REMARK   11  A    between atoms: C_21  and  C_23
REMARK   12  A    between atoms: C_23  and  O_25
REMARK                            x       y       z     vdW  Elec       q    Type
REMARK                         _______ _______ _______ _____ _____    ______ ____
ROOT
ATOM      1  C   UNL     1       7.354   7.827  17.303  0.00  0.00    +0.000 C 
ATOM      2  C   UNL     1       6.178   6.900  17.086  0.00  0.00    +0.000 A 
ATOM      3  C   UNL     1       4.994   7.085  17.857  0.00  0.00    +0.000 A 
ATOM      4  C   UNL     1       3.870   6.275  17.679  0.00  0.00    +0.000 A 
ATOM      5  C   UNL     1       3.998   5.142  16.790  0.00  0.00    +0.000 A 
ATOM      6  C   UNL     1       5.223   4.942  16.015  0.00  0.00    +0.000 A 
ATOM      7  C   UNL     1       5.461   3.843  15.142  0.00  0.00    +0.000 A 
ATOM      8  C   UNL     1       6.540   3.748  14.255  0.00  0.00    +0.000 A 
ATOM      9  C   UNL     1       7.512   4.722  14.287  0.00  0.00    +0.000 A 
ATOM     10  C   UNL     1       7.400   5.741  15.225  0.00  0.00    +0.000 A 
ATOM     11  C   UNL     1       6.274   5.877  16.108  0.00  0.00    +0.000 A 
ENDROOT
BRANCH   4  12
ATOM     12  O   UNL     1       2.686   6.448  18.342  0.00  0.00    +0.000 OA
BRANCH  12  13
ATOM     13  C   UNL     1       1.985   7.595  18.907  0.00  0.00    +0.000 C 
ATOM     14  C   UNL     1       1.995   7.843  20.422  0.00  0.00    +0.000 C 
ATOM     15  C   UNL     1       0.822   8.781  20.835  0.00  0.00    +0.000 C 
ATOM     16  C   UNL     1       0.866  10.175  20.155  0.00  0.00    +0.000 C 
ATOM     17  C   UNL     1       0.996   9.967  18.619  0.00  0.00    +0.000 C 
ATOM     18  C   UNL     1       2.111   8.955  18.185  0.00  0.00    +0.000 C 
BRANCH  16  19
ATOM     19  C   UNL     1      -0.312  11.164  20.625  0.00  0.00    +0.000 C 
ATOM     20  C   UNL     1      -0.867  10.731  22.008  0.00  0.00    +0.000 C 
ATOM     21  C   UNL     1       0.197  12.616  20.802  0.00  0.00    +0.000 C 
ATOM     22  C   UNL     1      -1.513  11.217  19.658  0.00  0.00    +0.000 C 
ENDBRANCH  16  19
ENDBRANCH  12  13
ENDBRANCH   4  12
BRANCH   5  23
ATOM     23  C   UNL     1       2.876   4.064  16.684  0.00  0.00    +0.000 C 
BRANCH  23  24
ATOM     24  N   UNL     1       3.011   2.835  17.495  0.00  0.00    +0.000 NA
ATOM     25  C   UNL     1       1.766   2.155  17.853  0.00  0.00    +0.000 C 
ATOM     26  C   UNL     1       1.034   2.623  19.131  0.00  0.00    +0.000 C 
ATOM     27  C   UNL     1       1.833   3.211  20.338  0.00  0.00    +0.000 C 
ATOM     28  C   UNL     1       0.936   4.433  20.740  0.00  0.00    +0.000 C 
ATOM     29  C   UNL     1       3.312   3.488  19.957  0.00  0.00    +0.000 C 
ATOM     30  C   UNL     1       3.871   2.866  18.663  0.00  0.00    +0.000 C 
BRANCH  27  31
ATOM     31  C   UNL     1       1.978   2.566  21.744  0.00  0.00    +0.000 C 
ATOM     32  O   UNL     1       3.063   2.122  22.156  0.00  0.00    +0.000 OA
BRANCH  31  33
ATOM     33  O   UNL     1       0.903   2.490  22.515  0.00  0.00    +0.000 OA
ATOM     34  H   UNL     1       1.018   2.845  23.414  0.00  0.00    +0.000 HD
ENDBRANCH  31  33
ENDBRANCH  27  31
ENDBRANCH  23  24
ENDBRANCH   5  23
TORSDOF 7
ENDMDL
MODEL 4
REMARK VINA RESULT:      -8.0      2.145      5.411
REMARK  Name = 
REMARK  12 active torsions:
REMARK  status: ('A' for Active; 'I' for Inactive)
REMARK    1  A    between atoms: C_1  and  C_2
REMARK    2  A    between atoms: C_4  and  O_5
REMARK    3  A    between atoms: O_5  and  C_6
REMARK    4  A    between atoms: C_9  and  C_10
REMARK    5  A    between atoms: C_10  and  C_11
REMARK    6  A    between atoms: C_10  and  C_12
REMARK    7  A    between atoms: C_10  and  C_13
REMARK    8  A    between atoms: C_16  and  C_17
REMARK    9  A    between atoms: C_17  and  N_18
REMARK   10  A    between atoms: C_21  and  C_22
REMARK   11  A    between atoms: C_21  and  C_23
REMARK   12  A    between atoms: C_23  and  O_25
REMARK                            x       y       z     vdW  Elec       q    Type
REMARK                         _______ _______ _______ _____ _____    ______ ____
ROOT
ATOM      1  C   UNL     1       1.166   2.804  21.917  0.00  0.00    +0.000 C 
ATOM      2  C   UNL     1       1.656   3.786  20.875  0.00  0.00    +0.000 A 
ATOM      3  C   UNL     1       1.707   5.174  21.196  0.00  0.00    +0.000 A 
ATOM      4  C   UNL     1       2.175   6.120  20.282  0.00  0.00    +0.000 A 
ATOM      5  C   UNL     1       2.465   5.665  18.940  0.00  0.00    +0.000 A 
ATOM      6  C   UNL     1       2.392   4.242  18.607  0.00  0.00    +0.000 A 
ATOM      7  C   UNL     1       2.623   3.698  17.312  0.00  0.00    +0.000 A 
ATOM      8  C   UNL     1       2.747   2.332  17.031  0.00  0.00    +0.000 A 
ATOM      9  C   UNL     1       2.525   1.425  18.042  0.00  0.00    +0.000 A 
ATOM     10  C   UNL     1       2.151   1.902  19.292  0.00  0.00    +0.000 A 
ATOM     11  C   UNL     1       2.068   3.302  19.607  0.00  0.00    +0.000 A 
ENDROOT
BRANCH   4  12
ATOM     12  O   UNL     1       2.309   7.453  20.557  0.00  0.00    +0.000 OA
BRANCH  12  13
ATOM     13  C   UNL     1       1.389   8.583  20.624  0.00  0.00    +0.000 C 
ATOM     14  C   UNL     1       0.951   9.306  19.342  0.00  0.00    +0.000 C 
ATOM     15  C   UNL     1       0.403  10.726  19.669  0.00  0.00    +0.000 C 
ATOM     16  C   UNL     1      -0.824  10.720  20.619  0.00  0.00    +0.000 C 
ATOM     17  C   UNL     1      -0.466   9.878  21.876  0.00  0.00    +0.000 C 
ATOM     18  C   UNL     1       0.174   8.480  21.571  0.00  0.00    +0.000 C 
BRANCH  16  19
ATOM     19  C   UNL     1      -1.426  12.183  20.910  0.00  0.00    +0.000 C 
ATOM     20  C   UNL     1      -1.779  12.338  22.413  0.00  0.00    +0.000 C 
ATOM     21  C   UNL     1      -0.398  13.297  20.593  0.00  0.00    +0.000 C 
ATOM     22  C   UNL     1      -2.708  12.506  20.115  0.00  0.00    +0.000 C 
ENDBRANCH  16  19
ENDBRANCH  12  13
ENDBRANCH   4  12
BRANCH   5  23
ATOM     23  C   UNL     1       2.791   6.673  17.796  0.00  0.00    +0.000 C 
BRANCH  23  24
ATOM     24  N   UNL     1       4.183   7.158  17.669  0.00  0.00    +0.000 NA
ATOM     25  C   UNL     1       4.588   7.623  16.342  0.00  0.00    +0.000 C 
ATOM     26  C   UNL     1       5.125   6.570  15.346  0.00  0.00    +0.000 C 
ATOM     27  C   UNL     1       5.877   5.299  15.857  0.00  0.00    +0.000 C 
ATOM     28  C   UNL     1       5.251   4.182  14.950  0.00  0.00    +0.000 C 
ATOM     29  C   UNL     1       5.747   5.145  17.396  0.00  0.00    +0.000 C 
ATOM     30  C   UNL     1       5.252   6.348  18.221  0.00  0.00    +0.000 C 
BRANCH  27  31
ATOM     31  C   UNL     1       7.376   4.964  15.624  0.00  0.00    +0.000 C 
ATOM     32  O   UNL     1       7.949   5.220  14.551  0.00  0.00    +0.000 OA
BRANCH  31  33
ATOM     33  O   UNL     1       8.052   4.386  16.607  0.00  0.00    +0.000 OA
ATOM     34  H   UNL     1       7.503   4.031  17.328  0.00  0.00    +0.000 HD
ENDBRANCH  31  33
ENDBRANCH  27  31
ENDBRANCH  23  24
ENDBRANCH   5  23
TORSDOF 7
ENDMDL
MODEL 5
REMARK VINA RESULT:      -7.9      4.099     10.130
REMARK  Name = 
REMARK  12 active torsions:
REMARK  status: ('A' for Active; 'I' for Inactive)
REMARK    1  A    between atoms: C_1  and  C_2
REMARK    2  A    between atoms: C_4  and  O_5
REMARK    3  A    between atoms: O_5  and  C_6
REMARK    4  A    between atoms: C_9  and  C_10
REMARK    5  A    between atoms: C_10  and  C_11
REMARK    6  A    between atoms: C_10  and  C_12
REMARK    7  A    between atoms: C_10  and  C_13
REMARK    8  A    between atoms: C_16  and  C_17
REMARK    9  A    between atoms: C_17  and  N_18
REMARK   10  A    between atoms: C_21  and  C_22
REMARK   11  A    between atoms: C_21  and  C_23
REMARK   12  A    between atoms: C_23  and  O_25
REMARK                            x       y       z     vdW  Elec       q    Type
REMARK                         _______ _______ _______ _____ _____    ______ ____
ROOT
ATOM      1  C   UNL     1      -3.721  10.093  15.467  0.00  0.00    +0.000 C 
ATOM      2  C   UNL     1      -3.119  10.603  16.758  0.00  0.00    +0.000 A 
ATOM      3  C   UNL     1      -1.781  10.247  17.091  0.00  0.00    +0.000 A 
ATOM      4  C   UNL     1      -1.167  10.712  18.256  0.00  0.00    +0.000 A 
ATOM      5  C   UNL     1      -1.986  11.447  19.194  0.00  0.00    +0.000 A 
ATOM      6  C   UNL     1      -3.367  11.794  18.859  0.00  0.00    +0.000 A 
ATOM      7  C   UNL     1      -4.264  12.483  19.723  0.00  0.00    +0.000 A 
ATOM      8  C   UNL     1      -5.513  12.988  19.341  0.00  0.00    +0.000 A 
ATOM      9  C   UNL     1      -5.975  12.718  18.072  0.00  0.00    +0.000 A 
ATOM     10  C   UNL     1      -5.200  11.924  17.237  0.00  0.00    +0.000 A 
ATOM     11  C   UNL     1      -3.896  11.440  17.600  0.00  0.00    +0.000 A 
ENDROOT
BRANCH   4  12
ATOM     12  O   UNL     1       0.134  10.457  18.594  0.00  0.00    +0.000 OA
BRANCH  12  13
ATOM     13  C   UNL     1       0.930   9.247  18.768  0.00  0.00    +0.000 C 
ATOM     14  C   UNL     1       2.115   8.956  17.837  0.00  0.00    +0.000 C 
ATOM     15  C   UNL     1       2.487   7.444  17.873  0.00  0.00    +0.000 C 
ATOM     16  C   UNL     1       2.890   6.932  19.282  0.00  0.00    +0.000 C 
ATOM     17  C   UNL     1       1.772   7.331  20.286  0.00  0.00    +0.000 C 
ATOM     18  C   UNL     1       1.317   8.828  20.203  0.00  0.00    +0.000 C 
BRANCH  16  19
ATOM     19  C   UNL     1       3.330   5.386  19.308  0.00  0.00    +0.000 C 
ATOM     20  C   UNL     1       2.778   4.683  20.577  0.00  0.00    +0.000 C 
ATOM     21  C   UNL     1       2.754   4.607  18.100  0.00  0.00    +0.000 C 
ATOM     22  C   UNL     1       4.857   5.166  19.306  0.00  0.00    +0.000 C 
ENDBRANCH  16  19
ENDBRANCH  12  13
ENDBRANCH   4  12
BRANCH   5  23
ATOM     23  C   UNL     1      -1.455  11.827  20.610  0.00  0.00    +0.000 C 
BRANCH  23  24
ATOM     24  N   UNL     1      -0.940  13.198  20.817  0.00  0.00    +0.000 NA
ATOM     25  C   UNL     1      -0.897  14.059  19.634  0.00  0.00    +0.000 C 
ATOM     26  C   UNL     1       0.360  13.985  18.739  0.00  0.00    +0.000 C 
ATOM     27  C   UNL     1       1.755  13.634  19.349  0.00  0.00    +0.000 C 
ATOM     28  C   UNL     1       2.321  12.637  18.279  0.00  0.00    +0.000 C 
ATOM     29  C   UNL     1       1.624  13.135  20.812  0.00  0.00    +0.000 C 
ATOM     30  C   UNL     1       0.295  13.369  21.557  0.00  0.00    +0.000 C 
BRANCH  27  31
ATOM     31  C   UNL     1       2.981  14.584  19.441  0.00  0.00    +0.000 C 
ATOM     32  O   UNL     1       3.353  15.275  18.476  0.00  0.00    +0.000 OA
BRANCH  31  33
ATOM     33  O   UNL     1       3.643  14.648  20.587  0.00  0.00    +0.000 OA
ATOM     34  H   UNL     1       4.569  14.941  20.510  0.00  0.00    +0.000 HD
ENDBRANCH  31  33
ENDBRANCH  27  31
ENDBRANCH  23  24
ENDBRANCH   5  23
TORSDOF 7
ENDMDL
MODEL 6
REMARK VINA RESULT:      -7.8      2.097      5.299
REMARK  Name = 
REMARK  12 active torsions:
REMARK  status: ('A' for Active; 'I' for Inactive)
REMARK    1  A    between atoms: C_1  and  C_2
REMARK    2  A    between atoms: C_4  and  O_5
REMARK    3  A    between atoms: O_5  and  C_6
REMARK    4  A    between atoms: C_9  and  C_10
REMARK    5  A    between atoms: C_10  and  C_11
REMARK    6  A    between atoms: C_10  and  C_12
REMARK    7  A    between atoms: C_10  and  C_13
REMARK    8  A    between atoms: C_16  and  C_17
REMARK    9  A    between atoms: C_17  and  N_18
REMARK   10  A    between atoms: C_21  and  C_22
REMARK   11  A    between atoms: C_21  and  C_23
REMARK   12  A    between atoms: C_23  and  O_25
REMARK                            x       y       z     vdW  Elec       q    Type
REMARK                         _______ _______ _______ _____ _____    ______ ____
ROOT
ATOM      1  C   UNL     1       1.136   2.676  21.931  0.00  0.00    +0.000 C 
ATOM      2  C   UNL     1       1.629   3.665  20.897  0.00  0.00    +0.000 A 
ATOM      3  C   UNL     1       1.623   5.056  21.205  0.00  0.00    +0.000 A 
ATOM      4  C   UNL     1       2.091   6.009  20.299  0.00  0.00    +0.000 A 
ATOM      5  C   UNL     1       2.445   5.552  18.973  0.00  0.00    +0.000 A 
ATOM      6  C   UNL     1       2.431   4.125  18.652  0.00  0.00    +0.000 A 
ATOM      7  C   UNL     1       2.727   3.578  17.372  0.00  0.00    +0.000 A 
ATOM      8  C   UNL     1       2.906   2.214  17.109  0.00  0.00    +0.000 A 
ATOM      9  C   UNL     1       2.679   1.309  18.121  0.00  0.00    +0.000 A 
ATOM     10  C   UNL     1       2.244   1.784  19.352  0.00  0.00    +0.000 A 
ATOM     11  C   UNL     1       2.103   3.183  19.650  0.00  0.00    +0.000 A 
ENDROOT
BRANCH   4  12
ATOM     12  O   UNL     1       2.170   7.349  20.565  0.00  0.00    +0.000 OA
BRANCH  12  13
ATOM     13  C   UNL     1       1.328   8.503  20.275  0.00  0.00    +0.000 C 
ATOM     14  C   UNL     1       0.934   9.479  21.393  0.00  0.00    +0.000 C 
ATOM     15  C   UNL     1      -0.320  10.307  20.986  0.00  0.00    +0.000 C 
ATOM     16  C   UNL     1      -0.121  11.156  19.702  0.00  0.00    +0.000 C 
ATOM     17  C   UNL     1       0.412  10.225  18.577  0.00  0.00    +0.000 C 
ATOM     18  C   UNL     1       1.617   9.314  18.993  0.00  0.00    +0.000 C 
BRANCH  16  19
ATOM     19  C   UNL     1      -1.396  12.055  19.315  0.00  0.00    +0.000 C 
ATOM     20  C   UNL     1      -2.061  12.638  20.590  0.00  0.00    +0.000 C 
ATOM     21  C   UNL     1      -0.995  13.272  18.445  0.00  0.00    +0.000 C 
ATOM     22  C   UNL     1      -2.496  11.291  18.548  0.00  0.00    +0.000 C 
ENDBRANCH  16  19
ENDBRANCH  12  13
ENDBRANCH   4  12
BRANCH   5  23
ATOM     23  C   UNL     1       2.778   6.560  17.831  0.00  0.00    +0.000 C 
BRANCH  23  24
ATOM     24  N   UNL     1       4.168   7.051  17.717  0.00  0.00    +0.000 NA
ATOM     25  C   UNL     1       4.556   7.604  16.419  0.00  0.00    +0.000 C 
ATOM     26  C   UNL     1       5.076   6.620  15.347  0.00  0.00    +0.000 C 
ATOM     27  C   UNL     1       5.831   5.316  15.759  0.00  0.00    +0.000 C 
ATOM     28  C   UNL     1       5.190   4.264  14.788  0.00  0.00    +0.000 C 
ATOM     29  C   UNL     1       5.724   5.058  17.285  0.00  0.00    +0.000 C 
ATOM     30  C   UNL     1       5.243   6.204  18.197  0.00  0.00    +0.000 C 
BRANCH  27  31
ATOM     31  C   UNL     1       7.326   4.995  15.482  0.00  0.00    +0.000 C 
ATOM     32  O   UNL     1       7.876   5.298  14.409  0.00  0.00    +0.000 OA
BRANCH  31  33
ATOM     33  O   UNL     1       8.022   4.377  16.425  0.00  0.00    +0.000 OA
ATOM     34  H   UNL     1       7.488   3.883  17.072  0.00  0.00    +0.000 HD
ENDBRANCH  31  33
ENDBRANCH  27  31
ENDBRANCH  23  24
ENDBRANCH   5  23
TORSDOF 7
ENDMDL
MODEL 7
REMARK VINA RESULT:      -7.7      2.109      5.264
REMARK  Name = 
REMARK  12 active torsions:
REMARK  status: ('A' for Active; 'I' for Inactive)
REMARK    1  A    between atoms: C_1  and  C_2
REMARK    2  A    between atoms: C_4  and  O_5
REMARK    3  A    between atoms: O_5  and  C_6
REMARK    4  A    between atoms: C_9  and  C_10
REMARK    5  A    between atoms: C_10  and  C_11
REMARK    6  A    between atoms: C_10  and  C_12
REMARK    7  A    between atoms: C_10  and  C_13
REMARK    8  A    between atoms: C_16  and  C_17
REMARK    9  A    between atoms: C_17  and  N_18
REMARK   10  A    between atoms: C_21  and  C_22
REMARK   11  A    between atoms: C_21  and  C_23
REMARK   12  A    between atoms: C_23  and  O_25
REMARK                            x       y       z     vdW  Elec       q    Type
REMARK                         _______ _______ _______ _____ _____    ______ ____
ROOT
ATOM      1  C   UNL     1       1.232   2.673  21.969  0.00  0.00    +0.000 C 
ATOM      2  C   UNL     1       1.701   3.656  20.918  0.00  0.00    +0.000 A 
ATOM      3  C   UNL     1       1.673   5.051  21.206  0.00  0.00    +0.000 A 
ATOM      4  C   UNL     1       2.117   5.999  20.284  0.00  0.00    +0.000 A 
ATOM      5  C   UNL     1       2.468   5.530  18.961  0.00  0.00    +0.000 A 
ATOM      6  C   UNL     1       2.477   4.099  18.660  0.00  0.00    +0.000 A 
ATOM      7  C   UNL     1       2.773   3.539  17.386  0.00  0.00    +0.000 A 
ATOM      8  C   UNL     1       2.974   2.175  17.140  0.00  0.00    +0.000 A 
ATOM      9  C   UNL     1       2.770   1.280  18.166  0.00  0.00    +0.000 A 
ATOM     10  C   UNL     1       2.337   1.765  19.394  0.00  0.00    +0.000 A 
ATOM     11  C   UNL     1       2.173   3.166  19.673  0.00  0.00    +0.000 A 
ENDROOT
BRANCH   4  12
ATOM     12  O   UNL     1       2.175   7.344  20.530  0.00  0.00    +0.000 OA
BRANCH  12  13
ATOM     13  C   UNL     1       1.367   8.493  20.140  0.00  0.00    +0.000 C 
ATOM     14  C   UNL     1       0.916   9.519  21.191  0.00  0.00    +0.000 C 
ATOM     15  C   UNL     1      -0.300  10.341  20.671  0.00  0.00    +0.000 C 
ATOM     16  C   UNL     1      -0.010  11.135  19.370  0.00  0.00    +0.000 C 
ATOM     17  C   UNL     1       0.581  10.152  18.319  0.00  0.00    +0.000 C 
ATOM     18  C   UNL     1       1.747   9.248  18.848  0.00  0.00    +0.000 C 
BRANCH  16  19
ATOM     19  C   UNL     1      -1.247  12.030  18.866  0.00  0.00    +0.000 C 
ATOM     20  C   UNL     1      -2.000  11.320  17.710  0.00  0.00    +0.000 C 
ATOM     21  C   UNL     1      -2.291  12.246  19.989  0.00  0.00    +0.000 C 
ATOM     22  C   UNL     1      -0.844  13.425  18.345  0.00  0.00    +0.000 C 
ENDBRANCH  16  19
ENDBRANCH  12  13
ENDBRANCH   4  12
BRANCH   5  23
ATOM     23  C   UNL     1       2.775   6.528  17.803  0.00  0.00    +0.000 C 
BRANCH  23  24
ATOM     24  N   UNL     1       4.156   7.041  17.671  0.00  0.00    +0.000 NA
ATOM     25  C   UNL     1       4.545   7.521  16.345  0.00  0.00    +0.000 C 
ATOM     26  C   UNL     1       5.096   6.485  15.339  0.00  0.00    +0.000 C 
ATOM     27  C   UNL     1       5.875   5.225  15.838  0.00  0.00    +0.000 C 
ATOM     28  C   UNL     1       5.265   4.102  14.927  0.00  0.00    +0.000 C 
ATOM     29  C   UNL     1       5.757   5.059  17.376  0.00  0.00    +0.000 C 
ATOM     30  C   UNL     1       5.244   6.248  18.212  0.00  0.00    +0.000 C 
BRANCH  27  31
ATOM     31  C   UNL     1       7.378   4.921  15.594  0.00  0.00    +0.000 C 
ATOM     32  O   UNL     1       8.042   4.216  16.374  0.00  0.00    +0.000 OA
BRANCH  31  33
ATOM     33  O   UNL     1       7.959   5.436  14.520  0.00  0.00    +0.000 OA
ATOM     34  H   UNL     1       8.904   5.645  14.626  0.00  0.00    +0.000 HD
ENDBRANCH  31  33
ENDBRANCH  27  31
ENDBRANCH  23  24
ENDBRANCH   5  23
TORSDOF 7
ENDMDL
MODEL 8
REMARK VINA RESULT:      -7.7      3.649      7.128
REMARK  Name = 
REMARK  12 active torsions:
REMARK  status: ('A' for Active; 'I' for Inactive)
REMARK    1  A    between atoms: C_1  and  C_2
REMARK    2  A    between atoms: C_4  and  O_5
REMARK    3  A    between atoms: O_5  and  C_6
REMARK    4  A    between atoms: C_9  and  C_10
REMARK    5  A    between atoms: C_10  and  C_11
REMARK    6  A    between atoms: C_10  and  C_12
REMARK    7  A    between atoms: C_10  and  C_13
REMARK    8  A    between atoms: C_16  and  C_17
REMARK    9  A    between atoms: C_17  and  N_18
REMARK   10  A    between atoms: C_21  and  C_22
REMARK   11  A    between atoms: C_21  and  C_23
REMARK   12  A    between atoms: C_23  and  O_25
REMARK                            x       y       z     vdW  Elec       q    Type
REMARK                         _______ _______ _______ _____ _____    ______ ____
ROOT
ATOM      1  C   UNL     1       4.207   7.061  16.918  0.00  0.00    +0.000 C 
ATOM      2  C   UNL     1       3.115   7.481  17.877  0.00  0.00    +0.000 A 
ATOM      3  C   UNL     1       2.467   8.735  17.690  0.00  0.00    +0.000 A 
ATOM      4  C   UNL     1       1.436   9.160  18.530  0.00  0.00    +0.000 A 
ATOM      5  C   UNL     1       1.146   8.350  19.693  0.00  0.00    +0.000 A 
ATOM      6  C   UNL     1       1.828   7.072  19.895  0.00  0.00    +0.000 A 
ATOM      7  C   UNL     1       1.641   6.221  21.020  0.00  0.00    +0.000 A 
ATOM      8  C   UNL     1       2.137   4.915  21.125  0.00  0.00    +0.000 A 
ATOM      9  C   UNL     1       2.957   4.437  20.129  0.00  0.00    +0.000 A 
ATOM     10  C   UNL     1       3.290   5.283  19.079  0.00  0.00    +0.000 A 
ATOM     11  C   UNL     1       2.750   6.607  18.934  0.00  0.00    +0.000 A 
ENDROOT
BRANCH   4  12
ATOM     12  O   UNL     1       0.734  10.322  18.359  0.00  0.00    +0.000 OA
BRANCH  12  13
ATOM     13  C   UNL     1      -0.682  10.664  18.292  0.00  0.00    +0.000 C 
ATOM     14  C   UNL     1      -1.126  12.133  18.245  0.00  0.00    +0.000 C 
ATOM     15  C   UNL     1      -2.617  12.272  18.671  0.00  0.00    +0.000 C 
ATOM     16  C   UNL     1      -3.602  11.480  17.771  0.00  0.00    +0.000 C 
ATOM     17  C   UNL     1      -3.108  10.009  17.680  0.00  0.00    +0.000 C 
ATOM     18  C   UNL     1      -1.586   9.847  17.343  0.00  0.00    +0.000 C 
BRANCH  16  19
ATOM     19  C   UNL     1      -5.147  11.671  18.175  0.00  0.00    +0.000 C 
ATOM     20  C   UNL     1      -5.269  12.466  19.502  0.00  0.00    +0.000 C 
ATOM     21  C   UNL     1      -5.919  12.490  17.111  0.00  0.00    +0.000 C 
ATOM     22  C   UNL     1      -5.913  10.347  18.375  0.00  0.00    +0.000 C 
ENDBRANCH  16  19
ENDBRANCH  12  13
ENDBRANCH   4  12
BRANCH   5  23
ATOM     23  C   UNL     1       0.162   8.842  20.798  0.00  0.00    +0.000 C 
BRANCH  23  24
ATOM     24  N   UNL     1       0.707   9.661  21.903  0.00  0.00    +0.000 NA
ATOM     25  C   UNL     1      -0.078   9.686  23.138  0.00  0.00    +0.000 C 
ATOM     26  C   UNL     1      -1.209  10.734  23.247  0.00  0.00    +0.000 C 
ATOM     27  C   UNL     1      -1.101  12.106  22.507  0.00  0.00    +0.000 C 
ATOM     28  C   UNL     1      -2.551  12.264  21.930  0.00  0.00    +0.000 C 
ATOM     29  C   UNL     1       0.086  12.117  21.507  0.00  0.00    +0.000 C 
ATOM     30  C   UNL     1       1.153  11.009  21.612  0.00  0.00    +0.000 C 
BRANCH  27  31
ATOM     31  C   UNL     1      -0.972  13.501  23.176  0.00  0.00    +0.000 C 
ATOM     32  O   UNL     1      -1.734  13.867  24.088  0.00  0.00    +0.000 OA
BRANCH  31  33
ATOM     33  O   UNL     1      -0.018  14.318  22.752  0.00  0.00    +0.000 OA
ATOM     34  H   UNL     1      -0.301  14.966  22.083  0.00  0.00    +0.000 HD
ENDBRANCH  31  33
ENDBRANCH  27  31
ENDBRANCH  23  24
ENDBRANCH   5  23
TORSDOF 7
ENDMDL
MODEL 9
REMARK VINA RESULT:      -7.6      0.802      1.409
REMARK  Name = 
REMARK  12 active torsions:
REMARK  status: ('A' for Active; 'I' for Inactive)
REMARK    1  A    between atoms: C_1  and  C_2
REMARK    2  A    between atoms: C_4  and  O_5
REMARK    3  A    between atoms: O_5  and  C_6
REMARK    4  A    between atoms: C_9  and  C_10
REMARK    5  A    between atoms: C_10  and  C_11
REMARK    6  A    between atoms: C_10  and  C_12
REMARK    7  A    between atoms: C_10  and  C_13
REMARK    8  A    between atoms: C_16  and  C_17
REMARK    9  A    between atoms: C_17  and  N_18
REMARK   10  A    between atoms: C_21  and  C_22
REMARK   11  A    between atoms: C_21  and  C_23
REMARK   12  A    between atoms: C_23  and  O_25
REMARK                            x       y       z     vdW  Elec       q    Type
REMARK                         _______ _______ _______ _____ _____    ______ ____
ROOT
ATOM      1  C   UNL     1       7.902   6.746  18.035  0.00  0.00    +0.000 C 
ATOM      2  C   UNL     1       6.500   6.277  17.715  0.00  0.00    +0.000 A 
ATOM      3  C   UNL     1       5.428   6.645  18.578  0.00  0.00    +0.000 A 
ATOM      4  C   UNL     1       4.111   6.262  18.316  0.00  0.00    +0.000 A 
ATOM      5  C   UNL     1       3.888   5.348  17.217  0.00  0.00    +0.000 A 
ATOM      6  C   UNL     1       4.994   4.955  16.344  0.00  0.00    +0.000 A 
ATOM      7  C   UNL     1       4.887   4.038  15.261  0.00  0.00    +0.000 A 
ATOM      8  C   UNL     1       5.886   3.808  14.307  0.00  0.00    +0.000 A 
ATOM      9  C   UNL     1       7.108   4.421  14.468  0.00  0.00    +0.000 A 
ATOM     10  C   UNL     1       7.312   5.212  15.592  0.00  0.00    +0.000 A 
ATOM     11  C   UNL     1       6.280   5.495  16.552  0.00  0.00    +0.000 A 
ENDROOT
BRANCH   4  12
ATOM     12  O   UNL     1       3.035   6.641  19.072  0.00  0.00    +0.000 OA
BRANCH  12  13
ATOM     13  C   UNL     1       2.231   7.853  19.174  0.00  0.00    +0.000 C 
ATOM     14  C   UNL     1       1.638   8.501  17.915  0.00  0.00    +0.000 C 
ATOM     15  C   UNL     1       1.265   9.989  18.184  0.00  0.00    +0.000 C 
ATOM     16  C   UNL     1       0.220  10.177  19.316  0.00  0.00    +0.000 C 
ATOM     17  C   UNL     1       0.720   9.415  20.576  0.00  0.00    +0.000 C 
ATOM     18  C   UNL     1       1.189   7.943  20.311  0.00  0.00    +0.000 C 
BRANCH  16  19
ATOM     19  C   UNL     1      -0.209  11.708  19.554  0.00  0.00    +0.000 C 
ATOM     20  C   UNL     1      -0.576  11.947  21.042  0.00  0.00    +0.000 C 
ATOM     21  C   UNL     1       0.951  12.683  19.236  0.00  0.00    +0.000 C 
ATOM     22  C   UNL     1      -1.424  12.159  18.717  0.00  0.00    +0.000 C 
ENDBRANCH  16  19
ENDBRANCH  12  13
ENDBRANCH   4  12
BRANCH   5  23
ATOM     23  C   UNL     1       2.492   4.700  16.973  0.00  0.00    +0.000 C 
BRANCH  23  24
ATOM     24  N   UNL     1       2.235   3.360  17.544  0.00  0.00    +0.000 NA
ATOM     25  C   UNL     1       0.969   3.192  18.258  0.00  0.00    +0.000 C 
ATOM     26  C   UNL     1       0.936   3.566  19.758  0.00  0.00    +0.000 C 
ATOM     27  C   UNL     1       2.216   3.427  20.643  0.00  0.00    +0.000 C 
ATOM     28  C   UNL     1       2.167   4.758  21.472  0.00  0.00    +0.000 C 
ATOM     29  C   UNL     1       3.475   3.154  19.779  0.00  0.00    +0.000 C 
ATOM     30  C   UNL     1       3.287   2.721  18.312  0.00  0.00    +0.000 C 
BRANCH  27  31
ATOM     31  C   UNL     1       2.412   2.435  21.822  0.00  0.00    +0.000 C 
ATOM     32  O   UNL     1       1.516   2.220  22.658  0.00  0.00    +0.000 OA
BRANCH  31  33
ATOM     33  O   UNL     1       3.574   1.808  21.931  0.00  0.00    +0.000 OA
ATOM     34  H   UNL     1       4.218   2.013  21.230  0.00  0.00    +0.000 HD
ENDBRANCH  31  33
ENDBRANCH  27  31
ENDBRANCH  23  24
ENDBRANCH   5  23
TORSDOF 7
ENDMDL
