MODEL 1
REMARK VINA RESULT:      -7.4      0.000      0.000
REMARK  Name = 
REMARK  9 active torsions:
REMARK  status: ('A' for Active; 'I' for Inactive)
REMARK    1  A    between atoms: C_1  and  O_2
REMARK    2  A    between atoms: O_2  and  C_3
REMARK    3  A    between atoms: C_6  and  C_7
REMARK    4  A    between atoms: C_7  and  N_8
REMARK    5  A    between atoms: C_9  and  N_10
REMARK    6  A    between atoms: C_13  and  O_14
REMARK    7  A    between atoms: O_14  and  C_15
REMARK    8  A    between atoms: C_16  and  O_17
REMARK    9  A    between atoms: O_17  and  C_18
REMARK                            x       y       z     vdW  Elec       q    Type
REMARK                         _______ _______ _______ _____ _____    ______ ____
ROOT
ATOM      1  N   UNL     1       1.011   9.541  19.747  0.00  0.00    +0.000 N 
ATOM      2  C   UNL     1       1.802   9.116  18.660  0.00  0.00    +0.000 A 
ATOM      3  C   UNL     1       2.380   7.892  18.704  0.00  0.00    +0.000 A 
ATOM      4  C   UNL     1       3.192   7.282  17.666  0.00  0.00    +0.000 A 
ATOM      5  C   UNL     1       3.747   6.063  17.811  0.00  0.00    +0.000 A 
ATOM      6  C   UNL     1       3.554   5.304  19.049  0.00  0.00    +0.000 A 
ATOM      7  C   UNL     1       2.827   5.810  20.059  0.00  0.00    +0.000 A 
ATOM      8  C   UNL     1       2.143   7.124  19.949  0.00  0.00    +0.000 A 
ATOM      9  N   UNL     1       1.394   7.496  20.924  0.00  0.00    +0.000 NA
ATOM     10  C   UNL     1       0.737   8.695  20.843  0.00  0.00    +0.000 A 
ATOM     11  S   UNL     1      -0.380   9.047  22.072  0.00  0.00    +0.000 S 
ENDROOT
BRANCH   2  12
ATOM     12  N   UNL     1       1.954   9.947  17.551  0.00  0.00    +0.000 N 
ATOM     13  H   UNL     1       1.784  10.925  17.769  0.00  0.00    +0.000 HD
ATOM     14  H   UNL     1       1.397   9.687  16.745  0.00  0.00    +0.000 HD
ENDBRANCH   2  12
BRANCH   5  15
ATOM     15  O   UNL     1       4.540   5.432  16.875  0.00  0.00    +0.000 OA
ATOM     16  C   UNL     1       5.174   6.243  15.895  0.00  0.00    +0.000 C 
ENDBRANCH   5  15
BRANCH   6  17
ATOM     17  O   UNL     1       4.184   4.074  19.057  0.00  0.00    +0.000 OA
ATOM     18  C   UNL     1       3.375   2.909  19.174  0.00  0.00    +0.000 C 
ENDBRANCH   6  17
BRANCH   1  19
ATOM     19  C   UNL     1       0.432  10.905  19.707  0.00  0.00    +0.000 C 
BRANCH  19  23
ATOM     20  C   UNL     1      -3.519  11.347  17.928  0.00  0.00    +0.000 A 
ATOM     21  C   UNL     1      -3.159  12.030  19.100  0.00  0.00    +0.000 A 
ATOM     22  C   UNL     1      -1.897  11.859  19.681  0.00  0.00    +0.000 A 
ATOM     23  C   UNL     1      -0.959  10.996  19.103  0.00  0.00    +0.000 A 
ATOM     24  C   UNL     1      -1.335  10.299  17.945  0.00  0.00    +0.000 A 
ATOM     25  C   UNL     1      -2.587  10.486  17.342  0.00  0.00    +0.000 A 
ATOM     26 CL   UNL     1      -2.804   9.684  15.827  0.00  0.00    +0.000 Cl
BRANCH  20  28
ATOM     27  C   UNL     1      -5.884  11.182  18.159  0.00  0.00    +0.000 C 
ATOM     28  O   UNL     1      -4.757  11.699  17.460  0.00  0.00    +0.000 OA
ENDBRANCH  20  28
ENDBRANCH  19  23
ENDBRANCH   1  19
TORSDOF 6
ENDMDL
MODEL 2
REMARK VINA RESULT:      -7.1      1.229      1.547
REMARK  Name = 
REMARK  9 active torsions:
REMARK  status: ('A' for Active; 'I' for Inactive)
REMARK    1  A    between atoms: C_1  and  O_2
REMARK    2  A    between atoms: O_2  and  C_3
REMARK    3  A    between atoms: C_6  and  C_7
REMARK    4  A    between atoms: C_7  and  N_8
REMARK    5  A    between atoms: C_9  and  N_10
REMARK    6  A    between atoms: C_13  and  O_14
REMARK    7  A    between atoms: O_14  and  C_15
REMARK    8  A    between atoms: C_16  and  O_17
REMARK    9  A    between atoms: O_17  and  C_18
REMARK                            x       y       z     vdW  Elec       q    Type
REMARK                         _______ _______ _______ _____ _____    ______ ____
ROOT
ATOM      1  N   UNL     1       1.026   9.693  19.780  0.00  0.00    +0.000 N 
ATOM      2  C   UNL     1       1.772   9.235  18.675  0.00  0.00    +0.000 A 
ATOM      3  C   UNL     1       2.308   7.992  18.710  0.00  0.00    +0.000 A 
ATOM      4  C   UNL     1       3.071   7.349  17.655  0.00  0.00    +0.000 A 
ATOM      5  C   UNL     1       3.587   6.112  17.793  0.00  0.00    +0.000 A 
ATOM      6  C   UNL     1       3.402   5.367  19.040  0.00  0.00    +0.000 A 
ATOM      7  C   UNL     1       2.720   5.903  20.067  0.00  0.00    +0.000 A 
ATOM      8  C   UNL     1       2.080   7.239  19.967  0.00  0.00    +0.000 A 
ATOM      9  N   UNL     1       1.370   7.642  20.959  0.00  0.00    +0.000 NA
ATOM     10  C   UNL     1       0.753   8.863  20.889  0.00  0.00    +0.000 A 
ATOM     11  S   UNL     1      -0.318   9.259  22.145  0.00  0.00    +0.000 S 
ENDROOT
BRANCH   2  12
ATOM     12  N   UNL     1       1.922  10.054  17.557  0.00  0.00    +0.000 N 
ATOM     13  H   UNL     1       1.114  10.650  17.398  0.00  0.00    +0.000 HD
ATOM     14  H   UNL     1       2.145   9.565  16.698  0.00  0.00    +0.000 HD
ENDBRANCH   2  12
BRANCH   5  15
ATOM     15  O   UNL     1       4.333   5.449  16.839  0.00  0.00    +0.000 OA
ATOM     16  C   UNL     1       5.414   6.152  16.243  0.00  0.00    +0.000 C 
ENDBRANCH   5  15
BRANCH   6  17
ATOM     17  O   UNL     1       3.989   4.116  19.039  0.00  0.00    +0.000 OA
ATOM     18  C   UNL     1       3.320   3.062  19.721  0.00  0.00    +0.000 C 
ENDBRANCH   6  17
BRANCH   1  19
ATOM     19  C   UNL     1       0.494  11.076  19.747  0.00  0.00    +0.000 C 
BRANCH  19  23
ATOM     20  C   UNL     1      -3.651  11.262  18.417  0.00  0.00    +0.000 A 
ATOM     21  C   UNL     1      -2.733  10.367  17.846  0.00  0.00    +0.000 A 
ATOM     22  C   UNL     1      -1.396  10.334  18.259  0.00  0.00    +0.000 A 
ATOM     23  C   UNL     1      -0.940  11.202  19.258  0.00  0.00    +0.000 A 
ATOM     24  C   UNL     1      -1.857  12.110  19.808  0.00  0.00    +0.000 A 
ATOM     25  C   UNL     1      -3.203  12.129  19.418  0.00  0.00    +0.000 A 
ATOM     26 CL   UNL     1      -4.220  13.187  20.331  0.00  0.00    +0.000 Cl
BRANCH  20  28
ATOM     27  C   UNL     1      -5.419  12.081  17.048  0.00  0.00    +0.000 C 
ATOM     28  O   UNL     1      -4.926  11.096  17.950  0.00  0.00    +0.000 OA
ENDBRANCH  20  28
ENDBRANCH  19  23
ENDBRANCH   1  19
TORSDOF 6
ENDMDL
MODEL 3
REMARK VINA RESULT:      -6.7      1.522      2.632
REMARK  Name = 
REMARK  9 active torsions:
REMARK  status: ('A' for Active; 'I' for Inactive)
REMARK    1  A    between atoms: C_1  and  O_2
REMARK    2  A    between atoms: O_2  and  C_3
REMARK    3  A    between atoms: C_6  and  C_7
REMARK    4  A    between atoms: C_7  and  N_8
REMARK    5  A    between atoms: C_9  and  N_10
REMARK    6  A    between atoms: C_13  and  O_14
REMARK    7  A    between atoms: O_14  and  C_15
REMARK    8  A    between atoms: C_16  and  O_17
REMARK    9  A    between atoms: O_17  and  C_18
REMARK                            x       y       z     vdW  Elec       q    Type
REMARK                         _______ _______ _______ _____ _____    ______ ____
ROOT
ATOM      1  N   UNL     1       1.084   9.801  19.767  0.00  0.00    +0.000 N 
ATOM      2  C   UNL     1       1.037   8.597  20.497  0.00  0.00    +0.000 A 
ATOM      3  C   UNL     1       1.708   7.515  20.032  0.00  0.00    +0.000 A 
ATOM      4  C   UNL     1       1.796   6.214  20.669  0.00  0.00    +0.000 A 
ATOM      5  C   UNL     1       2.471   5.188  20.115  0.00  0.00    +0.000 A 
ATOM      6  C   UNL     1       3.139   5.352  18.822  0.00  0.00    +0.000 A 
ATOM      7  C   UNL     1       3.088   6.524  18.166  0.00  0.00    +0.000 A 
ATOM      8  C   UNL     1       2.407   7.712  18.741  0.00  0.00    +0.000 A 
ATOM      9  N   UNL     1       2.480   8.819  18.092  0.00  0.00    +0.000 NA
ATOM     10  C   UNL     1       1.877   9.937  18.607  0.00  0.00    +0.000 A 
ATOM     11  S   UNL     1       2.163  11.405  17.805  0.00  0.00    +0.000 S 
ENDROOT
BRANCH   2  12
ATOM     12  N   UNL     1       0.327   8.544  21.696  0.00  0.00    +0.000 N 
ATOM     13  H   UNL     1      -0.090   9.438  21.943  0.00  0.00    +0.000 HD
ATOM     14  H   UNL     1       0.854   8.197  22.488  0.00  0.00    +0.000 HD
ENDBRANCH   2  12
BRANCH   5  15
ATOM     15  O   UNL     1       2.583   3.923  20.656  0.00  0.00    +0.000 OA
ATOM     16  C   UNL     1       1.385   3.188  20.866  0.00  0.00    +0.000 C 
ENDBRANCH   5  15
BRANCH   6  17
ATOM     17  O   UNL     1       3.786   4.216  18.376  0.00  0.00    +0.000 OA
ATOM     18  C   UNL     1       3.260   3.551  17.233  0.00  0.00    +0.000 C 
ENDBRANCH   6  17
BRANCH   1  19
ATOM     19  C   UNL     1       0.299  10.957  20.261  0.00  0.00    +0.000 C 
BRANCH  19  23
ATOM     20  C   UNL     1      -3.602  11.576  18.423  0.00  0.00    +0.000 A 
ATOM     21  C   UNL     1      -3.202  12.291  19.563  0.00  0.00    +0.000 A 
ATOM     22  C   UNL     1      -1.959  12.066  20.164  0.00  0.00    +0.000 A 
ATOM     23  C   UNL     1      -1.079  11.112  19.639  0.00  0.00    +0.000 A 
ATOM     24  C   UNL     1      -1.495  10.384  18.514  0.00  0.00    +0.000 A 
ATOM     25  C   UNL     1      -2.727  10.624  17.891  0.00  0.00    +0.000 A 
ATOM     26 CL   UNL     1      -2.989   9.763  16.416  0.00  0.00    +0.000 Cl
BRANCH  20  28
ATOM     27  C   UNL     1      -5.924  11.128  18.141  0.00  0.00    +0.000 C 
ATOM     28  O   UNL     1      -4.809  11.987  17.927  0.00  0.00    +0.000 OA
ENDBRANCH  20  28
ENDBRANCH  19  23
ENDBRANCH   1  19
TORSDOF 6
ENDMDL
MODEL 4
REMARK VINA RESULT:      -6.7      0.960      1.040
REMARK  Name = 
REMARK  9 active torsions:
REMARK  status: ('A' for Active; 'I' for Inactive)
REMARK    1  A    between atoms: C_1  and  O_2
REMARK    2  A    between atoms: O_2  and  C_3
REMARK    3  A    between atoms: C_6  and  C_7
REMARK    4  A    between atoms: C_7  and  N_8
REMARK    5  A    between atoms: C_9  and  N_10
REMARK    6  A    between atoms: C_13  and  O_14
REMARK    7  A    between atoms: O_14  and  C_15
REMARK    8  A    between atoms: C_16  and  O_17
REMARK    9  A    between atoms: O_17  and  C_18
REMARK                            x       y       z     vdW  Elec       q    Type
REMARK                         _______ _______ _______ _____ _____    ______ ____
ROOT
ATOM      1  N   UNL     1       0.614  10.212  20.148  0.00  0.00    +0.000 N 
ATOM      2  C   UNL     1       1.311   9.726  19.023  0.00  0.00    +0.000 A 
ATOM      3  C   UNL     1       1.870   8.493  19.074  0.00  0.00    +0.000 A 
ATOM      4  C   UNL     1       2.589   7.826  18.005  0.00  0.00    +0.000 A 
ATOM      5  C   UNL     1       3.133   6.603  18.158  0.00  0.00    +0.000 A 
ATOM      6  C   UNL     1       3.023   5.899  19.438  0.00  0.00    +0.000 A 
ATOM      7  C   UNL     1       2.384   6.460  20.479  0.00  0.00    +0.000 A 
ATOM      8  C   UNL     1       1.717   7.782  20.365  0.00  0.00    +0.000 A 
ATOM      9  N   UNL     1       1.051   8.209  21.378  0.00  0.00    +0.000 NA
ATOM     10  C   UNL     1       0.410   9.416  21.297  0.00  0.00    +0.000 A 
ATOM     11  S   UNL     1      -0.603   9.841  22.591  0.00  0.00    +0.000 S 
ENDROOT
BRANCH   2  12
ATOM     12  N   UNL     1       1.391  10.508  17.871  0.00  0.00    +0.000 N 
ATOM     13  H   UNL     1       2.297  10.955  17.765  0.00  0.00    +0.000 HD
ATOM     14  H   UNL     1       0.665  11.209  17.782  0.00  0.00    +0.000 HD
ENDBRANCH   2  12
BRANCH   5  15
ATOM     15  O   UNL     1       3.841   5.918  17.191  0.00  0.00    +0.000 OA
ATOM     16  C   UNL     1       4.973   6.563  16.624  0.00  0.00    +0.000 C 
ENDBRANCH   5  15
BRANCH   6  17
ATOM     17  O   UNL     1       3.631   4.658  19.450  0.00  0.00    +0.000 OA
ATOM     18  C   UNL     1       2.839   3.529  19.803  0.00  0.00    +0.000 C 
ENDBRANCH   6  17
BRANCH   1  19
ATOM     19  C   UNL     1       0.057  11.584  20.095  0.00  0.00    +0.000 C 
BRANCH  19  23
ATOM     20  C   UNL     1      -4.130  12.011  18.971  0.00  0.00    +0.000 A 
ATOM     21  C   UNL     1      -3.616  12.604  20.134  0.00  0.00    +0.000 A 
ATOM     22  C   UNL     1      -2.276  12.438  20.503  0.00  0.00    +0.000 A 
ATOM     23  C   UNL     1      -1.413  11.668  19.715  0.00  0.00    +0.000 A 
ATOM     24  C   UNL     1      -1.939  11.058  18.567  0.00  0.00    +0.000 A 
ATOM     25  C   UNL     1      -3.273  11.243  18.177  0.00  0.00    +0.000 A 
ATOM     26 CL   UNL     1      -3.695  10.567  16.644  0.00  0.00    +0.000 Cl
BRANCH  20  28
ATOM     27  C   UNL     1      -6.416  11.342  18.948  0.00  0.00    +0.000 C 
ATOM     28  O   UNL     1      -5.434  12.348  18.728  0.00  0.00    +0.000 OA
ENDBRANCH  20  28
ENDBRANCH  19  23
ENDBRANCH   1  19
TORSDOF 6
ENDMDL
MODEL 5
REMARK VINA RESULT:      -6.6      2.677      8.074
REMARK  Name = 
REMARK  9 active torsions:
REMARK  status: ('A' for Active; 'I' for Inactive)
REMARK    1  A    between atoms: C_1  and  O_2
REMARK    2  A    between atoms: O_2  and  C_3
REMARK    3  A    between atoms: C_6  and  C_7
REMARK    4  A    between atoms: C_7  and  N_8
REMARK    5  A    between atoms: C_9  and  N_10
REMARK    6  A    between atoms: C_13  and  O_14
REMARK    7  A    between atoms: O_14  and  C_15
REMARK    8  A    between atoms: C_16  and  O_17
REMARK    9  A    between atoms: O_17  and  C_18
REMARK                            x       y       z     vdW  Elec       q    Type
REMARK                         _______ _______ _______ _____ _____    ______ ____
ROOT
ATOM      1  N   UNL     1       0.035  11.150  18.818  0.00  0.00    +0.000 N 
ATOM      2  C   UNL     1      -1.196  10.814  18.218  0.00  0.00    +0.000 A 
ATOM      3  C   UNL     1      -2.336  11.366  18.698  0.00  0.00    +0.000 A 
ATOM      4  C   UNL     1      -3.678  11.161  18.184  0.00  0.00    +0.000 A 
ATOM      5  C   UNL     1      -4.759  11.737  18.746  0.00  0.00    +0.000 A 
ATOM      6  C   UNL     1      -4.612  12.594  19.924  0.00  0.00    +0.000 A 
ATOM      7  C   UNL     1      -3.403  12.818  20.466  0.00  0.00    +0.000 A 
ATOM      8  C   UNL     1      -2.163  12.259  19.868  0.00  0.00    +0.000 A 
ATOM      9  N   UNL     1      -1.039  12.593  20.393  0.00  0.00    +0.000 NA
ATOM     10  C   UNL     1       0.122  12.107  19.852  0.00  0.00    +0.000 A 
ATOM     11  S   UNL     1       1.577  12.727  20.466  0.00  0.00    +0.000 S 
ENDROOT
BRANCH   2  12
ATOM     12  N   UNL     1      -1.218   9.946  17.127  0.00  0.00    +0.000 N 
ATOM     13  H   UNL     1      -2.160   9.754  16.799  0.00  0.00    +0.000 HD
ATOM     14  H   UNL     1      -0.733   9.068  17.273  0.00  0.00    +0.000 HD
ENDBRANCH   2  12
BRANCH   5  15
ATOM     15  O   UNL     1      -6.061  11.574  18.319  0.00  0.00    +0.000 OA
ATOM     16  C   UNL     1      -6.765  10.426  18.775  0.00  0.00    +0.000 C 
ENDBRANCH   5  15
BRANCH   6  17
ATOM     17  O   UNL     1      -5.804  13.111  20.394  0.00  0.00    +0.000 OA
ATOM     18  C   UNL     1      -5.986  13.200  21.803  0.00  0.00    +0.000 C 
ENDBRANCH   6  17
BRANCH   1  19
ATOM     19  C   UNL     1       1.266  10.495  18.316  0.00  0.00    +0.000 C 
BRANCH  19  23
ATOM     20  C   UNL     1       2.010   6.618  20.159  0.00  0.00    +0.000 A 
ATOM     21  C   UNL     1       1.343   7.644  20.845  0.00  0.00    +0.000 A 
ATOM     22  C   UNL     1       1.133   8.897  20.256  0.00  0.00    +0.000 A 
ATOM     23  C   UNL     1       1.591   9.157  18.959  0.00  0.00    +0.000 A 
ATOM     24  C   UNL     1       2.278   8.134  18.288  0.00  0.00    +0.000 A 
ATOM     25  C   UNL     1       2.467   6.869  18.862  0.00  0.00    +0.000 A 
ATOM     26 CL   UNL     1       3.171   5.684  17.820  0.00  0.00    +0.000 Cl
BRANCH  20  28
ATOM     27  C   UNL     1       1.126   4.429  20.473  0.00  0.00    +0.000 C 
ATOM     28  O   UNL     1       2.049   5.442  20.857  0.00  0.00    +0.000 OA
ENDBRANCH  20  28
ENDBRANCH  19  23
ENDBRANCH   1  19
TORSDOF 6
ENDMDL
MODEL 6
REMARK VINA RESULT:      -6.4      4.934      7.286
REMARK  Name = 
REMARK  9 active torsions:
REMARK  status: ('A' for Active; 'I' for Inactive)
REMARK    1  A    between atoms: C_1  and  O_2
REMARK    2  A    between atoms: O_2  and  C_3
REMARK    3  A    between atoms: C_6  and  C_7
REMARK    4  A    between atoms: C_7  and  N_8
REMARK    5  A    between atoms: C_9  and  N_10
REMARK    6  A    between atoms: C_13  and  O_14
REMARK    7  A    between atoms: O_14  and  C_15
REMARK    8  A    between atoms: C_16  and  O_17
REMARK    9  A    between atoms: O_17  and  C_18
REMARK                            x       y       z     vdW  Elec       q    Type
REMARK                         _______ _______ _______ _____ _____    ______ ____
ROOT
ATOM      1  N   UNL     1       5.722   4.390  17.926  0.00  0.00    +0.000 N 
ATOM      2  C   UNL     1       5.196   3.743  16.789  0.00  0.00    +0.000 A 
ATOM      3  C   UNL     1       5.767   3.963  15.581  0.00  0.00    +0.000 A 
ATOM      4  C   UNL     1       5.380   3.359  14.319  0.00  0.00    +0.000 A 
ATOM      5  C   UNL     1       5.995   3.659  13.159  0.00  0.00    +0.000 A 
ATOM      6  C   UNL     1       7.088   4.634  13.132  0.00  0.00    +0.000 A 
ATOM      7  C   UNL     1       7.492   5.246  14.258  0.00  0.00    +0.000 A 
ATOM      8  C   UNL     1       6.895   4.925  15.579  0.00  0.00    +0.000 A 
ATOM      9  N   UNL     1       7.398   5.487  16.620  0.00  0.00    +0.000 NA
ATOM     10  C   UNL     1       6.879   5.197  17.854  0.00  0.00    +0.000 A 
ATOM     11  S   UNL     1       7.700   5.821  19.201  0.00  0.00    +0.000 S 
ENDROOT
BRANCH   2  12
ATOM     12  N   UNL     1       4.119   2.869  16.930  0.00  0.00    +0.000 N 
ATOM     13  H   UNL     1       3.862   2.422  16.055  0.00  0.00    +0.000 HD
ATOM     14  H   UNL     1       3.291   3.278  17.347  0.00  0.00    +0.000 HD
ENDBRANCH   2  12
BRANCH   5  15
ATOM     15  O   UNL     1       5.669   3.135  11.925  0.00  0.00    +0.000 OA
ATOM     16  C   UNL     1       4.323   3.266  11.488  0.00  0.00    +0.000 C 
ENDBRANCH   5  15
BRANCH   6  17
ATOM     17  O   UNL     1       7.620   4.845  11.874  0.00  0.00    +0.000 OA
ATOM     18  C   UNL     1       7.883   6.186  11.476  0.00  0.00    +0.000 C 
ENDBRANCH   6  17
BRANCH   1  19
ATOM     19  C   UNL     1       5.051   4.181  19.231  0.00  0.00    +0.000 C 
BRANCH  19  23
ATOM     20  C   UNL     1       1.738   6.852  20.161  0.00  0.00    +0.000 A 
ATOM     21  C   UNL     1       1.981   5.691  20.910  0.00  0.00    +0.000 A 
ATOM     22  C   UNL     1       3.030   4.822  20.586  0.00  0.00    +0.000 A 
ATOM     23  C   UNL     1       3.866   5.095  19.498  0.00  0.00    +0.000 A 
ATOM     24  C   UNL     1       3.604   6.245  18.739  0.00  0.00    +0.000 A 
ATOM     25  C   UNL     1       2.572   7.133  19.075  0.00  0.00    +0.000 A 
ATOM     26 CL   UNL     1       2.515   8.585  18.139  0.00  0.00    +0.000 Cl
BRANCH  20  28
ATOM     27  C   UNL     1       1.099   8.705  21.514  0.00  0.00    +0.000 C 
ATOM     28  O   UNL     1       0.727   7.620  20.672  0.00  0.00    +0.000 OA
ENDBRANCH  20  28
ENDBRANCH  19  23
ENDBRANCH   1  19
TORSDOF 6
ENDMDL
MODEL 7
REMARK VINA RESULT:      -6.4      1.908      3.029
REMARK  Name = 
REMARK  9 active torsions:
REMARK  status: ('A' for Active; 'I' for Inactive)
REMARK    1  A    between atoms: C_1  and  O_2
REMARK    2  A    between atoms: O_2  and  C_3
REMARK    3  A    between atoms: C_6  and  C_7
REMARK    4  A    between atoms: C_7  and  N_8
REMARK    5  A    between atoms: C_9  and  N_10
REMARK    6  A    between atoms: C_13  and  O_14
REMARK    7  A    between atoms: O_14  and  C_15
REMARK    8  A    between atoms: C_16  and  O_17
REMARK    9  A    between atoms: O_17  and  C_18
REMARK                            x       y       z     vdW  Elec       q    Type
REMARK                         _______ _______ _______ _____ _____    ______ ____
ROOT
ATOM      1  N   UNL     1       1.141   9.782  19.741  0.00  0.00    +0.000 N 
ATOM      2  C   UNL     1       1.096   8.538  20.401  0.00  0.00    +0.000 A 
ATOM      3  C   UNL     1       1.767   7.486  19.874  0.00  0.00    +0.000 A 
ATOM      4  C   UNL     1       1.858   6.150  20.433  0.00  0.00    +0.000 A 
ATOM      5  C   UNL     1       2.533   5.158  19.820  0.00  0.00    +0.000 A 
ATOM      6  C   UNL     1       3.200   5.398  18.539  0.00  0.00    +0.000 A 
ATOM      7  C   UNL     1       3.147   6.605  17.952  0.00  0.00    +0.000 A 
ATOM      8  C   UNL     1       2.466   7.758  18.595  0.00  0.00    +0.000 A 
ATOM      9  N   UNL     1       2.537   8.901  18.012  0.00  0.00    +0.000 NA
ATOM     10  C   UNL     1       1.933   9.986  18.590  0.00  0.00    +0.000 A 
ATOM     11  S   UNL     1       2.217  11.499  17.875  0.00  0.00    +0.000 S 
ENDROOT
BRANCH   2  12
ATOM     12  N   UNL     1       0.387   8.415  21.596  0.00  0.00    +0.000 N 
ATOM     13  H   UNL     1      -0.619   8.447  21.457  0.00  0.00    +0.000 HD
ATOM     14  H   UNL     1       0.643   9.084  22.312  0.00  0.00    +0.000 HD
ENDBRANCH   2  12
BRANCH   5  15
ATOM     15  O   UNL     1       2.647   3.864  20.288  0.00  0.00    +0.000 OA
ATOM     16  C   UNL     1       2.164   3.591  21.596  0.00  0.00    +0.000 C 
ENDBRANCH   5  15
BRANCH   6  17
ATOM     17  O   UNL     1       3.848   4.290  18.027  0.00  0.00    +0.000 OA
ATOM     18  C   UNL     1       5.247   4.385  17.787  0.00  0.00    +0.000 C 
ENDBRANCH   6  17
BRANCH   1  19
ATOM     19  C   UNL     1       0.356  10.907  20.302  0.00  0.00    +0.000 C 
BRANCH  19  23
ATOM     20  C   UNL     1      -3.533  11.456  18.416  0.00  0.00    +0.000 A 
ATOM     21  C   UNL     1      -2.606  10.519  17.935  0.00  0.00    +0.000 A 
ATOM     22  C   UNL     1      -1.347  10.369  18.529  0.00  0.00    +0.000 A 
ATOM     23  C   UNL     1      -0.981  11.159  19.624  0.00  0.00    +0.000 A 
ATOM     24  C   UNL     1      -1.903  12.111  20.086  0.00  0.00    +0.000 A 
ATOM     25  C   UNL     1      -3.175  12.247  19.513  0.00  0.00    +0.000 A 
ATOM     26 CL   UNL     1      -4.238  13.339  20.326  0.00  0.00    +0.000 Cl
BRANCH  20  28
ATOM     27  C   UNL     1      -5.802  10.733  18.429  0.00  0.00    +0.000 C 
ATOM     28  O   UNL     1      -4.736  11.405  17.767  0.00  0.00    +0.000 OA
ENDBRANCH  20  28
ENDBRANCH  19  23
ENDBRANCH   1  19
TORSDOF 6
ENDMDL
MODEL 8
REMARK VINA RESULT:      -6.3      3.996      8.117
REMARK  Name = 
REMARK  9 active torsions:
REMARK  status: ('A' for Active; 'I' for Inactive)
REMARK    1  A    between atoms: C_1  and  O_2
REMARK    2  A    between atoms: O_2  and  C_3
REMARK    3  A    between atoms: C_6  and  C_7
REMARK    4  A    between atoms: C_7  and  N_8
REMARK    5  A    between atoms: C_9  and  N_10
REMARK    6  A    between atoms: C_13  and  O_14
REMARK    7  A    between atoms: O_14  and  C_15
REMARK    8  A    between atoms: C_16  and  O_17
REMARK    9  A    between atoms: O_17  and  C_18
REMARK                            x       y       z     vdW  Elec       q    Type
REMARK                         _______ _______ _______ _____ _____    ______ ____
ROOT
ATOM      1  N   UNL     1       2.166   5.750  19.152  0.00  0.00    +0.000 N 
ATOM      2  C   UNL     1       2.098   7.041  18.592  0.00  0.00    +0.000 A 
ATOM      3  C   UNL     1       1.739   8.084  19.378  0.00  0.00    +0.000 A 
ATOM      4  C   UNL     1       1.651   9.477  18.979  0.00  0.00    +0.000 A 
ATOM      5  C   UNL     1       1.260  10.445  19.831  0.00  0.00    +0.000 A 
ATOM      6  C   UNL     1       0.893  10.115  21.210  0.00  0.00    +0.000 A 
ATOM      7  C   UNL     1       0.935   8.845  21.647  0.00  0.00    +0.000 A 
ATOM      8  C   UNL     1       1.406   7.735  20.779  0.00  0.00    +0.000 A 
ATOM      9  N   UNL     1       1.503   6.564  21.300  0.00  0.00    +0.000 NA
ATOM     10  C   UNL     1       1.951   5.524  20.529  0.00  0.00    +0.000 A 
ATOM     11  S   UNL     1       2.234   4.047  21.316  0.00  0.00    +0.000 S 
ENDROOT
BRANCH   2  12
ATOM     12  N   UNL     1       2.426   7.229  17.249  0.00  0.00    +0.000 N 
ATOM     13  H   UNL     1       3.021   6.490  16.886  0.00  0.00    +0.000 HD
ATOM     14  H   UNL     1       2.845   8.126  17.035  0.00  0.00    +0.000 HD
ENDBRANCH   2  12
BRANCH   5  15
ATOM     15  O   UNL     1       1.140  11.783  19.515  0.00  0.00    +0.000 OA
ATOM     16  C   UNL     1       2.031  12.313  18.543  0.00  0.00    +0.000 C 
ENDBRANCH   5  15
BRANCH   6  17
ATOM     17  O   UNL     1       0.509  11.206  21.965  0.00  0.00    +0.000 OA
ATOM     18  C   UNL     1      -0.785  11.186  22.559  0.00  0.00    +0.000 C 
ENDBRANCH   6  17
BRANCH   1  19
ATOM     19  C   UNL     1       2.505   4.613  18.264  0.00  0.00    +0.000 C 
BRANCH  19  23
ATOM     20  C   UNL     1       6.585   4.671  16.738  0.00  0.00    +0.000 A 
ATOM     21  C   UNL     1       5.515   4.200  15.962  0.00  0.00    +0.000 A 
ATOM     22  C   UNL     1       4.212   4.157  16.471  0.00  0.00    +0.000 A 
ATOM     23  C   UNL     1       3.945   4.585  17.776  0.00  0.00    +0.000 A 
ATOM     24  C   UNL     1       5.023   5.033  18.554  0.00  0.00    +0.000 A 
ATOM     25  C   UNL     1       6.326   5.103  18.042  0.00  0.00    +0.000 A 
ATOM     26 CL   UNL     1       7.488   5.849  19.081  0.00  0.00    +0.000 Cl
BRANCH  20  28
ATOM     27  C   UNL     1       7.694   4.940  14.647  0.00  0.00    +0.000 C 
ATOM     28  O   UNL     1       7.768   4.717  16.051  0.00  0.00    +0.000 OA
ENDBRANCH  20  28
ENDBRANCH  19  23
ENDBRANCH   1  19
TORSDOF 6
ENDMDL
MODEL 9
REMARK VINA RESULT:      -6.3      3.961      5.093
REMARK  Name = 
REMARK  9 active torsions:
REMARK  status: ('A' for Active; 'I' for Inactive)
REMARK    1  A    between atoms: C_1  and  O_2
REMARK    2  A    between atoms: O_2  and  C_3
REMARK    3  A    between atoms: C_6  and  C_7
REMARK    4  A    between atoms: C_7  and  N_8
REMARK    5  A    between atoms: C_9  and  N_10
REMARK    6  A    between atoms: C_13  and  O_14
REMARK    7  A    between atoms: O_14  and  C_15
REMARK    8  A    between atoms: C_16  and  O_17
REMARK    9  A    between atoms: O_17  and  C_18
REMARK                            x       y       z     vdW  Elec       q    Type
REMARK                         _______ _______ _______ _____ _____    ______ ____
ROOT
ATOM      1  N   UNL     1       0.880  10.565  19.681  0.00  0.00    +0.000 N 
ATOM      2  C   UNL     1       1.489   9.723  18.729  0.00  0.00    +0.000 A 
ATOM      3  C   UNL     1       1.776   8.443  19.068  0.00  0.00    +0.000 A 
ATOM      4  C   UNL     1       2.368   7.434  18.209  0.00  0.00    +0.000 A 
ATOM      5  C   UNL     1       2.640   6.188  18.645  0.00  0.00    +0.000 A 
ATOM      6  C   UNL     1       2.353   5.809  20.030  0.00  0.00    +0.000 A 
ATOM      7  C   UNL     1       1.819   6.694  20.888  0.00  0.00    +0.000 A 
ATOM      8  C   UNL     1       1.445   8.068  20.463  0.00  0.00    +0.000 A 
ATOM      9  N   UNL     1       0.857   8.824  21.320  0.00  0.00    +0.000 NA
ATOM     10  C   UNL     1       0.485  10.090  20.951  0.00  0.00    +0.000 A 
ATOM     11  S   UNL     1      -0.450  10.972  22.059  0.00  0.00    +0.000 S 
ENDROOT
BRANCH   2  12
ATOM     12  N   UNL     1       1.760  10.209  17.451  0.00  0.00    +0.000 N 
ATOM     13  H   UNL     1       2.268  11.089  17.468  0.00  0.00    +0.000 HD
ATOM     14  H   UNL     1       0.948  10.309  16.853  0.00  0.00    +0.000 HD
ENDBRANCH   2  12
BRANCH   5  15
ATOM     15  O   UNL     1       3.214   5.187  17.889  0.00  0.00    +0.000 OA
ATOM     16  C   UNL     1       4.340   5.527  17.091  0.00  0.00    +0.000 C 
ENDBRANCH   5  15
BRANCH   6  17
ATOM     17  O   UNL     1       2.688   4.504  20.336  0.00  0.00    +0.000 OA
ATOM     18  C   UNL     1       1.726   3.710  21.022  0.00  0.00    +0.000 C 
ENDBRANCH   6  17
BRANCH   1  19
ATOM     19  C   UNL     1       0.623  11.977  19.312  0.00  0.00    +0.000 C 
BRANCH  19  23
ATOM     20  C   UNL     1       3.966  14.761  19.548  0.00  0.00    +0.000 A 
ATOM     21  C   UNL     1       3.473  14.304  18.316  0.00  0.00    +0.000 A 
ATOM     22  C   UNL     1       2.417  13.387  18.250  0.00  0.00    +0.000 A 
ATOM     23  C   UNL     1       1.826  12.899  19.421  0.00  0.00    +0.000 A 
ATOM     24  C   UNL     1       2.339  13.342  20.650  0.00  0.00    +0.000 A 
ATOM     25  C   UNL     1       3.378  14.280  20.722  0.00  0.00    +0.000 A 
ATOM     26 CL   UNL     1       3.755  14.843  22.312  0.00  0.00    +0.000 Cl
BRANCH  20  28
ATOM     27  C   UNL     1       6.255  15.257  19.119  0.00  0.00    +0.000 C 
ATOM     28  O   UNL     1       4.940  15.713  19.418  0.00  0.00    +0.000 OA
ENDBRANCH  20  28
ENDBRANCH  19  23
ENDBRANCH   1  19
TORSDOF 6
ENDMDL
