MODEL 1
REMARK VINA RESULT:      -5.1      0.000      0.000
REMARK  Name = 
REMARK  3 active torsions:
REMARK  status: ('A' for Active; 'I' for Inactive)
REMARK    1  A    between atoms: C_1  and  C_2
REMARK    2  A    between atoms: C_4  and  C_5
REMARK    3  A    between atoms: C_5  and  O_6
REMARK                            x       y       z     vdW  Elec       q    Type
REMARK                         _______ _______ _______ _____ _____    ______ ____
ROOT
ATOM      1  C   UNL     1      10.672   4.855  28.001  0.00  0.00    +0.000 C 
ATOM      2  C   UNL     1       9.202   4.747  27.875  0.00  0.00    +0.000 A 
ATOM      3  C   UNL     1       8.211   5.602  28.405  0.00  0.00    +0.000 A 
ATOM      4  C   UNL     1       7.025   5.036  28.003  0.00  0.00    +0.000 A 
ATOM      5  O   UNL     1       7.288   3.921  27.270  0.00  0.00    +0.000 OA
ATOM      6  N   UNL     1       8.657   3.737  27.188  0.00  0.00    +0.000 NA
ENDROOT
BRANCH   4   7
ATOM      7  C   UNL     1       5.602   5.375  28.195  0.00  0.00    +0.000 C 
BRANCH   7   8
ATOM      8  O   UNL     1       4.873   4.156  28.281  0.00  0.00    +0.000 OA
ATOM      9  H   UNL     1       5.458   3.512  28.717  0.00  0.00    +0.000 HD
ENDBRANCH   7   8
ENDBRANCH   4   7
TORSDOF 2
ENDMDL
MODEL 2
REMARK VINA RESULT:      -4.9     12.677     13.046
REMARK  Name = 
REMARK  3 active torsions:
REMARK  status: ('A' for Active; 'I' for Inactive)
REMARK    1  A    between atoms: C_1  and  C_2
REMARK    2  A    between atoms: C_4  and  C_5
REMARK    3  A    between atoms: C_5  and  O_6
REMARK                            x       y       z     vdW  Elec       q    Type
REMARK                         _______ _______ _______ _____ _____    ______ ____
ROOT
ATOM      1  C   UNL     1       6.032   3.555  12.595  0.00  0.00    +0.000 C 
ATOM      2  C   UNL     1       6.525   4.129  13.866  0.00  0.00    +0.000 A 
ATOM      3  C   UNL     1       6.258   3.701  15.185  0.00  0.00    +0.000 A 
ATOM      4  C   UNL     1       6.949   4.587  15.976  0.00  0.00    +0.000 A 
ATOM      5  O   UNL     1       7.598   5.481  15.183  0.00  0.00    +0.000 OA
ATOM      6  N   UNL     1       7.334   5.195  13.856  0.00  0.00    +0.000 NA
ENDROOT
BRANCH   4   7
ATOM      7  C   UNL     1       7.121   4.756  17.432  0.00  0.00    +0.000 C 
BRANCH   7   8
ATOM      8  O   UNL     1       8.308   4.072  17.812  0.00  0.00    +0.000 OA
ATOM      9  H   UNL     1       8.423   3.341  17.179  0.00  0.00    +0.000 HD
ENDBRANCH   7   8
ENDBRANCH   4   7
TORSDOF 2
ENDMDL
MODEL 3
REMARK VINA RESULT:      -4.5     13.317     13.636
REMARK  Name = 
REMARK  3 active torsions:
REMARK  status: ('A' for Active; 'I' for Inactive)
REMARK    1  A    between atoms: C_1  and  C_2
REMARK    2  A    between atoms: C_4  and  C_5
REMARK    3  A    between atoms: C_5  and  O_6
REMARK                            x       y       z     vdW  Elec       q    Type
REMARK                         _______ _______ _______ _____ _____    ______ ____
ROOT
ATOM      1  C   UNL     1       7.245   4.705  17.429  0.00  0.00    +0.000 C 
ATOM      2  C   UNL     1       6.984   4.617  15.975  0.00  0.00    +0.000 A 
ATOM      3  C   UNL     1       6.117   3.739  15.289  0.00  0.00    +0.000 A 
ATOM      4  C   UNL     1       6.268   4.076  13.966  0.00  0.00    +0.000 A 
ATOM      5  O   UNL     1       7.160   5.098  13.865  0.00  0.00    +0.000 OA
ATOM      6  N   UNL     1       7.611   5.441  15.127  0.00  0.00    +0.000 NA
ENDROOT
BRANCH   4   7
ATOM      7  C   UNL     1       5.691   3.581  12.702  0.00  0.00    +0.000 C 
BRANCH   7   8
ATOM      8  O   UNL     1       6.594   2.628  12.156  0.00  0.00    +0.000 OA
ATOM      9  H   UNL     1       6.548   1.842  12.728  0.00  0.00    +0.000 HD
ENDBRANCH   7   8
ENDBRANCH   4   7
TORSDOF 2
ENDMDL
MODEL 4
REMARK VINA RESULT:      -4.4     11.038     11.384
REMARK  Name = 
REMARK  3 active torsions:
REMARK  status: ('A' for Active; 'I' for Inactive)
REMARK    1  A    between atoms: C_1  and  C_2
REMARK    2  A    between atoms: C_4  and  C_5
REMARK    3  A    between atoms: C_5  and  O_6
REMARK                            x       y       z     vdW  Elec       q    Type
REMARK                         _______ _______ _______ _____ _____    ______ ____
ROOT
ATOM      1  C   UNL     1       6.031   3.776  14.635  0.00  0.00    +0.000 C 
ATOM      2  C   UNL     1       6.640   4.646  15.665  0.00  0.00    +0.000 A 
ATOM      3  C   UNL     1       6.608   4.500  17.069  0.00  0.00    +0.000 A 
ATOM      4  C   UNL     1       7.313   5.581  17.540  0.00  0.00    +0.000 A 
ATOM      5  O   UNL     1       7.749   6.322  16.486  0.00  0.00    +0.000 OA
ATOM      6  N   UNL     1       7.329   5.736  15.306  0.00  0.00    +0.000 NA
ENDROOT
BRANCH   4   7
ATOM      7  C   UNL     1       7.672   6.074  18.883  0.00  0.00    +0.000 C 
BRANCH   7   8
ATOM      8  O   UNL     1       6.994   5.267  19.838  0.00  0.00    +0.000 OA
ATOM      9  H   UNL     1       6.042   5.395  19.685  0.00  0.00    +0.000 HD
ENDBRANCH   7   8
ENDBRANCH   4   7
TORSDOF 2
ENDMDL
MODEL 5
REMARK VINA RESULT:      -4.4     13.161     13.505
REMARK  Name = 
REMARK  3 active torsions:
REMARK  status: ('A' for Active; 'I' for Inactive)
REMARK    1  A    between atoms: C_1  and  C_2
REMARK    2  A    between atoms: C_4  and  C_5
REMARK    3  A    between atoms: C_5  and  O_6
REMARK                            x       y       z     vdW  Elec       q    Type
REMARK                         _______ _______ _______ _____ _____    ______ ____
ROOT
ATOM      1  C   UNL     1       5.964   3.313  12.423  0.00  0.00    +0.000 C 
ATOM      2  C   UNL     1       6.489   4.113  13.551  0.00  0.00    +0.000 A 
ATOM      3  C   UNL     1       6.130   4.049  14.915  0.00  0.00    +0.000 A 
ATOM      4  C   UNL     1       6.905   5.010  15.516  0.00  0.00    +0.000 A 
ATOM      5  O   UNL     1       7.687   5.605  14.576  0.00  0.00    +0.000 OA
ATOM      6  N   UNL     1       7.428   5.042  13.339  0.00  0.00    +0.000 NA
ENDROOT
BRANCH   4   7
ATOM      7  C   UNL     1       7.052   5.502  16.900  0.00  0.00    +0.000 C 
BRANCH   7   8
ATOM      8  O   UNL     1       7.638   6.797  16.841  0.00  0.00    +0.000 OA
ATOM      9  H   UNL     1       8.174   6.897  17.647  0.00  0.00    +0.000 HD
ENDBRANCH   7   8
ENDBRANCH   4   7
TORSDOF 2
ENDMDL
MODEL 6
REMARK VINA RESULT:      -4.3     11.313     11.795
REMARK  Name = 
REMARK  3 active torsions:
REMARK  status: ('A' for Active; 'I' for Inactive)
REMARK    1  A    between atoms: C_1  and  C_2
REMARK    2  A    between atoms: C_4  and  C_5
REMARK    3  A    between atoms: C_5  and  O_6
REMARK                            x       y       z     vdW  Elec       q    Type
REMARK                         _______ _______ _______ _____ _____    ______ ____
ROOT
ATOM      1  C   UNL     1       5.383   4.581  19.249  0.00  0.00    +0.000 C 
ATOM      2  C   UNL     1       6.121   4.553  17.967  0.00  0.00    +0.000 A 
ATOM      3  C   UNL     1       5.602   4.585  16.654  0.00  0.00    +0.000 A 
ATOM      4  C   UNL     1       6.713   4.523  15.849  0.00  0.00    +0.000 A 
ATOM      5  O   UNL     1       7.827   4.468  16.628  0.00  0.00    +0.000 OA
ATOM      6  N   UNL     1       7.457   4.488  17.960  0.00  0.00    +0.000 NA
ENDROOT
BRANCH   4   7
ATOM      7  C   UNL     1       6.931   4.504  14.389  0.00  0.00    +0.000 C 
BRANCH   7   8
ATOM      8  O   UNL     1       7.897   5.501  14.081  0.00  0.00    +0.000 OA
ATOM      9  H   UNL     1       7.505   6.064  13.391  0.00  0.00    +0.000 HD
ENDBRANCH   7   8
ENDBRANCH   4   7
TORSDOF 2
ENDMDL
MODEL 7
REMARK VINA RESULT:      -4.3     10.831     11.167
REMARK  Name = 
REMARK  3 active torsions:
REMARK  status: ('A' for Active; 'I' for Inactive)
REMARK    1  A    between atoms: C_1  and  C_2
REMARK    2  A    between atoms: C_4  and  C_5
REMARK    3  A    between atoms: C_5  and  O_6
REMARK                            x       y       z     vdW  Elec       q    Type
REMARK                         _______ _______ _______ _____ _____    ______ ____
ROOT
ATOM      1  C   UNL     1       6.318   4.134  14.182  0.00  0.00    +0.000 C 
ATOM      2  C   UNL     1       6.501   4.373  15.630  0.00  0.00    +0.000 A 
ATOM      3  C   UNL     1       5.514   4.509  16.630  0.00  0.00    +0.000 A 
ATOM      4  C   UNL     1       6.226   4.728  17.784  0.00  0.00    +0.000 A 
ATOM      5  O   UNL     1       7.556   4.713  17.497  0.00  0.00    +0.000 OA
ATOM      6  N   UNL     1       7.732   4.489  16.144  0.00  0.00    +0.000 NA
ENDROOT
BRANCH   4   7
ATOM      7  C   UNL     1       5.862   4.964  19.195  0.00  0.00    +0.000 C 
BRANCH   7   8
ATOM      8  O   UNL     1       7.033   5.385  19.882  0.00  0.00    +0.000 OA
ATOM      9  H   UNL     1       6.889   6.313  20.136  0.00  0.00    +0.000 HD
ENDBRANCH   7   8
ENDBRANCH   4   7
TORSDOF 2
ENDMDL
MODEL 8
REMARK VINA RESULT:      -4.3     10.957     11.239
REMARK  Name = 
REMARK  3 active torsions:
REMARK  status: ('A' for Active; 'I' for Inactive)
REMARK    1  A    between atoms: C_1  and  C_2
REMARK    2  A    between atoms: C_4  and  C_5
REMARK    3  A    between atoms: C_5  and  O_6
REMARK                            x       y       z     vdW  Elec       q    Type
REMARK                         _______ _______ _______ _____ _____    ______ ____
ROOT
ATOM      1  C   UNL     1       6.613   4.422  14.079  0.00  0.00    +0.000 C 
ATOM      2  C   UNL     1       6.574   4.444  15.557  0.00  0.00    +0.000 A 
ATOM      3  C   UNL     1       5.454   4.328  16.409  0.00  0.00    +0.000 A 
ATOM      4  C   UNL     1       5.977   4.427  17.675  0.00  0.00    +0.000 A 
ATOM      5  O   UNL     1       7.326   4.582  17.590  0.00  0.00    +0.000 OA
ATOM      6  N   UNL     1       7.704   4.592  16.259  0.00  0.00    +0.000 NA
ENDROOT
BRANCH   4   7
ATOM      7  C   UNL     1       5.404   4.401  19.034  0.00  0.00    +0.000 C 
BRANCH   7   8
ATOM      8  O   UNL     1       5.275   3.040  19.426  0.00  0.00    +0.000 OA
ATOM      9  H   UNL     1       6.173   2.721  19.624  0.00  0.00    +0.000 HD
ENDBRANCH   7   8
ENDBRANCH   4   7
TORSDOF 2
ENDMDL
MODEL 9
REMARK VINA RESULT:      -4.2     12.366     12.701
REMARK  Name = 
REMARK  3 active torsions:
REMARK  status: ('A' for Active; 'I' for Inactive)
REMARK    1  A    between atoms: C_1  and  C_2
REMARK    2  A    between atoms: C_4  and  C_5
REMARK    3  A    between atoms: C_5  and  O_6
REMARK                            x       y       z     vdW  Elec       q    Type
REMARK                         _______ _______ _______ _____ _____    ______ ____
ROOT
ATOM      1  C   UNL     1       6.039   3.731  13.245  0.00  0.00    +0.000 C 
ATOM      2  C   UNL     1       6.397   4.590  14.395  0.00  0.00    +0.000 A 
ATOM      3  C   UNL     1       5.636   4.874  15.550  0.00  0.00    +0.000 A 
ATOM      4  C   UNL     1       6.428   5.727  16.278  0.00  0.00    +0.000 A 
ATOM      5  O   UNL     1       7.594   5.933  15.609  0.00  0.00    +0.000 OA
ATOM      6  N   UNL     1       7.578   5.219  14.425  0.00  0.00    +0.000 NA
ENDROOT
BRANCH   4   7
ATOM      7  C   UNL     1       6.279   6.428  17.568  0.00  0.00    +0.000 C 
BRANCH   7   8
ATOM      8  O   UNL     1       7.335   7.375  17.673  0.00  0.00    +0.000 OA
ATOM      9  H   UNL     1       8.125   6.953  17.294  0.00  0.00    +0.000 HD
ENDBRANCH   7   8
ENDBRANCH   4   7
TORSDOF 2
ENDMDL
