MODEL 1
REMARK VINA RESULT:      -7.2      0.000      0.000
REMARK  Name = 
REMARK  13 active torsions:
REMARK  status: ('A' for Active; 'I' for Inactive)
REMARK    1  A    between atoms: C_1  and  O_2
REMARK    2  A    between atoms: O_2  and  C_3
REMARK    3  A    between atoms: C_5  and  C_6
REMARK    4  A    between atoms: C_6  and  C_7
REMARK    5  A    between atoms: C_7  and  C_8
REMARK    6  A    between atoms: C_8  and  C_9
REMARK    7  A    between atoms: C_8  and  O_10
REMARK    8  A    between atoms: O_10  and  C_11
REMARK    9  A    between atoms: C_11  and  S_12
REMARK   10  A    between atoms: N_13  and  C_14
REMARK   11  A    between atoms: C_14  and  C_15
REMARK   12  A    between atoms: C_15  and  C_16
REMARK   13  A    between atoms: C_24  and  O_25
REMARK                            x       y       z     vdW  Elec       q    Type
REMARK                         _______ _______ _______ _____ _____    ______ ____
ROOT
ATOM      1  C   UNL     1       5.883   4.700  16.532  0.00  0.00    +0.000 C 
ATOM      2  C   UNL     1       6.473   4.298  15.183  0.00  0.00    +0.000 C 
ENDROOT
BRANCH   1   3
ATOM      3  C   UNL     1       4.401   4.298  16.662  0.00  0.00    +0.000 C 
BRANCH   3   4
ATOM      4  C   UNL     1       4.014   3.831  18.068  0.00  0.00    +0.000 C 
BRANCH   4   7
ATOM      5  C   UNL     1       2.533   7.213  19.103  0.00  0.00    +0.000 A 
ATOM      6  C   UNL     1       3.235   6.216  18.407  0.00  0.00    +0.000 A 
ATOM      7  C   UNL     1       3.269   4.886  18.853  0.00  0.00    +0.000 A 
ATOM      8  C   UNL     1       2.591   4.558  20.031  0.00  0.00    +0.000 A 
ATOM      9  C   UNL     1       1.889   5.537  20.736  0.00  0.00    +0.000 A 
ATOM     10  C   UNL     1       1.859   6.859  20.276  0.00  0.00    +0.000 A 
BRANCH   5  12
ATOM     11  C   UNL     1       1.530   8.855  17.678  0.00  0.00    +0.000 C 
ATOM     12  O   UNL     1       2.610   8.440  18.501  0.00  0.00    +0.000 OA
ENDBRANCH   5  12
BRANCH  10  13
ATOM     13  O   UNL     1       1.156   7.779  21.005  0.00  0.00    +0.000 OA
ATOM     14  H   UNL     1       0.844   7.364  21.824  0.00  0.00    +0.000 HD
ENDBRANCH  10  13
ENDBRANCH   4   7
ENDBRANCH   3   4
ENDBRANCH   1   3
BRANCH   1  15
ATOM     15  O   UNL     1       5.928   6.145  16.635  0.00  0.00    +0.000 OA
BRANCH  15  16
ATOM     16  C   UNL     1       6.877   6.759  17.398  0.00  0.00    +0.000 C 
ATOM     17  N   UNL     1       7.256   7.971  17.163  0.00  0.00    +0.000 NA
BRANCH  16  18
ATOM     18  S   UNL     1       7.503   5.736  18.682  0.00  0.00    +0.000 S 
ATOM     19  H   UNL     1       7.014   4.596  18.181  0.00  0.00    +0.000 HD
ENDBRANCH  16  18
BRANCH  17  20
ATOM     20  C   UNL     1       8.316   8.535  18.016  0.00  0.00    +0.000 C 
BRANCH  20  21
ATOM     21  C   UNL     1       8.108  10.040  18.217  0.00  0.00    +0.000 C 
BRANCH  21  22
ATOM     22  C   UNL     1       9.386  10.690  18.706  0.00  0.00    +0.000 A 
ATOM     23  C   UNL     1       9.551  11.005  20.059  0.00  0.00    +0.000 A 
ATOM     24  C   UNL     1      10.697  11.671  20.501  0.00  0.00    +0.000 A 
ATOM     25  C   UNL     1      11.693  12.027  19.592  0.00  0.00    +0.000 A 
ATOM     26  C   UNL     1      11.543  11.714  18.242  0.00  0.00    +0.000 A 
ATOM     27  C   UNL     1      10.396  11.050  17.800  0.00  0.00    +0.000 A 
ENDBRANCH  21  22
ENDBRANCH  20  21
ENDBRANCH  17  20
ENDBRANCH  15  16
ENDBRANCH   1  15
TORSDOF 11
ENDMDL
MODEL 2
REMARK VINA RESULT:      -7.2      3.177      8.758
REMARK  Name = 
REMARK  13 active torsions:
REMARK  status: ('A' for Active; 'I' for Inactive)
REMARK    1  A    between atoms: C_1  and  O_2
REMARK    2  A    between atoms: O_2  and  C_3
REMARK    3  A    between atoms: C_5  and  C_6
REMARK    4  A    between atoms: C_6  and  C_7
REMARK    5  A    between atoms: C_7  and  C_8
REMARK    6  A    between atoms: C_8  and  C_9
REMARK    7  A    between atoms: C_8  and  O_10
REMARK    8  A    between atoms: O_10  and  C_11
REMARK    9  A    between atoms: C_11  and  S_12
REMARK   10  A    between atoms: N_13  and  C_14
REMARK   11  A    between atoms: C_14  and  C_15
REMARK   12  A    between atoms: C_15  and  C_16
REMARK   13  A    between atoms: C_24  and  O_25
REMARK                            x       y       z     vdW  Elec       q    Type
REMARK                         _______ _______ _______ _____ _____    ______ ____
ROOT
ATOM      1  C   UNL     1       7.594   7.186  17.379  0.00  0.00    +0.000 C 
ATOM      2  C   UNL     1       7.835   6.302  18.600  0.00  0.00    +0.000 C 
ENDROOT
BRANCH   1   3
ATOM      3  C   UNL     1       8.148   8.611  17.576  0.00  0.00    +0.000 C 
BRANCH   3   4
ATOM      4  C   UNL     1       8.783   8.838  18.951  0.00  0.00    +0.000 C 
BRANCH   4   7
ATOM      5  C   UNL     1       9.688  12.143  20.672  0.00  0.00    +0.000 A 
ATOM      6  C   UNL     1       9.249  10.829  20.444  0.00  0.00    +0.000 A 
ATOM      7  C   UNL     1       9.239  10.264  19.160  0.00  0.00    +0.000 A 
ATOM      8  C   UNL     1       9.670  11.043  18.082  0.00  0.00    +0.000 A 
ATOM      9  C   UNL     1      10.108  12.353  18.291  0.00  0.00    +0.000 A 
ATOM     10  C   UNL     1      10.118  12.902  19.578  0.00  0.00    +0.000 A 
BRANCH   5  12
ATOM     11  C   UNL     1       8.466  12.181  22.730  0.00  0.00    +0.000 C 
ATOM     12  O   UNL     1       9.634  12.503  21.991  0.00  0.00    +0.000 OA
ENDBRANCH   5  12
BRANCH  10  13
ATOM     13  O   UNL     1      10.558  14.189  19.727  0.00  0.00    +0.000 OA
ATOM     14  H   UNL     1      10.006  14.777  19.189  0.00  0.00    +0.000 HD
ENDBRANCH  10  13
ENDBRANCH   4   7
ENDBRANCH   3   4
ENDBRANCH   1   3
BRANCH   1  15
ATOM     15  O   UNL     1       6.163   7.323  17.192  0.00  0.00    +0.000 OA
BRANCH  15  16
ATOM     16  C   UNL     1       5.395   6.239  16.887  0.00  0.00    +0.000 C 
ATOM     17  N   UNL     1       4.446   5.839  17.667  0.00  0.00    +0.000 NA
BRANCH  16  18
ATOM     18  S   UNL     1       5.842   5.477  15.368  0.00  0.00    +0.000 S 
ATOM     19  H   UNL     1       5.062   4.403  15.534  0.00  0.00    +0.000 HD
ENDBRANCH  16  18
BRANCH  17  20
ATOM     20  C   UNL     1       3.697   4.635  17.273  0.00  0.00    +0.000 C 
BRANCH  20  21
ATOM     21  C   UNL     1       4.084   3.441  18.152  0.00  0.00    +0.000 C 
BRANCH  21  22
ATOM     22  C   UNL     1       3.088   3.268  19.280  0.00  0.00    +0.000 A 
ATOM     23  C   UNL     1       1.781   3.753  19.155  0.00  0.00    +0.000 A 
ATOM     24  C   UNL     1       0.882   3.661  20.219  0.00  0.00    +0.000 A 
ATOM     25  C   UNL     1       1.281   3.078  21.422  0.00  0.00    +0.000 A 
ATOM     26  C   UNL     1       2.577   2.586  21.558  0.00  0.00    +0.000 A 
ATOM     27  C   UNL     1       3.477   2.680  20.494  0.00  0.00    +0.000 A 
ENDBRANCH  21  22
ENDBRANCH  20  21
ENDBRANCH  17  20
ENDBRANCH  15  16
ENDBRANCH   1  15
TORSDOF 11
ENDMDL
MODEL 3
REMARK VINA RESULT:      -7.1      1.305      2.597
REMARK  Name = 
REMARK  13 active torsions:
REMARK  status: ('A' for Active; 'I' for Inactive)
REMARK    1  A    between atoms: C_1  and  O_2
REMARK    2  A    between atoms: O_2  and  C_3
REMARK    3  A    between atoms: C_5  and  C_6
REMARK    4  A    between atoms: C_6  and  C_7
REMARK    5  A    between atoms: C_7  and  C_8
REMARK    6  A    between atoms: C_8  and  C_9
REMARK    7  A    between atoms: C_8  and  O_10
REMARK    8  A    between atoms: O_10  and  C_11
REMARK    9  A    between atoms: C_11  and  S_12
REMARK   10  A    between atoms: N_13  and  C_14
REMARK   11  A    between atoms: C_14  and  C_15
REMARK   12  A    between atoms: C_15  and  C_16
REMARK   13  A    between atoms: C_24  and  O_25
REMARK                            x       y       z     vdW  Elec       q    Type
REMARK                         _______ _______ _______ _____ _____    ______ ____
ROOT
ATOM      1  C   UNL     1       5.277   5.361  17.246  0.00  0.00    +0.000 C 
ATOM      2  C   UNL     1       4.966   4.158  16.360  0.00  0.00    +0.000 C 
ENDROOT
BRANCH   1   3
ATOM      3  C   UNL     1       4.178   6.440  17.168  0.00  0.00    +0.000 C 
BRANCH   3   4
ATOM      4  C   UNL     1       3.022   6.209  18.145  0.00  0.00    +0.000 C 
BRANCH   4   7
ATOM      5  C   UNL     1       1.113   8.821  20.204  0.00  0.00    +0.000 A 
ATOM      6  C   UNL     1       1.756   7.636  19.809  0.00  0.00    +0.000 A 
ATOM      7  C   UNL     1       2.315   7.488  18.531  0.00  0.00    +0.000 A 
ATOM      8  C   UNL     1       2.214   8.551  17.629  0.00  0.00    +0.000 A 
ATOM      9  C   UNL     1       1.577   9.736  18.004  0.00  0.00    +0.000 A 
ATOM     10  C   UNL     1       1.028   9.872  19.285  0.00  0.00    +0.000 A 
BRANCH   5  12
ATOM     11  C   UNL     1       1.463   9.309  22.521  0.00  0.00    +0.000 C 
ATOM     12  O   UNL     1       0.647   8.773  21.490  0.00  0.00    +0.000 OA
ENDBRANCH   5  12
BRANCH  10  13
ATOM     13  O   UNL     1       0.415  11.054  19.601  0.00  0.00    +0.000 OA
ATOM     14  H   UNL     1       0.619  11.710  18.916  0.00  0.00    +0.000 HD
ENDBRANCH  10  13
ENDBRANCH   4   7
ENDBRANCH   3   4
ENDBRANCH   1   3
BRANCH   1  15
ATOM     15  O   UNL     1       6.496   5.979  16.762  0.00  0.00    +0.000 OA
BRANCH  15  16
ATOM     16  C   UNL     1       7.274   6.726  17.595  0.00  0.00    +0.000 C 
ATOM     17  N   UNL     1       7.574   7.953  17.324  0.00  0.00    +0.000 NA
BRANCH  16  18
ATOM     18  S   UNL     1       7.806   5.848  19.021  0.00  0.00    +0.000 S 
ATOM     19  H   UNL     1       7.387   4.652  18.593  0.00  0.00    +0.000 HD
ENDBRANCH  16  18
BRANCH  17  20
ATOM     20  C   UNL     1       8.453   8.667  18.264  0.00  0.00    +0.000 C 
BRANCH  20  21
ATOM     21  C   UNL     1       8.339  10.183  18.070  0.00  0.00    +0.000 C 
BRANCH  21  22
ATOM     22  C   UNL     1       9.514  10.890  18.715  0.00  0.00    +0.000 A 
ATOM     23  C   UNL     1      10.666  11.175  17.972  0.00  0.00    +0.000 A 
ATOM     24  C   UNL     1      11.779  11.760  18.581  0.00  0.00    +0.000 A 
ATOM     25  C   UNL     1      11.749  12.069  19.941  0.00  0.00    +0.000 A 
ATOM     26  C   UNL     1      10.607  11.796  20.689  0.00  0.00    +0.000 A 
ATOM     27  C   UNL     1       9.495  11.209  20.081  0.00  0.00    +0.000 A 
ENDBRANCH  21  22
ENDBRANCH  20  21
ENDBRANCH  17  20
ENDBRANCH  15  16
ENDBRANCH   1  15
TORSDOF 11
ENDMDL
MODEL 4
REMARK VINA RESULT:      -7.1      1.919      2.956
REMARK  Name = 
REMARK  13 active torsions:
REMARK  status: ('A' for Active; 'I' for Inactive)
REMARK    1  A    between atoms: C_1  and  O_2
REMARK    2  A    between atoms: O_2  and  C_3
REMARK    3  A    between atoms: C_5  and  C_6
REMARK    4  A    between atoms: C_6  and  C_7
REMARK    5  A    between atoms: C_7  and  C_8
REMARK    6  A    between atoms: C_8  and  C_9
REMARK    7  A    between atoms: C_8  and  O_10
REMARK    8  A    between atoms: O_10  and  C_11
REMARK    9  A    between atoms: C_11  and  S_12
REMARK   10  A    between atoms: N_13  and  C_14
REMARK   11  A    between atoms: C_14  and  C_15
REMARK   12  A    between atoms: C_15  and  C_16
REMARK   13  A    between atoms: C_24  and  O_25
REMARK                            x       y       z     vdW  Elec       q    Type
REMARK                         _______ _______ _______ _____ _____    ______ ____
ROOT
ATOM      1  C   UNL     1       5.587   5.465  16.913  0.00  0.00    +0.000 C 
ATOM      2  C   UNL     1       5.136   4.653  15.703  0.00  0.00    +0.000 C 
ENDROOT
BRANCH   1   3
ATOM      3  C   UNL     1       4.463   6.367  17.460  0.00  0.00    +0.000 C 
BRANCH   3   4
ATOM      4  C   UNL     1       4.220   6.200  18.963  0.00  0.00    +0.000 C 
BRANCH   4   7
ATOM      5  C   UNL     1       2.299   2.891  19.224  0.00  0.00    +0.000 A 
ATOM      6  C   UNL     1       3.283   3.848  18.927  0.00  0.00    +0.000 A 
ATOM      7  C   UNL     1       3.131   5.199  19.275  0.00  0.00    +0.000 A 
ATOM      8  C   UNL     1       1.959   5.595  19.925  0.00  0.00    +0.000 A 
ATOM      9  C   UNL     1       0.969   4.657  20.226  0.00  0.00    +0.000 A 
ATOM     10  C   UNL     1       1.137   3.311  19.879  0.00  0.00    +0.000 A 
BRANCH   5  12
ATOM     11  C   UNL     1       3.721   1.486  17.907  0.00  0.00    +0.000 C 
ATOM     12  O   UNL     1       2.640   1.630  18.816  0.00  0.00    +0.000 OA
ENDBRANCH   5  12
BRANCH  10  13
ATOM     13  O   UNL     1       0.137   2.434  20.198  0.00  0.00    +0.000 OA
ATOM     14  H   UNL     1       0.226   2.176  21.129  0.00  0.00    +0.000 HD
ENDBRANCH  10  13
ENDBRANCH   4   7
ENDBRANCH   3   4
ENDBRANCH   1   3
BRANCH   1  15
ATOM     15  O   UNL     1       6.657   6.348  16.495  0.00  0.00    +0.000 OA
BRANCH  15  16
ATOM     16  C   UNL     1       7.376   7.054  17.414  0.00  0.00    +0.000 C 
ATOM     17  N   UNL     1       7.666   8.300  17.237  0.00  0.00    +0.000 NA
BRANCH  16  18
ATOM     18  S   UNL     1       7.850   6.095  18.808  0.00  0.00    +0.000 S 
ATOM     19  H   UNL     1       8.863   5.474  18.193  0.00  0.00    +0.000 HD
ENDBRANCH  16  18
BRANCH  17  20
ATOM     20  C   UNL     1       8.481   8.967  18.265  0.00  0.00    +0.000 C 
BRANCH  20  21
ATOM     21  C   UNL     1       8.416  10.489  18.107  0.00  0.00    +0.000 C 
BRANCH  21  22
ATOM     22  C   UNL     1       9.668  11.134  18.667  0.00  0.00    +0.000 A 
ATOM     23  C   UNL     1      10.719  11.500  17.818  0.00  0.00    +0.000 A 
ATOM     24  C   UNL     1      11.903  12.028  18.338  0.00  0.00    +0.000 A 
ATOM     25  C   UNL     1      12.047  12.197  19.715  0.00  0.00    +0.000 A 
ATOM     26  C   UNL     1      11.006  11.842  20.570  0.00  0.00    +0.000 A 
ATOM     27  C   UNL     1       9.823  11.312  20.050  0.00  0.00    +0.000 A 
ENDBRANCH  21  22
ENDBRANCH  20  21
ENDBRANCH  17  20
ENDBRANCH  15  16
ENDBRANCH   1  15
TORSDOF 11
ENDMDL
MODEL 5
REMARK VINA RESULT:      -7.1      1.831      2.658
REMARK  Name = 
REMARK  13 active torsions:
REMARK  status: ('A' for Active; 'I' for Inactive)
REMARK    1  A    between atoms: C_1  and  O_2
REMARK    2  A    between atoms: O_2  and  C_3
REMARK    3  A    between atoms: C_5  and  C_6
REMARK    4  A    between atoms: C_6  and  C_7
REMARK    5  A    between atoms: C_7  and  C_8
REMARK    6  A    between atoms: C_8  and  C_9
REMARK    7  A    between atoms: C_8  and  O_10
REMARK    8  A    between atoms: O_10  and  C_11
REMARK    9  A    between atoms: C_11  and  S_12
REMARK   10  A    between atoms: N_13  and  C_14
REMARK   11  A    between atoms: C_14  and  C_15
REMARK   12  A    between atoms: C_15  and  C_16
REMARK   13  A    between atoms: C_24  and  O_25
REMARK                            x       y       z     vdW  Elec       q    Type
REMARK                         _______ _______ _______ _____ _____    ______ ____
ROOT
ATOM      1  C   UNL     1       6.362   5.203  16.514  0.00  0.00    +0.000 C 
ATOM      2  C   UNL     1       7.098   4.412  15.437  0.00  0.00    +0.000 C 
ENDROOT
BRANCH   1   3
ATOM      3  C   UNL     1       4.831   5.132  16.343  0.00  0.00    +0.000 C 
BRANCH   3   4
ATOM      4  C   UNL     1       4.068   6.110  17.242  0.00  0.00    +0.000 C 
BRANCH   4   7
ATOM      5  C   UNL     1       2.301   3.430  19.338  0.00  0.00    +0.000 A 
ATOM      6  C   UNL     1       2.933   4.099  18.277  0.00  0.00    +0.000 A 
ATOM      7  C   UNL     1       3.370   5.426  18.394  0.00  0.00    +0.000 A 
ATOM      8  C   UNL     1       3.156   6.097  19.602  0.00  0.00    +0.000 A 
ATOM      9  C   UNL     1       2.528   5.448  20.667  0.00  0.00    +0.000 A 
ATOM     10  C   UNL     1       2.102   4.120  20.538  0.00  0.00    +0.000 A 
BRANCH   5  12
ATOM     11  C   UNL     1       0.625   1.868  18.642  0.00  0.00    +0.000 C 
ATOM     12  O   UNL     1       1.963   2.140  19.031  0.00  0.00    +0.000 OA
ENDBRANCH   5  12
BRANCH  10  13
ATOM     13  O   UNL     1       1.493   3.531  21.612  0.00  0.00    +0.000 OA
ATOM     14  H   UNL     1       2.172   3.233  22.238  0.00  0.00    +0.000 HD
ENDBRANCH  10  13
ENDBRANCH   4   7
ENDBRANCH   3   4
ENDBRANCH   1   3
BRANCH   1  15
ATOM     15  O   UNL     1       6.727   6.599  16.383  0.00  0.00    +0.000 OA
BRANCH  15  16
ATOM     16  C   UNL     1       7.411   7.236  17.376  0.00  0.00    +0.000 C 
ATOM     17  N   UNL     1       7.756   8.476  17.275  0.00  0.00    +0.000 NA
BRANCH  16  18
ATOM     18  S   UNL     1       7.760   6.199  18.752  0.00  0.00    +0.000 S 
ATOM     19  H   UNL     1       8.186   5.163  18.021  0.00  0.00    +0.000 HD
ENDBRANCH  16  18
BRANCH  17  20
ATOM     20  C   UNL     1       8.527   9.065  18.381  0.00  0.00    +0.000 C 
BRANCH  20  21
ATOM     21  C   UNL     1       8.442  10.595  18.349  0.00  0.00    +0.000 C 
BRANCH  21  22
ATOM     22  C   UNL     1       9.785  11.208  18.689  0.00  0.00    +0.000 A 
ATOM     23  C   UNL     1      10.673  11.582  17.674  0.00  0.00    +0.000 A 
ATOM     24  C   UNL     1      11.941  12.080  17.984  0.00  0.00    +0.000 A 
ATOM     25  C   UNL     1      12.333  12.210  19.317  0.00  0.00    +0.000 A 
ATOM     26  C   UNL     1      11.457  11.847  20.336  0.00  0.00    +0.000 A 
ATOM     27  C   UNL     1      10.190  11.347  20.026  0.00  0.00    +0.000 A 
ENDBRANCH  21  22
ENDBRANCH  20  21
ENDBRANCH  17  20
ENDBRANCH  15  16
ENDBRANCH   1  15
TORSDOF 11
ENDMDL
MODEL 6
REMARK VINA RESULT:      -7.0      1.516      2.171
REMARK  Name = 
REMARK  13 active torsions:
REMARK  status: ('A' for Active; 'I' for Inactive)
REMARK    1  A    between atoms: C_1  and  O_2
REMARK    2  A    between atoms: O_2  and  C_3
REMARK    3  A    between atoms: C_5  and  C_6
REMARK    4  A    between atoms: C_6  and  C_7
REMARK    5  A    between atoms: C_7  and  C_8
REMARK    6  A    between atoms: C_8  and  C_9
REMARK    7  A    between atoms: C_8  and  O_10
REMARK    8  A    between atoms: O_10  and  C_11
REMARK    9  A    between atoms: C_11  and  S_12
REMARK   10  A    between atoms: N_13  and  C_14
REMARK   11  A    between atoms: C_14  and  C_15
REMARK   12  A    between atoms: C_15  and  C_16
REMARK   13  A    between atoms: C_24  and  O_25
REMARK                            x       y       z     vdW  Elec       q    Type
REMARK                         _______ _______ _______ _____ _____    ______ ____
ROOT
ATOM      1  C   UNL     1       6.356   5.299  16.165  0.00  0.00    +0.000 C 
ATOM      2  C   UNL     1       5.645   5.457  14.824  0.00  0.00    +0.000 C 
ENDROOT
BRANCH   1   3
ATOM      3  C   UNL     1       5.856   4.069  16.947  0.00  0.00    +0.000 C 
BRANCH   3   4
ATOM      4  C   UNL     1       4.574   3.457  16.374  0.00  0.00    +0.000 C 
BRANCH   4   7
ATOM      5  C   UNL     1       1.900   4.485  18.923  0.00  0.00    +0.000 A 
ATOM      6  C   UNL     1       2.952   4.532  17.993  0.00  0.00    +0.000 A 
ATOM      7  C   UNL     1       3.459   3.371  17.390  0.00  0.00    +0.000 A 
ATOM      8  C   UNL     1       2.903   2.137  17.741  0.00  0.00    +0.000 A 
ATOM      9  C   UNL     1       1.859   2.072  18.665  0.00  0.00    +0.000 A 
ATOM     10  C   UNL     1       1.358   3.239  19.255  0.00  0.00    +0.000 A 
BRANCH   5  12
ATOM     11  C   UNL     1       1.983   6.113  20.676  0.00  0.00    +0.000 C 
ATOM     12  O   UNL     1       1.541   5.722  19.385  0.00  0.00    +0.000 OA
ENDBRANCH   5  12
BRANCH  10  13
ATOM     13  O   UNL     1       0.334   3.119  20.154  0.00  0.00    +0.000 OA
ATOM     14  H   UNL     1       0.609   3.504  21.001  0.00  0.00    +0.000 HD
ENDBRANCH  10  13
ENDBRANCH   4   7
ENDBRANCH   3   4
ENDBRANCH   1   3
BRANCH   1  15
ATOM     15  O   UNL     1       6.050   6.458  16.980  0.00  0.00    +0.000 OA
BRANCH  15  16
ATOM     16  C   UNL     1       7.036   7.110  17.660  0.00  0.00    +0.000 C 
ATOM     17  N   UNL     1       7.351   8.333  17.390  0.00  0.00    +0.000 NA
BRANCH  16  18
ATOM     18  S   UNL     1       7.800   6.119  18.893  0.00  0.00    +0.000 S 
ATOM     19  H   UNL     1       8.397   7.139  19.519  0.00  0.00    +0.000 HD
ENDBRANCH  16  18
BRANCH  17  20
ATOM     20  C   UNL     1       8.456   8.940  18.150  0.00  0.00    +0.000 C 
BRANCH  20  21
ATOM     21  C   UNL     1       8.518  10.451  17.907  0.00  0.00    +0.000 C 
BRANCH  21  22
ATOM     22  C   UNL     1       9.737  11.047  18.580  0.00  0.00    +0.000 A 
ATOM     23  C   UNL     1       9.765  11.229  19.968  0.00  0.00    +0.000 A 
ATOM     24  C   UNL     1      10.857  11.845  20.584  0.00  0.00    +0.000 A 
ATOM     25  C   UNL     1      11.935  12.284  19.816  0.00  0.00    +0.000 A 
ATOM     26  C   UNL     1      11.923  12.104  18.435  0.00  0.00    +0.000 A 
ATOM     27  C   UNL     1      10.829  11.490  17.819  0.00  0.00    +0.000 A 
ENDBRANCH  21  22
ENDBRANCH  20  21
ENDBRANCH  17  20
ENDBRANCH  15  16
ENDBRANCH   1  15
TORSDOF 11
ENDMDL
MODEL 7
REMARK VINA RESULT:      -7.0      3.209      8.121
REMARK  Name = 
REMARK  13 active torsions:
REMARK  status: ('A' for Active; 'I' for Inactive)
REMARK    1  A    between atoms: C_1  and  O_2
REMARK    2  A    between atoms: O_2  and  C_3
REMARK    3  A    between atoms: C_5  and  C_6
REMARK    4  A    between atoms: C_6  and  C_7
REMARK    5  A    between atoms: C_7  and  C_8
REMARK    6  A    between atoms: C_8  and  C_9
REMARK    7  A    between atoms: C_8  and  O_10
REMARK    8  A    between atoms: O_10  and  C_11
REMARK    9  A    between atoms: C_11  and  S_12
REMARK   10  A    between atoms: N_13  and  C_14
REMARK   11  A    between atoms: C_14  and  C_15
REMARK   12  A    between atoms: C_15  and  C_16
REMARK   13  A    between atoms: C_24  and  O_25
REMARK                            x       y       z     vdW  Elec       q    Type
REMARK                         _______ _______ _______ _____ _____    ______ ____
ROOT
ATOM      1  C   UNL     1       1.890   5.107  19.440  0.00  0.00    +0.000 C 
ATOM      2  C   UNL     1       1.462   4.393  20.719  0.00  0.00    +0.000 C 
ENDROOT
BRANCH   1   3
ATOM      3  C   UNL     1       2.845   4.249  18.587  0.00  0.00    +0.000 C 
BRANCH   3   4
ATOM      4  C   UNL     1       4.324   4.458  18.926  0.00  0.00    +0.000 C 
BRANCH   4   7
ATOM      5  C   UNL     1       6.986   5.902  16.572  0.00  0.00    +0.000 A 
ATOM      6  C   UNL     1       6.160   5.686  17.688  0.00  0.00    +0.000 A 
ATOM      7  C   UNL     1       5.181   4.681  17.700  0.00  0.00    +0.000 A 
ATOM      8  C   UNL     1       5.025   3.885  16.562  0.00  0.00    +0.000 A 
ATOM      9  C   UNL     1       5.837   4.087  15.444  0.00  0.00    +0.000 A 
ATOM     10  C   UNL     1       6.813   5.090  15.447  0.00  0.00    +0.000 A 
BRANCH   5  12
ATOM     11  C   UNL     1       7.483   8.033  17.542  0.00  0.00    +0.000 C 
ATOM     12  O   UNL     1       7.884   6.917  16.762  0.00  0.00    +0.000 OA
ENDBRANCH   5  12
BRANCH  10  13
ATOM     13  O   UNL     1       7.582   5.245  14.326  0.00  0.00    +0.000 OA
ATOM     14  H   UNL     1       8.065   4.421  14.157  0.00  0.00    +0.000 HD
ENDBRANCH  10  13
ENDBRANCH   4   7
ENDBRANCH   3   4
ENDBRANCH   1   3
BRANCH   1  15
ATOM     15  O   UNL     1       2.626   6.299  19.810  0.00  0.00    +0.000 OA
BRANCH  15  16
ATOM     16  C   UNL     1       2.259   7.520  19.328  0.00  0.00    +0.000 C 
ATOM     17  N   UNL     1       1.502   8.318  20.005  0.00  0.00    +0.000 NA
BRANCH  16  18
ATOM     18  S   UNL     1       2.911   7.859  17.732  0.00  0.00    +0.000 S 
ATOM     19  H   UNL     1       1.905   7.284  17.063  0.00  0.00    +0.000 HD
ENDBRANCH  16  18
BRANCH  17  20
ATOM     20  C   UNL     1       1.127   9.599  19.385  0.00  0.00    +0.000 C 
BRANCH  20  21
ATOM     21  C   UNL     1      -0.170  10.140  19.995  0.00  0.00    +0.000 C 
BRANCH  21  22
ATOM     22  C   UNL     1      -1.171  10.471  18.907  0.00  0.00    +0.000 A 
ATOM     23  C   UNL     1      -2.174  11.420  19.130  0.00  0.00    +0.000 A 
ATOM     24  C   UNL     1      -3.143  11.675  18.156  0.00  0.00    +0.000 A 
ATOM     25  C   UNL     1      -3.115  10.983  16.945  0.00  0.00    +0.000 A 
ATOM     26  C   UNL     1      -2.117  10.040  16.709  0.00  0.00    +0.000 A 
ATOM     27  C   UNL     1      -1.150   9.783  17.684  0.00  0.00    +0.000 A 
ENDBRANCH  21  22
ENDBRANCH  20  21
ENDBRANCH  17  20
ENDBRANCH  15  16
ENDBRANCH   1  15
TORSDOF 11
ENDMDL
MODEL 8
REMARK VINA RESULT:      -6.9      3.152      9.008
REMARK  Name = 
REMARK  13 active torsions:
REMARK  status: ('A' for Active; 'I' for Inactive)
REMARK    1  A    between atoms: C_1  and  O_2
REMARK    2  A    between atoms: O_2  and  C_3
REMARK    3  A    between atoms: C_5  and  C_6
REMARK    4  A    between atoms: C_6  and  C_7
REMARK    5  A    between atoms: C_7  and  C_8
REMARK    6  A    between atoms: C_8  and  C_9
REMARK    7  A    between atoms: C_8  and  O_10
REMARK    8  A    between atoms: O_10  and  C_11
REMARK    9  A    between atoms: C_11  and  S_12
REMARK   10  A    between atoms: N_13  and  C_14
REMARK   11  A    between atoms: C_14  and  C_15
REMARK   12  A    between atoms: C_15  and  C_16
REMARK   13  A    between atoms: C_24  and  O_25
REMARK                            x       y       z     vdW  Elec       q    Type
REMARK                         _______ _______ _______ _____ _____    ______ ____
ROOT
ATOM      1  C   UNL     1       7.931   7.730  17.455  0.00  0.00    +0.000 C 
ATOM      2  C   UNL     1       8.059   6.826  18.677  0.00  0.00    +0.000 C 
ENDROOT
BRANCH   1   3
ATOM      3  C   UNL     1       8.229   9.205  17.789  0.00  0.00    +0.000 C 
BRANCH   3   4
ATOM      4  C   UNL     1       8.660   9.430  19.241  0.00  0.00    +0.000 C 
BRANCH   4   7
ATOM      5  C   UNL     1      11.143  12.247  18.464  0.00  0.00    +0.000 A 
ATOM      6  C   UNL     1      10.328  11.109  18.344  0.00  0.00    +0.000 A 
ATOM      7  C   UNL     1       9.545  10.643  19.410  0.00  0.00    +0.000 A 
ATOM      8  C   UNL     1       9.592  11.332  20.626  0.00  0.00    +0.000 A 
ATOM      9  C   UNL     1      10.398  12.464  20.764  0.00  0.00    +0.000 A 
ATOM     10  C   UNL     1      11.170  12.921  19.689  0.00  0.00    +0.000 A 
BRANCH   5  12
ATOM     11  C   UNL     1      11.287  13.557  16.465  0.00  0.00    +0.000 C 
ATOM     12  O   UNL     1      11.816  12.546  17.311  0.00  0.00    +0.000 OA
ENDBRANCH   5  12
BRANCH  10  13
ATOM     13  O   UNL     1      11.941  14.036  19.878  0.00  0.00    +0.000 OA
ATOM     14  H   UNL     1      11.541  14.782  19.405  0.00  0.00    +0.000 HD
ENDBRANCH  10  13
ENDBRANCH   4   7
ENDBRANCH   3   4
ENDBRANCH   1   3
BRANCH   1  15
ATOM     15  O   UNL     1       6.557   7.681  16.995  0.00  0.00    +0.000 OA
BRANCH  15  16
ATOM     16  C   UNL     1       5.902   6.491  16.888  0.00  0.00    +0.000 C 
ATOM     17  N   UNL     1       4.903   6.195  17.652  0.00  0.00    +0.000 NA
BRANCH  16  18
ATOM     18  S   UNL     1       6.561   5.446  15.639  0.00  0.00    +0.000 S 
ATOM     19  H   UNL     1       7.814   5.904  15.743  0.00  0.00    +0.000 HD
ENDBRANCH  16  18
BRANCH  17  20
ATOM     20  C   UNL     1       4.284   4.870  17.489  0.00  0.00    +0.000 C 
BRANCH  20  21
ATOM     21  C   UNL     1       2.789   4.923  17.820  0.00  0.00    +0.000 C 
BRANCH  21  22
ATOM     22  C   UNL     1       2.488   4.095  19.052  0.00  0.00    +0.000 A 
ATOM     23  C   UNL     1       1.203   4.085  19.605  0.00  0.00    +0.000 A 
ATOM     24  C   UNL     1       0.940   3.381  20.783  0.00  0.00    +0.000 A 
ATOM     25  C   UNL     1       1.962   2.676  21.418  0.00  0.00    +0.000 A 
ATOM     26  C   UNL     1       3.244   2.673  20.874  0.00  0.00    +0.000 A 
ATOM     27  C   UNL     1       3.508   3.379  19.698  0.00  0.00    +0.000 A 
ENDBRANCH  21  22
ENDBRANCH  20  21
ENDBRANCH  17  20
ENDBRANCH  15  16
ENDBRANCH   1  15
TORSDOF 11
ENDMDL
MODEL 9
REMARK VINA RESULT:      -6.9      3.125      8.934
REMARK  Name = 
REMARK  13 active torsions:
REMARK  status: ('A' for Active; 'I' for Inactive)
REMARK    1  A    between atoms: C_1  and  O_2
REMARK    2  A    between atoms: O_2  and  C_3
REMARK    3  A    between atoms: C_5  and  C_6
REMARK    4  A    between atoms: C_6  and  C_7
REMARK    5  A    between atoms: C_7  and  C_8
REMARK    6  A    between atoms: C_8  and  C_9
REMARK    7  A    between atoms: C_8  and  O_10
REMARK    8  A    between atoms: O_10  and  C_11
REMARK    9  A    between atoms: C_11  and  S_12
REMARK   10  A    between atoms: N_13  and  C_14
REMARK   11  A    between atoms: C_14  and  C_15
REMARK   12  A    between atoms: C_15  and  C_16
REMARK   13  A    between atoms: C_24  and  O_25
REMARK                            x       y       z     vdW  Elec       q    Type
REMARK                         _______ _______ _______ _____ _____    ______ ____
ROOT
ATOM      1  C   UNL     1       7.753   7.529  17.437  0.00  0.00    +0.000 C 
ATOM      2  C   UNL     1       7.844   6.669  18.694  0.00  0.00    +0.000 C 
ENDROOT
BRANCH   1   3
ATOM      3  C   UNL     1       7.897   9.032  17.749  0.00  0.00    +0.000 C 
BRANCH   3   4
ATOM      4  C   UNL     1       8.971   9.341  18.795  0.00  0.00    +0.000 C 
BRANCH   4   7
ATOM      5  C   UNL     1       9.525  13.052  19.588  0.00  0.00    +0.000 A 
ATOM      6  C   UNL     1       9.050  11.730  19.627  0.00  0.00    +0.000 A 
ATOM      7  C   UNL     1       9.483  10.761  18.711  0.00  0.00    +0.000 A 
ATOM      8  C   UNL     1      10.403  11.133  17.727  0.00  0.00    +0.000 A 
ATOM      9  C   UNL     1      10.884  12.443  17.671  0.00  0.00    +0.000 A 
ATOM     10  C   UNL     1      10.449  13.399  18.597  0.00  0.00    +0.000 A 
BRANCH   5  12
ATOM     11  C   UNL     1       9.669  13.902  21.821  0.00  0.00    +0.000 C 
ATOM     12  O   UNL     1       8.995  13.840  20.573  0.00  0.00    +0.000 OA
ENDBRANCH   5  12
BRANCH  10  13
ATOM     13  O   UNL     1      10.952  14.668  18.498  0.00  0.00    +0.000 OA
ATOM     14  H   UNL     1      11.907  14.618  18.336  0.00  0.00    +0.000 HD
ENDBRANCH  10  13
ENDBRANCH   4   7
ENDBRANCH   3   4
ENDBRANCH   1   3
BRANCH   1  15
ATOM     15  O   UNL     1       6.436   7.352  16.859  0.00  0.00    +0.000 OA
BRANCH  15  16
ATOM     16  C   UNL     1       5.945   6.103  16.617  0.00  0.00    +0.000 C 
ATOM     17  N   UNL     1       4.807   5.719  17.090  0.00  0.00    +0.000 NA
BRANCH  16  18
ATOM     18  S   UNL     1       7.012   5.119  15.628  0.00  0.00    +0.000 S 
ATOM     19  H   UNL     1       8.111   5.363  16.351  0.00  0.00    +0.000 HD
ENDBRANCH  16  18
BRANCH  17  20
ATOM     20  C   UNL     1       4.378   4.339  16.808  0.00  0.00    +0.000 C 
BRANCH  20  21
ATOM     21  C   UNL     1       4.451   3.478  18.073  0.00  0.00    +0.000 C 
BRANCH  21  22
ATOM     22  C   UNL     1       3.144   3.543  18.836  0.00  0.00    +0.000 A 
ATOM     23  C   UNL     1       3.026   4.347  19.976  0.00  0.00    +0.000 A 
ATOM     24  C   UNL     1       1.846   4.354  20.723  0.00  0.00    +0.000 A 
ATOM     25  C   UNL     1       0.769   3.557  20.335  0.00  0.00    +0.000 A 
ATOM     26  C   UNL     1       0.871   2.757  19.199  0.00  0.00    +0.000 A 
ATOM     27  C   UNL     1       2.053   2.749  18.453  0.00  0.00    +0.000 A 
ENDBRANCH  21  22
ENDBRANCH  20  21
ENDBRANCH  17  20
ENDBRANCH  15  16
ENDBRANCH   1  15
TORSDOF 11
ENDMDL
