MODEL 1
REMARK VINA RESULT:      -6.3      0.000      0.000
REMARK  Name = 
REMARK  8 active torsions:
REMARK  status: ('A' for Active; 'I' for Inactive)
REMARK    1  A    between atoms: C_1  and  O_2
REMARK    2  A    between atoms: O_2  and  C_3
REMARK    3  A    between atoms: C_3  and  C_4
REMARK    4  A    between atoms: C_4  and  N_5
REMARK    5  A    between atoms: N_5  and  C_6
REMARK    6  A    between atoms: C_6  and  C_7
REMARK    7  A    between atoms: N_10  and  C_11
REMARK    8  A    between atoms: C_13  and  C_15
REMARK                            x       y       z     vdW  Elec       q    Type
REMARK                         _______ _______ _______ _____ _____    ______ ____
ROOT
ATOM      1  N   UNL     1       5.363   5.203  17.531  0.00  0.00    +0.000 N 
ATOM      2  C   UNL     1       4.592   4.242  18.214  0.00  0.00    +0.000 C 
ATOM      3  O   UNL     1       4.745   4.052  19.424  0.00  0.00    +0.000 OA
ENDROOT
BRANCH   2   4
ATOM      4  C   UNL     1       3.533   3.441  17.440  0.00  0.00    +0.000 C 
ATOM      5  C   UNL     1       2.106   3.977  17.593  0.00  0.00    +0.000 C 
ATOM      6  C   UNL     1       1.460   3.056  18.607  0.00  0.00    +0.000 C 
ATOM      7  N   UNL     1       2.043   1.742  18.327  0.00  0.00    +0.000 NA
ATOM      8  C   UNL     1       3.437   2.006  17.944  0.00  0.00    +0.000 C 
ATOM      9  H   UNL     1       1.554   1.316  17.542  0.00  0.00    +0.000 HD
ENDBRANCH   2   4
BRANCH   1  10
ATOM     10  C   UNL     1       6.195   6.067  18.393  0.00  0.00    +0.000 C 
BRANCH  10  11
ATOM     11  C   UNL     1       7.634   6.380  17.960  0.00  0.00    +0.000 C 
BRANCH  11  13
ATOM     12  C   UNL     1       8.002   8.706  17.860  0.00  0.00    +0.000 C 
ATOM     13  O   UNL     1       7.693   7.533  17.115  0.00  0.00    +0.000 OA
ENDBRANCH  11  13
ENDBRANCH  10  11
ENDBRANCH   1  10
BRANCH   1  14
ATOM     14  C   UNL     1       5.005   5.712  16.203  0.00  0.00    +0.000 C 
BRANCH  14  15
ATOM     15  C   UNL     1       5.651   4.968  15.079  0.00  0.00    +0.000 A 
ATOM     16  C   UNL     1       6.979   5.175  14.628  0.00  0.00    +0.000 A 
ATOM     17  N   UNL     1       7.277   4.469  13.536  0.00  0.00    +0.000 NA
ATOM     18  N   UNL     1       6.137   3.810  13.268  0.00  0.00    +0.000 N 
ATOM     19  C   UNL     1       6.022   3.057  12.043  0.00  0.00    +0.000 C 
ATOM     20  C   UNL     1       5.166   4.011  14.208  0.00  0.00    +0.000 A 
ENDBRANCH  14  15
ENDBRANCH   1  14
TORSDOF 6
ENDMDL
MODEL 2
REMARK VINA RESULT:      -6.2      3.087      6.373
REMARK  Name = 
REMARK  8 active torsions:
REMARK  status: ('A' for Active; 'I' for Inactive)
REMARK    1  A    between atoms: C_1  and  O_2
REMARK    2  A    between atoms: O_2  and  C_3
REMARK    3  A    between atoms: C_3  and  C_4
REMARK    4  A    between atoms: C_4  and  N_5
REMARK    5  A    between atoms: N_5  and  C_6
REMARK    6  A    between atoms: C_6  and  C_7
REMARK    7  A    between atoms: N_10  and  C_11
REMARK    8  A    between atoms: C_13  and  C_15
REMARK                            x       y       z     vdW  Elec       q    Type
REMARK                         _______ _______ _______ _____ _____    ______ ____
ROOT
ATOM      1  N   UNL     1       3.990   4.825  18.767  0.00  0.00    +0.000 N 
ATOM      2  C   UNL     1       5.265   4.789  18.169  0.00  0.00    +0.000 C 
ATOM      3  O   UNL     1       6.157   4.070  18.625  0.00  0.00    +0.000 OA
ENDROOT
BRANCH   2   4
ATOM      4  C   UNL     1       5.533   5.642  16.919  0.00  0.00    +0.000 C 
ATOM      5  C   UNL     1       5.371   4.885  15.597  0.00  0.00    +0.000 C 
ATOM      6  C   UNL     1       6.786   4.560  15.169  0.00  0.00    +0.000 C 
ATOM      7  N   UNL     1       7.572   5.717  15.605  0.00  0.00    +0.000 NA
ATOM      8  C   UNL     1       6.972   6.140  16.878  0.00  0.00    +0.000 C 
ATOM      9  H   UNL     1       7.476   6.466  14.922  0.00  0.00    +0.000 HD
ENDBRANCH   2   4
BRANCH   1  10
ATOM     10  C   UNL     1       3.764   3.817  19.823  0.00  0.00    +0.000 C 
BRANCH  10  11
ATOM     11  C   UNL     1       2.942   2.565  19.487  0.00  0.00    +0.000 C 
BRANCH  11  13
ATOM     12  C   UNL     1       1.652   2.819  21.443  0.00  0.00    +0.000 C 
ATOM     13  O   UNL     1       1.621   2.638  20.032  0.00  0.00    +0.000 OA
ENDBRANCH  11  13
ENDBRANCH  10  11
ENDBRANCH   1  10
BRANCH   1  14
ATOM     14  C   UNL     1       2.811   5.377  18.092  0.00  0.00    +0.000 C 
BRANCH  14  15
ATOM     15  C   UNL     1       2.438   6.748  18.557  0.00  0.00    +0.000 A 
ATOM     16  C   UNL     1       2.093   7.086  19.889  0.00  0.00    +0.000 A 
ATOM     17  N   UNL     1       1.688   8.350  20.021  0.00  0.00    +0.000 NA
ATOM     18  N   UNL     1       1.756   8.833  18.769  0.00  0.00    +0.000 N 
ATOM     19  C   UNL     1       1.232  10.146  18.483  0.00  0.00    +0.000 C 
ATOM     20  C   UNL     1       2.278   7.940  17.876  0.00  0.00    +0.000 A 
ENDBRANCH  14  15
ENDBRANCH   1  14
TORSDOF 6
ENDMDL
MODEL 3
REMARK VINA RESULT:      -6.2      3.032      6.505
REMARK  Name = 
REMARK  8 active torsions:
REMARK  status: ('A' for Active; 'I' for Inactive)
REMARK    1  A    between atoms: C_1  and  O_2
REMARK    2  A    between atoms: O_2  and  C_3
REMARK    3  A    between atoms: C_3  and  C_4
REMARK    4  A    between atoms: C_4  and  N_5
REMARK    5  A    between atoms: N_5  and  C_6
REMARK    6  A    between atoms: C_6  and  C_7
REMARK    7  A    between atoms: N_10  and  C_11
REMARK    8  A    between atoms: C_13  and  C_15
REMARK                            x       y       z     vdW  Elec       q    Type
REMARK                         _______ _______ _______ _____ _____    ______ ____
ROOT
ATOM      1  N   UNL     1       4.113   4.587  18.825  0.00  0.00    +0.000 N 
ATOM      2  C   UNL     1       5.405   4.737  18.281  0.00  0.00    +0.000 C 
ATOM      3  O   UNL     1       6.341   4.035  18.672  0.00  0.00    +0.000 OA
ENDROOT
BRANCH   2   4
ATOM      4  C   UNL     1       5.636   5.774  17.171  0.00  0.00    +0.000 C 
ATOM      5  C   UNL     1       5.390   5.243  15.756  0.00  0.00    +0.000 C 
ATOM      6  C   UNL     1       6.774   4.963  15.209  0.00  0.00    +0.000 C 
ATOM      7  N   UNL     1       7.612   6.019  15.783  0.00  0.00    +0.000 NA
ATOM      8  C   UNL     1       7.085   6.244  17.136  0.00  0.00    +0.000 C 
ATOM      9  H   UNL     1       7.504   6.870  15.234  0.00  0.00    +0.000 HD
ENDBRANCH   2   4
BRANCH   1  10
ATOM     10  C   UNL     1       3.943   3.427  19.724  0.00  0.00    +0.000 C 
BRANCH  10  11
ATOM     11  C   UNL     1       2.818   2.423  19.432  0.00  0.00    +0.000 C 
BRANCH  11  13
ATOM     12  C   UNL     1       2.175   3.058  21.609  0.00  0.00    +0.000 C 
ATOM     13  O   UNL     1       1.730   2.568  20.349  0.00  0.00    +0.000 OA
ENDBRANCH  11  13
ENDBRANCH  10  11
ENDBRANCH   1  10
BRANCH   1  14
ATOM     14  C   UNL     1       2.913   5.132  18.185  0.00  0.00    +0.000 C 
BRANCH  14  15
ATOM     15  C   UNL     1       2.365   6.345  18.864  0.00  0.00    +0.000 A 
ATOM     16  C   UNL     1       2.283   7.633  18.278  0.00  0.00    +0.000 A 
ATOM     17  N   UNL     1       1.864   8.570  19.131  0.00  0.00    +0.000 NA
ATOM     18  N   UNL     1       1.685   7.893  20.277  0.00  0.00    +0.000 N 
ATOM     19  C   UNL     1       1.385   8.614  21.490  0.00  0.00    +0.000 C 
ATOM     20  C   UNL     1       1.890   6.548  20.146  0.00  0.00    +0.000 A 
ENDBRANCH  14  15
ENDBRANCH   1  14
TORSDOF 6
ENDMDL
MODEL 4
REMARK VINA RESULT:      -6.1      3.246      6.470
REMARK  Name = 
REMARK  8 active torsions:
REMARK  status: ('A' for Active; 'I' for Inactive)
REMARK    1  A    between atoms: C_1  and  O_2
REMARK    2  A    between atoms: O_2  and  C_3
REMARK    3  A    between atoms: C_3  and  C_4
REMARK    4  A    between atoms: C_4  and  N_5
REMARK    5  A    between atoms: N_5  and  C_6
REMARK    6  A    between atoms: C_6  and  C_7
REMARK    7  A    between atoms: N_10  and  C_11
REMARK    8  A    between atoms: C_13  and  C_15
REMARK                            x       y       z     vdW  Elec       q    Type
REMARK                         _______ _______ _______ _____ _____    ______ ____
ROOT
ATOM      1  N   UNL     1       3.282   4.187  18.737  0.00  0.00    +0.000 N 
ATOM      2  C   UNL     1       4.669   4.063  18.953  0.00  0.00    +0.000 C 
ATOM      3  O   UNL     1       5.139   3.054  19.487  0.00  0.00    +0.000 OA
ENDROOT
BRANCH   2   4
ATOM      4  C   UNL     1       5.604   5.193  18.494  0.00  0.00    +0.000 C 
ATOM      5  C   UNL     1       6.361   4.893  17.197  0.00  0.00    +0.000 C 
ATOM      6  C   UNL     1       7.749   4.492  17.650  0.00  0.00    +0.000 C 
ATOM      7  N   UNL     1       8.005   5.333  18.822  0.00  0.00    +0.000 NA
ATOM      8  C   UNL     1       6.711   5.451  19.509  0.00  0.00    +0.000 C 
ATOM      9  H   UNL     1       8.308   6.255  18.516  0.00  0.00    +0.000 HD
ENDBRANCH   2   4
BRANCH   1  10
ATOM     10  C   UNL     1       2.494   2.967  19.011  0.00  0.00    +0.000 C 
BRANCH  10  11
ATOM     11  C   UNL     1       1.002   3.109  19.343  0.00  0.00    +0.000 C 
BRANCH  11  13
ATOM     12  C   UNL     1       1.657   2.767  21.581  0.00  0.00    +0.000 C 
ATOM     13  O   UNL     1       0.798   3.490  20.707  0.00  0.00    +0.000 OA
ENDBRANCH  11  13
ENDBRANCH  10  11
ENDBRANCH   1  10
BRANCH   1  14
ATOM     14  C   UNL     1       2.705   5.176  17.822  0.00  0.00    +0.000 C 
BRANCH  14  15
ATOM     15  C   UNL     1       2.411   6.492  18.466  0.00  0.00    +0.000 A 
ATOM     16  C   UNL     1       2.247   6.694  19.859  0.00  0.00    +0.000 A 
ATOM     17  N   UNL     1       1.876   7.938  20.167  0.00  0.00    +0.000 NA
ATOM     18  N   UNL     1       1.786   8.544  18.972  0.00  0.00    +0.000 N 
ATOM     19  C   UNL     1       1.243   9.878  18.890  0.00  0.00    +0.000 C 
ATOM     20  C   UNL     1       2.177   7.746  17.934  0.00  0.00    +0.000 A 
ENDBRANCH  14  15
ENDBRANCH   1  14
TORSDOF 6
ENDMDL
MODEL 5
REMARK VINA RESULT:      -6.1      3.343      6.404
REMARK  Name = 
REMARK  8 active torsions:
REMARK  status: ('A' for Active; 'I' for Inactive)
REMARK    1  A    between atoms: C_1  and  O_2
REMARK    2  A    between atoms: O_2  and  C_3
REMARK    3  A    between atoms: C_3  and  C_4
REMARK    4  A    between atoms: C_4  and  N_5
REMARK    5  A    between atoms: N_5  and  C_6
REMARK    6  A    between atoms: C_6  and  C_7
REMARK    7  A    between atoms: N_10  and  C_11
REMARK    8  A    between atoms: C_13  and  C_15
REMARK                            x       y       z     vdW  Elec       q    Type
REMARK                         _______ _______ _______ _____ _____    ______ ____
ROOT
ATOM      1  N   UNL     1       3.159   4.914  18.661  0.00  0.00    +0.000 N 
ATOM      2  C   UNL     1       3.983   4.619  17.557  0.00  0.00    +0.000 C 
ATOM      3  O   UNL     1       3.637   3.786  16.715  0.00  0.00    +0.000 OA
ENDROOT
BRANCH   2   4
ATOM      4  C   UNL     1       5.317   5.364  17.394  0.00  0.00    +0.000 C 
ATOM      5  C   UNL     1       5.750   5.565  15.939  0.00  0.00    +0.000 C 
ATOM      6  C   UNL     1       6.795   4.496  15.702  0.00  0.00    +0.000 C 
ATOM      7  N   UNL     1       7.501   4.387  16.981  0.00  0.00    +0.000 NA
ATOM      8  C   UNL     1       6.472   4.586  18.012  0.00  0.00    +0.000 C 
ATOM      9  H   UNL     1       8.192   5.131  17.049  0.00  0.00    +0.000 HD
ENDBRANCH   2   4
BRANCH   1  10
ATOM     10  C   UNL     1       1.811   4.312  18.616  0.00  0.00    +0.000 C 
BRANCH  10  11
ATOM     11  C   UNL     1       1.079   4.037  19.937  0.00  0.00    +0.000 C 
BRANCH  11  13
ATOM     12  C   UNL     1       2.188   2.762  21.580  0.00  0.00    +0.000 C 
ATOM     13  O   UNL     1       1.352   2.722  20.429  0.00  0.00    +0.000 OA
ENDBRANCH  11  13
ENDBRANCH  10  11
ENDBRANCH   1  10
BRANCH   1  14
ATOM     14  C   UNL     1       3.342   6.108  19.492  0.00  0.00    +0.000 C 
BRANCH  14  15
ATOM     15  C   UNL     1       2.596   7.305  18.999  0.00  0.00    +0.000 A 
ATOM     16  C   UNL     1       2.751   7.884  17.715  0.00  0.00    +0.000 A 
ATOM     17  N   UNL     1       2.057   9.013  17.562  0.00  0.00    +0.000 NA
ATOM     18  N   UNL     1       1.459   9.177  18.753  0.00  0.00    +0.000 N 
ATOM     19  C   UNL     1       0.740  10.398  19.026  0.00  0.00    +0.000 C 
ATOM     20  C   UNL     1       1.683   8.140  19.614  0.00  0.00    +0.000 A 
ENDBRANCH  14  15
ENDBRANCH   1  14
TORSDOF 6
ENDMDL
MODEL 6
REMARK VINA RESULT:      -6.1      3.208      6.456
REMARK  Name = 
REMARK  8 active torsions:
REMARK  status: ('A' for Active; 'I' for Inactive)
REMARK    1  A    between atoms: C_1  and  O_2
REMARK    2  A    between atoms: O_2  and  C_3
REMARK    3  A    between atoms: C_3  and  C_4
REMARK    4  A    between atoms: C_4  and  N_5
REMARK    5  A    between atoms: N_5  and  C_6
REMARK    6  A    between atoms: C_6  and  C_7
REMARK    7  A    between atoms: N_10  and  C_11
REMARK    8  A    between atoms: C_13  and  C_15
REMARK                            x       y       z     vdW  Elec       q    Type
REMARK                         _______ _______ _______ _____ _____    ______ ____
ROOT
ATOM      1  N   UNL     1       3.791   5.174  18.830  0.00  0.00    +0.000 N 
ATOM      2  C   UNL     1       5.116   5.134  18.353  0.00  0.00    +0.000 C 
ATOM      3  O   UNL     1       5.944   4.364  18.848  0.00  0.00    +0.000 OA
ENDROOT
BRANCH   2   4
ATOM      4  C   UNL     1       5.521   6.047  17.185  0.00  0.00    +0.000 C 
ATOM      5  C   UNL     1       5.372   5.402  15.804  0.00  0.00    +0.000 C 
ATOM      6  C   UNL     1       6.778   4.989  15.423  0.00  0.00    +0.000 C 
ATOM      7  N   UNL     1       7.630   6.041  15.983  0.00  0.00    +0.000 NA
ATOM      8  C   UNL     1       6.997   6.422  17.253  0.00  0.00    +0.000 C 
ATOM      9  H   UNL     1       7.633   6.842  15.355  0.00  0.00    +0.000 HD
ENDBRANCH   2   4
BRANCH   1  10
ATOM     10  C   UNL     1       3.443   4.115  19.801  0.00  0.00    +0.000 C 
BRANCH  10  11
ATOM     11  C   UNL     1       2.172   3.285  19.566  0.00  0.00    +0.000 C 
BRANCH  11  13
ATOM     12  C   UNL     1       3.314   1.748  18.192  0.00  0.00    +0.000 C 
ATOM     13  O   UNL     1       2.477   1.907  19.332  0.00  0.00    +0.000 OA
ENDBRANCH  11  13
ENDBRANCH  10  11
ENDBRANCH   1  10
BRANCH   1  14
ATOM     14  C   UNL     1       2.695   5.797  18.083  0.00  0.00    +0.000 C 
BRANCH  14  15
ATOM     15  C   UNL     1       2.299   7.141  18.603  0.00  0.00    +0.000 A 
ATOM     16  C   UNL     1       1.975   7.423  19.953  0.00  0.00    +0.000 A 
ATOM     17  N   UNL     1       1.542   8.672  20.137  0.00  0.00    +0.000 NA
ATOM     18  N   UNL     1       1.570   9.199  18.902  0.00  0.00    +0.000 N 
ATOM     19  C   UNL     1       1.007  10.507  18.674  0.00  0.00    +0.000 C 
ATOM     20  C   UNL     1       2.094   8.351  17.967  0.00  0.00    +0.000 A 
ENDBRANCH  14  15
ENDBRANCH   1  14
TORSDOF 6
ENDMDL
MODEL 7
REMARK VINA RESULT:      -6.1      2.206      5.839
REMARK  Name = 
REMARK  8 active torsions:
REMARK  status: ('A' for Active; 'I' for Inactive)
REMARK    1  A    between atoms: C_1  and  O_2
REMARK    2  A    between atoms: O_2  and  C_3
REMARK    3  A    between atoms: C_3  and  C_4
REMARK    4  A    between atoms: C_4  and  N_5
REMARK    5  A    between atoms: N_5  and  C_6
REMARK    6  A    between atoms: C_6  and  C_7
REMARK    7  A    between atoms: N_10  and  C_11
REMARK    8  A    between atoms: C_13  and  C_15
REMARK                            x       y       z     vdW  Elec       q    Type
REMARK                         _______ _______ _______ _____ _____    ______ ____
ROOT
ATOM      1  N   UNL     1       5.767   4.448  16.391  0.00  0.00    +0.000 N 
ATOM      2  C   UNL     1       6.915   4.905  17.068  0.00  0.00    +0.000 C 
ATOM      3  O   UNL     1       8.032   4.462  16.788  0.00  0.00    +0.000 OA
ENDROOT
BRANCH   2   4
ATOM      4  C   UNL     1       6.768   5.985  18.150  0.00  0.00    +0.000 C 
ATOM      5  C   UNL     1       6.678   7.413  17.603  0.00  0.00    +0.000 C 
ATOM      6  C   UNL     1       8.064   7.986  17.808  0.00  0.00    +0.000 C 
ATOM      7  N   UNL     1       8.522   7.391  19.066  0.00  0.00    +0.000 NA
ATOM      8  C   UNL     1       7.982   6.025  19.071  0.00  0.00    +0.000 C 
ATOM      9  H   UNL     1       8.128   7.912  19.847  0.00  0.00    +0.000 HD
ENDBRANCH   2   4
BRANCH   1  10
ATOM     10  C   UNL     1       6.030   3.576  15.228  0.00  0.00    +0.000 C 
BRANCH  10  11
ATOM     11  C   UNL     1       5.688   4.092  13.823  0.00  0.00    +0.000 C 
BRANCH  11  13
ATOM     12  C   UNL     1       5.458   2.842  11.838  0.00  0.00    +0.000 C 
ATOM     13  O   UNL     1       6.369   3.349  12.807  0.00  0.00    +0.000 OA
ENDBRANCH  11  13
ENDBRANCH  10  11
ENDBRANCH   1  10
BRANCH   1  14
ATOM     14  C   UNL     1       4.485   5.159  16.429  0.00  0.00    +0.000 C 
BRANCH  14  15
ATOM     15  C   UNL     1       3.457   4.501  17.292  0.00  0.00    +0.000 A 
ATOM     16  C   UNL     1       2.511   5.189  18.092  0.00  0.00    +0.000 A 
ATOM     17  N   UNL     1       1.781   4.375  18.856  0.00  0.00    +0.000 NA
ATOM     18  N   UNL     1       2.262   3.156  18.563  0.00  0.00    +0.000 N 
ATOM     19  C   UNL     1       1.821   2.015  19.329  0.00  0.00    +0.000 C 
ATOM     20  C   UNL     1       3.204   3.172  17.574  0.00  0.00    +0.000 A 
ENDBRANCH  14  15
ENDBRANCH   1  14
TORSDOF 6
ENDMDL
MODEL 8
REMARK VINA RESULT:      -6.1      2.172      5.928
REMARK  Name = 
REMARK  8 active torsions:
REMARK  status: ('A' for Active; 'I' for Inactive)
REMARK    1  A    between atoms: C_1  and  O_2
REMARK    2  A    between atoms: O_2  and  C_3
REMARK    3  A    between atoms: C_3  and  C_4
REMARK    4  A    between atoms: C_4  and  N_5
REMARK    5  A    between atoms: N_5  and  C_6
REMARK    6  A    between atoms: C_6  and  C_7
REMARK    7  A    between atoms: N_10  and  C_11
REMARK    8  A    between atoms: C_13  and  C_15
REMARK                            x       y       z     vdW  Elec       q    Type
REMARK                         _______ _______ _______ _____ _____    ______ ____
ROOT
ATOM      1  N   UNL     1       5.691   4.344  16.442  0.00  0.00    +0.000 N 
ATOM      2  C   UNL     1       6.853   4.916  16.996  0.00  0.00    +0.000 C 
ATOM      3  O   UNL     1       7.973   4.587  16.595  0.00  0.00    +0.000 OA
ENDROOT
BRANCH   2   4
ATOM      4  C   UNL     1       6.716   5.978  18.098  0.00  0.00    +0.000 C 
ATOM      5  C   UNL     1       6.606   7.414  17.575  0.00  0.00    +0.000 C 
ATOM      6  C   UNL     1       7.991   7.994  17.765  0.00  0.00    +0.000 C 
ATOM      7  N   UNL     1       8.474   7.384  19.006  0.00  0.00    +0.000 NA
ATOM      8  C   UNL     1       7.945   6.013  18.999  0.00  0.00    +0.000 C 
ATOM      9  H   UNL     1       8.090   7.889  19.802  0.00  0.00    +0.000 HD
ENDBRANCH   2   4
BRANCH   1  10
ATOM     10  C   UNL     1       5.914   3.500  15.250  0.00  0.00    +0.000 C 
BRANCH  10  11
ATOM     11  C   UNL     1       6.160   4.182  13.897  0.00  0.00    +0.000 C 
BRANCH  11  13
ATOM     12  C   UNL     1       6.343   2.907  11.923  0.00  0.00    +0.000 C 
ATOM     13  O   UNL     1       5.450   3.529  12.840  0.00  0.00    +0.000 OA
ENDBRANCH  11  13
ENDBRANCH  10  11
ENDBRANCH   1  10
BRANCH   1  14
ATOM     14  C   UNL     1       4.356   4.923  16.624  0.00  0.00    +0.000 C 
BRANCH  14  15
ATOM     15  C   UNL     1       3.523   4.210  17.638  0.00  0.00    +0.000 A 
ATOM     16  C   UNL     1       3.473   2.803  17.801  0.00  0.00    +0.000 A 
ATOM     17  N   UNL     1       2.565   2.412  18.697  0.00  0.00    +0.000 NA
ATOM     18  N   UNL     1       2.013   3.565  19.109  0.00  0.00    +0.000 N 
ATOM     19  C   UNL     1       0.859   3.533  19.974  0.00  0.00    +0.000 C 
ATOM     20  C   UNL     1       2.609   4.670  18.568  0.00  0.00    +0.000 A 
ENDBRANCH  14  15
ENDBRANCH   1  14
TORSDOF 6
ENDMDL
MODEL 9
REMARK VINA RESULT:      -5.9      2.530      4.529
REMARK  Name = 
REMARK  8 active torsions:
REMARK  status: ('A' for Active; 'I' for Inactive)
REMARK    1  A    between atoms: C_1  and  O_2
REMARK    2  A    between atoms: O_2  and  C_3
REMARK    3  A    between atoms: C_3  and  C_4
REMARK    4  A    between atoms: C_4  and  N_5
REMARK    5  A    between atoms: N_5  and  C_6
REMARK    6  A    between atoms: C_6  and  C_7
REMARK    7  A    between atoms: N_10  and  C_11
REMARK    8  A    between atoms: C_13  and  C_15
REMARK                            x       y       z     vdW  Elec       q    Type
REMARK                         _______ _______ _______ _____ _____    ______ ____
ROOT
ATOM      1  N   UNL     1       3.640   4.131  17.751  0.00  0.00    +0.000 N 
ATOM      2  C   UNL     1       2.743   5.160  18.101  0.00  0.00    +0.000 C 
ATOM      3  O   UNL     1       1.525   4.967  18.093  0.00  0.00    +0.000 OA
ENDROOT
BRANCH   2   4
ATOM      4  C   UNL     1       3.300   6.531  18.518  0.00  0.00    +0.000 C 
ATOM      5  C   UNL     1       2.344   7.359  19.383  0.00  0.00    +0.000 C 
ATOM      6  C   UNL     1       1.736   8.361  18.424  0.00  0.00    +0.000 C 
ATOM      7  N   UNL     1       2.822   8.679  17.494  0.00  0.00    +0.000 NA
ATOM      8  C   UNL     1       3.559   7.421  17.309  0.00  0.00    +0.000 C 
ATOM      9  H   UNL     1       3.438   9.370  17.918  0.00  0.00    +0.000 HD
ENDBRANCH   2   4
BRANCH   1  10
ATOM     10  C   UNL     1       3.026   2.798  17.577  0.00  0.00    +0.000 C 
BRANCH  10  11
ATOM     11  C   UNL     1       3.070   1.804  18.747  0.00  0.00    +0.000 C 
BRANCH  11  13
ATOM     12  C   UNL     1       2.746   2.713  20.897  0.00  0.00    +0.000 C 
ATOM     13  O   UNL     1       2.115   2.136  19.759  0.00  0.00    +0.000 OA
ENDBRANCH  11  13
ENDBRANCH  10  11
ENDBRANCH   1  10
BRANCH   1  14
ATOM     14  C   UNL     1       5.071   4.183  18.063  0.00  0.00    +0.000 C 
BRANCH  14  15
ATOM     15  C   UNL     1       5.936   4.458  16.876  0.00  0.00    +0.000 A 
ATOM     16  C   UNL     1       6.910   5.486  16.804  0.00  0.00    +0.000 A 
ATOM     17  N   UNL     1       7.465   5.597  15.596  0.00  0.00    +0.000 NA
ATOM     18  N   UNL     1       6.842   4.649  14.876  0.00  0.00    +0.000 N 
ATOM     19  C   UNL     1       7.067   4.574  13.452  0.00  0.00    +0.000 C 
ATOM     20  C   UNL     1       5.983   3.888  15.617  0.00  0.00    +0.000 A 
ENDBRANCH  14  15
ENDBRANCH   1  14
TORSDOF 6
ENDMDL
