MODEL 1
REMARK VINA RESULT:      -7.8      0.000      0.000
REMARK  Name = 
REMARK  8 active torsions:
REMARK  status: ('A' for Active; 'I' for Inactive)
REMARK    1  A    between atoms: N_1  and  C_2
REMARK    2  A    between atoms: C_2  and  C_3
REMARK    3  A    between atoms: C_2  and  C_12
REMARK    4  A    between atoms: C_3  and  C_4
REMARK    5  A    between atoms: N_14  and  C_15
REMARK    6  A    between atoms: C_15  and  C_16
REMARK    7  A    between atoms: C_16  and  C_17
REMARK    8  A    between atoms: C_20  and  O_21
REMARK                            x       y       z     vdW  Elec       q    Type
REMARK                         _______ _______ _______ _____ _____    ______ ____
ROOT
ATOM      1  C   UNL     1       7.275   6.725  17.214  0.00  0.00    +0.000 C 
ATOM      2  O   UNL     1       7.779   6.649  16.097  0.00  0.00    +0.000 OA
ATOM      3  N   UNL     1       7.365   7.859  17.997  0.00  0.00    +0.000 N 
ATOM      4  H   UNL     1       7.039   7.826  18.955  0.00  0.00    +0.000 HD
ENDROOT
BRANCH   1   5
ATOM      5  C   UNL     1       6.491   5.549  17.860  0.00  0.00    +0.000 C 
BRANCH   5   6
ATOM      6  N   UNL     1       7.433   4.435  18.123  0.00  0.00    +0.000 NA
ATOM      7  H   UNL     1       8.355   4.851  18.288  0.00  0.00    +0.000 HD
ATOM      8  H   UNL     1       7.569   3.935  17.240  0.00  0.00    +0.000 HD
ENDBRANCH   5   6
BRANCH   5   9
ATOM      9  C   UNL     1       5.349   5.130  16.915  0.00  0.00    +0.000 C 
BRANCH   9  10
ATOM     10  C   UNL     1       4.151   4.441  17.538  0.00  0.00    +0.000 A 
ATOM     11  C   UNL     1       4.141   3.036  17.609  0.00  0.00    +0.000 A 
ATOM     12  C   UNL     1       2.998   2.348  18.029  0.00  0.00    +0.000 A 
ATOM     13  C   UNL     1       1.861   3.057  18.399  0.00  0.00    +0.000 A 
ATOM     14 CL   UNL     1       0.436   2.208  18.858  0.00  0.00    +0.000 Cl
ATOM     15  C   UNL     1       1.865   4.449  18.390  0.00  0.00    +0.000 A 
ATOM     16  C   UNL     1       3.009   5.137  17.969  0.00  0.00    +0.000 A 
ATOM     17 CL   UNL     1       2.946   6.865  17.965  0.00  0.00    +0.000 Cl
ENDBRANCH   9  10
ENDBRANCH   5   9
ENDBRANCH   1   5
BRANCH   3  18
ATOM     18  C   UNL     1       8.111   9.022  17.549  0.00  0.00    +0.000 C 
BRANCH  18  19
ATOM     19  C   UNL     1       8.882   9.691  18.690  0.00  0.00    +0.000 C 
BRANCH  19  20
ATOM     20  C   UNL     1       9.445  11.022  18.262  0.00  0.00    +0.000 A 
ATOM     21  C   UNL     1       8.588  12.089  17.953  0.00  0.00    +0.000 A 
ATOM     22  C   UNL     1       9.105  13.298  17.481  0.00  0.00    +0.000 A 
ATOM     23  C   UNL     1      10.479  13.437  17.318  0.00  0.00    +0.000 A 
ATOM     24  C   UNL     1      11.343  12.397  17.634  0.00  0.00    +0.000 A 
ATOM     25  C   UNL     1      10.828  11.189  18.106  0.00  0.00    +0.000 A 
BRANCH  23  26
ATOM     26  O   UNL     1      11.023  14.590  16.835  0.00  0.00    +0.000 OA
ATOM     27  H   UNL     1      10.769  14.684  15.902  0.00  0.00    +0.000 HD
ENDBRANCH  23  26
ENDBRANCH  19  20
ENDBRANCH  18  19
ENDBRANCH   3  18
TORSDOF 8
ENDMDL
MODEL 2
REMARK VINA RESULT:      -7.8      1.501      1.744
REMARK  Name = 
REMARK  8 active torsions:
REMARK  status: ('A' for Active; 'I' for Inactive)
REMARK    1  A    between atoms: N_1  and  C_2
REMARK    2  A    between atoms: C_2  and  C_3
REMARK    3  A    between atoms: C_2  and  C_12
REMARK    4  A    between atoms: C_3  and  C_4
REMARK    5  A    between atoms: N_14  and  C_15
REMARK    6  A    between atoms: C_15  and  C_16
REMARK    7  A    between atoms: C_16  and  C_17
REMARK    8  A    between atoms: C_20  and  O_21
REMARK                            x       y       z     vdW  Elec       q    Type
REMARK                         _______ _______ _______ _____ _____    ______ ____
ROOT
ATOM      1  C   UNL     1       7.482   6.028  18.198  0.00  0.00    +0.000 C 
ATOM      2  O   UNL     1       7.960   5.701  19.281  0.00  0.00    +0.000 OA
ATOM      3  N   UNL     1       7.624   7.298  17.674  0.00  0.00    +0.000 N 
ATOM      4  H   UNL     1       7.108   7.550  16.840  0.00  0.00    +0.000 HD
ENDROOT
BRANCH   1   5
ATOM      5  C   UNL     1       6.664   5.047  17.312  0.00  0.00    +0.000 C 
BRANCH   5   6
ATOM      6  N   UNL     1       7.381   4.851  16.030  0.00  0.00    +0.000 NA
ATOM      7  H   UNL     1       7.398   5.757  15.551  0.00  0.00    +0.000 HD
ATOM      8  H   UNL     1       6.777   4.289  15.424  0.00  0.00    +0.000 HD
ENDBRANCH   5   6
BRANCH   5   9
ATOM      9  C   UNL     1       5.251   5.622  17.103  0.00  0.00    +0.000 C 
BRANCH   9  10
ATOM     10  C   UNL     1       4.086   4.804  17.625  0.00  0.00    +0.000 A 
ATOM     11  C   UNL     1       4.192   3.402  17.628  0.00  0.00    +0.000 A 
ATOM     12  C   UNL     1       3.092   2.600  17.950  0.00  0.00    +0.000 A 
ATOM     13  C   UNL     1       1.881   3.193  18.289  0.00  0.00    +0.000 A 
ATOM     14 CL   UNL     1       0.512   2.206  18.627  0.00  0.00    +0.000 Cl
ATOM     15  C   UNL     1       1.766   4.579  18.346  0.00  0.00    +0.000 A 
ATOM     16  C   UNL     1       2.868   5.381  18.023  0.00  0.00    +0.000 A 
ATOM     17 CL   UNL     1       2.657   7.095  18.097  0.00  0.00    +0.000 Cl
ENDBRANCH   9  10
ENDBRANCH   5   9
ENDBRANCH   1   5
BRANCH   3  18
ATOM     18  C   UNL     1       8.317   8.340  18.411  0.00  0.00    +0.000 C 
BRANCH  18  19
ATOM     19  C   UNL     1       8.282   9.687  17.684  0.00  0.00    +0.000 C 
BRANCH  19  20
ATOM     20  C   UNL     1       9.063  10.734  18.437  0.00  0.00    +0.000 A 
ATOM     21  C   UNL     1       9.497  10.489  19.748  0.00  0.00    +0.000 A 
ATOM     22  C   UNL     1      10.152  11.486  20.475  0.00  0.00    +0.000 A 
ATOM     23  C   UNL     1      10.371  12.728  19.887  0.00  0.00    +0.000 A 
ATOM     24  C   UNL     1       9.963  12.982  18.585  0.00  0.00    +0.000 A 
ATOM     25  C   UNL     1       9.308  11.987  17.859  0.00  0.00    +0.000 A 
BRANCH  23  26
ATOM     26  O   UNL     1      10.982  13.738  20.570  0.00  0.00    +0.000 OA
ATOM     27  H   UNL     1      10.312  14.398  20.810  0.00  0.00    +0.000 HD
ENDBRANCH  23  26
ENDBRANCH  19  20
ENDBRANCH  18  19
ENDBRANCH   3  18
TORSDOF 8
ENDMDL
MODEL 3
REMARK VINA RESULT:      -7.7      0.925      1.408
REMARK  Name = 
REMARK  8 active torsions:
REMARK  status: ('A' for Active; 'I' for Inactive)
REMARK    1  A    between atoms: N_1  and  C_2
REMARK    2  A    between atoms: C_2  and  C_3
REMARK    3  A    between atoms: C_2  and  C_12
REMARK    4  A    between atoms: C_3  and  C_4
REMARK    5  A    between atoms: N_14  and  C_15
REMARK    6  A    between atoms: C_15  and  C_16
REMARK    7  A    between atoms: C_16  and  C_17
REMARK    8  A    between atoms: C_20  and  O_21
REMARK                            x       y       z     vdW  Elec       q    Type
REMARK                         _______ _______ _______ _____ _____    ______ ____
ROOT
ATOM      1  C   UNL     1       7.305   6.217  17.241  0.00  0.00    +0.000 C 
ATOM      2  O   UNL     1       7.378   6.345  16.021  0.00  0.00    +0.000 OA
ATOM      3  N   UNL     1       7.618   7.238  18.117  0.00  0.00    +0.000 N 
ATOM      4  H   UNL     1       7.659   7.042  19.110  0.00  0.00    +0.000 HD
ENDROOT
BRANCH   1   5
ATOM      5  C   UNL     1       6.860   4.891  17.919  0.00  0.00    +0.000 C 
BRANCH   5   6
ATOM      6  N   UNL     1       6.198   4.036  16.905  0.00  0.00    +0.000 NA
ATOM      7  H   UNL     1       5.376   3.617  17.353  0.00  0.00    +0.000 HD
ATOM      8  H   UNL     1       6.802   3.226  16.746  0.00  0.00    +0.000 HD
ENDBRANCH   5   6
BRANCH   5   9
ATOM      9  C   UNL     1       5.926   5.221  19.097  0.00  0.00    +0.000 C 
BRANCH   9  10
ATOM     10  C   UNL     1       4.575   4.533  19.124  0.00  0.00    +0.000 A 
ATOM     11  C   UNL     1       4.496   3.216  19.610  0.00  0.00    +0.000 A 
ATOM     12  C   UNL     1       3.309   2.485  19.512  0.00  0.00    +0.000 A 
ATOM     13  C   UNL     1       2.183   3.069  18.942  0.00  0.00    +0.000 A 
ATOM     14 CL   UNL     1       0.739   2.149  18.766  0.00  0.00    +0.000 Cl
ATOM     15  C   UNL     1       2.220   4.390  18.503  0.00  0.00    +0.000 A 
ATOM     16  C   UNL     1       3.410   5.121  18.603  0.00  0.00    +0.000 A 
ATOM     17 CL   UNL     1       3.396   6.751  18.026  0.00  0.00    +0.000 Cl
ENDBRANCH   9  10
ENDBRANCH   5   9
ENDBRANCH   1   5
BRANCH   3  18
ATOM     18  C   UNL     1       8.100   8.519  17.634  0.00  0.00    +0.000 C 
BRANCH  18  19
ATOM     19  C   UNL     1       8.775   9.339  18.737  0.00  0.00    +0.000 C 
BRANCH  19  20
ATOM     20  C   UNL     1       9.239  10.676  18.217  0.00  0.00    +0.000 A 
ATOM     21  C   UNL     1      10.609  10.955  18.099  0.00  0.00    +0.000 A 
ATOM     22  C   UNL     1      11.041  12.219  17.692  0.00  0.00    +0.000 A 
ATOM     23  C   UNL     1      10.101  13.203  17.405  0.00  0.00    +0.000 A 
ATOM     24  C   UNL     1       8.741  12.940  17.501  0.00  0.00    +0.000 A 
ATOM     25  C   UNL     1       8.309  11.677  17.907  0.00  0.00    +0.000 A 
BRANCH  23  26
ATOM     26  O   UNL     1      10.479  14.459  17.030  0.00  0.00    +0.000 OA
ATOM     27  H   UNL     1      11.055  14.826  17.721  0.00  0.00    +0.000 HD
ENDBRANCH  23  26
ENDBRANCH  19  20
ENDBRANCH  18  19
ENDBRANCH   3  18
TORSDOF 8
ENDMDL
MODEL 4
REMARK VINA RESULT:      -7.7      0.853      1.228
REMARK  Name = 
REMARK  8 active torsions:
REMARK  status: ('A' for Active; 'I' for Inactive)
REMARK    1  A    between atoms: N_1  and  C_2
REMARK    2  A    between atoms: C_2  and  C_3
REMARK    3  A    between atoms: C_2  and  C_12
REMARK    4  A    between atoms: C_3  and  C_4
REMARK    5  A    between atoms: N_14  and  C_15
REMARK    6  A    between atoms: C_15  and  C_16
REMARK    7  A    between atoms: C_16  and  C_17
REMARK    8  A    between atoms: C_20  and  O_21
REMARK                            x       y       z     vdW  Elec       q    Type
REMARK                         _______ _______ _______ _____ _____    ______ ____
ROOT
ATOM      1  C   UNL     1       7.179   6.358  17.167  0.00  0.00    +0.000 C 
ATOM      2  O   UNL     1       7.087   6.692  15.988  0.00  0.00    +0.000 OA
ATOM      3  N   UNL     1       7.582   7.231  18.159  0.00  0.00    +0.000 N 
ATOM      4  H   UNL     1       7.759   6.874  19.090  0.00  0.00    +0.000 HD
ENDROOT
BRANCH   1   5
ATOM      5  C   UNL     1       6.859   4.919  17.657  0.00  0.00    +0.000 C 
BRANCH   5   6
ATOM      6  N   UNL     1       8.107   4.119  17.636  0.00  0.00    +0.000 NA
ATOM      7  H   UNL     1       8.154   3.655  16.723  0.00  0.00    +0.000 HD
ATOM      8  H   UNL     1       7.977   3.333  18.279  0.00  0.00    +0.000 HD
ENDBRANCH   5   6
BRANCH   5   9
ATOM      9  C   UNL     1       5.769   4.314  16.754  0.00  0.00    +0.000 C 
BRANCH   9  10
ATOM     10  C   UNL     1       4.464   3.913  17.415  0.00  0.00    +0.000 A 
ATOM     11  C   UNL     1       4.208   2.547  17.631  0.00  0.00    +0.000 A 
ATOM     12  C   UNL     1       2.960   2.116  18.091  0.00  0.00    +0.000 A 
ATOM     13  C   UNL     1       1.962   3.047  18.356  0.00  0.00    +0.000 A 
ATOM     14 CL   UNL     1       0.407   2.510  18.865  0.00  0.00    +0.000 Cl
ATOM     15  C   UNL     1       2.209   4.408  18.202  0.00  0.00    +0.000 A 
ATOM     16  C   UNL     1       3.459   4.838  17.741  0.00  0.00    +0.000 A 
ATOM     17 CL   UNL     1       3.699   6.541  17.556  0.00  0.00    +0.000 Cl
ENDBRANCH   9  10
ENDBRANCH   5   9
ENDBRANCH   1   5
BRANCH   3  18
ATOM     18  C   UNL     1       7.966   8.596  17.846  0.00  0.00    +0.000 C 
BRANCH  18  19
ATOM     19  C   UNL     1       8.938   9.177  18.877  0.00  0.00    +0.000 C 
BRANCH  19  20
ATOM     20  C   UNL     1       9.214  10.634  18.607  0.00  0.00    +0.000 A 
ATOM     21  C   UNL     1      10.259  11.293  19.269  0.00  0.00    +0.000 A 
ATOM     22  C   UNL     1      10.467  12.661  19.079  0.00  0.00    +0.000 A 
ATOM     23  C   UNL     1       9.627  13.368  18.226  0.00  0.00    +0.000 A 
ATOM     24  C   UNL     1       8.597  12.729  17.549  0.00  0.00    +0.000 A 
ATOM     25  C   UNL     1       8.389  11.362  17.738  0.00  0.00    +0.000 A 
BRANCH  23  26
ATOM     26  O   UNL     1       9.777  14.710  18.033  0.00  0.00    +0.000 OA
ATOM     27  H   UNL     1      10.603  14.860  17.544  0.00  0.00    +0.000 HD
ENDBRANCH  23  26
ENDBRANCH  19  20
ENDBRANCH  18  19
ENDBRANCH   3  18
TORSDOF 8
ENDMDL
MODEL 5
REMARK VINA RESULT:      -7.7      1.698      1.851
REMARK  Name = 
REMARK  8 active torsions:
REMARK  status: ('A' for Active; 'I' for Inactive)
REMARK    1  A    between atoms: N_1  and  C_2
REMARK    2  A    between atoms: C_2  and  C_3
REMARK    3  A    between atoms: C_2  and  C_12
REMARK    4  A    between atoms: C_3  and  C_4
REMARK    5  A    between atoms: N_14  and  C_15
REMARK    6  A    between atoms: C_15  and  C_16
REMARK    7  A    between atoms: C_16  and  C_17
REMARK    8  A    between atoms: C_20  and  O_21
REMARK                            x       y       z     vdW  Elec       q    Type
REMARK                         _______ _______ _______ _____ _____    ______ ____
ROOT
ATOM      1  C   UNL     1       7.302   6.234  17.496  0.00  0.00    +0.000 C 
ATOM      2  O   UNL     1       7.504   5.825  18.637  0.00  0.00    +0.000 OA
ATOM      3  N   UNL     1       7.523   7.546  17.126  0.00  0.00    +0.000 N 
ATOM      4  H   UNL     1       7.225   7.859  16.210  0.00  0.00    +0.000 HD
ENDROOT
BRANCH   1   5
ATOM      5  C   UNL     1       6.773   5.317  16.359  0.00  0.00    +0.000 C 
BRANCH   5   6
ATOM      6  N   UNL     1       7.629   5.499  15.162  0.00  0.00    +0.000 NA
ATOM      7  H   UNL     1       7.877   6.493  15.117  0.00  0.00    +0.000 HD
ATOM      8  H   UNL     1       7.032   5.381  14.339  0.00  0.00    +0.000 HD
ENDBRANCH   5   6
BRANCH   5   9
ATOM      9  C   UNL     1       5.301   5.669  16.077  0.00  0.00    +0.000 C 
BRANCH   9  10
ATOM     10  C   UNL     1       4.252   5.019  16.958  0.00  0.00    +0.000 A 
ATOM     11  C   UNL     1       4.145   3.617  16.960  0.00  0.00    +0.000 A 
ATOM     12  C   UNL     1       3.098   2.978  17.631  0.00  0.00    +0.000 A 
ATOM     13  C   UNL     1       2.157   3.734  18.321  0.00  0.00    +0.000 A 
ATOM     14 CL   UNL     1       0.834   2.951  19.096  0.00  0.00    +0.000 Cl
ATOM     15  C   UNL     1       2.271   5.120  18.379  0.00  0.00    +0.000 A 
ATOM     16  C   UNL     1       3.321   5.758  17.707  0.00  0.00    +0.000 A 
ATOM     17 CL   UNL     1       3.400   7.483  17.804  0.00  0.00    +0.000 Cl
ENDBRANCH   9  10
ENDBRANCH   5   9
ENDBRANCH   1   5
BRANCH   3  18
ATOM     18  C   UNL     1       7.966   8.534  18.093  0.00  0.00    +0.000 C 
BRANCH  18  19
ATOM     19  C   UNL     1       8.667   9.723  17.430  0.00  0.00    +0.000 C 
BRANCH  19  20
ATOM     20  C   UNL     1       9.030  10.778  18.443  0.00  0.00    +0.000 A 
ATOM     21  C   UNL     1       8.966  12.138  18.106  0.00  0.00    +0.000 A 
ATOM     22  C   UNL     1       9.377  13.113  19.018  0.00  0.00    +0.000 A 
ATOM     23  C   UNL     1       9.851  12.726  20.266  0.00  0.00    +0.000 A 
ATOM     24  C   UNL     1       9.906  11.385  20.623  0.00  0.00    +0.000 A 
ATOM     25  C   UNL     1       9.496  10.410  19.713  0.00  0.00    +0.000 A 
BRANCH  23  26
ATOM     26  O   UNL     1      10.287  13.643  21.176  0.00  0.00    +0.000 OA
ATOM     27  H   UNL     1      11.257  13.603  21.215  0.00  0.00    +0.000 HD
ENDBRANCH  23  26
ENDBRANCH  19  20
ENDBRANCH  18  19
ENDBRANCH   3  18
TORSDOF 8
ENDMDL
MODEL 6
REMARK VINA RESULT:      -7.7      0.927      1.016
REMARK  Name = 
REMARK  8 active torsions:
REMARK  status: ('A' for Active; 'I' for Inactive)
REMARK    1  A    between atoms: N_1  and  C_2
REMARK    2  A    between atoms: C_2  and  C_3
REMARK    3  A    between atoms: C_2  and  C_12
REMARK    4  A    between atoms: C_3  and  C_4
REMARK    5  A    between atoms: N_14  and  C_15
REMARK    6  A    between atoms: C_15  and  C_16
REMARK    7  A    between atoms: C_16  and  C_17
REMARK    8  A    between atoms: C_20  and  O_21
REMARK                            x       y       z     vdW  Elec       q    Type
REMARK                         _______ _______ _______ _____ _____    ______ ____
ROOT
ATOM      1  C   UNL     1       7.144   6.711  17.475  0.00  0.00    +0.000 C 
ATOM      2  O   UNL     1       6.590   7.083  16.443  0.00  0.00    +0.000 OA
ATOM      3  N   UNL     1       7.949   7.543  18.229  0.00  0.00    +0.000 N 
ATOM      4  H   UNL     1       8.478   7.153  19.000  0.00  0.00    +0.000 HD
ENDROOT
BRANCH   1   5
ATOM      5  C   UNL     1       6.999   5.267  18.029  0.00  0.00    +0.000 C 
BRANCH   5   6
ATOM      6  N   UNL     1       6.436   4.402  16.966  0.00  0.00    +0.000 NA
ATOM      7  H   UNL     1       6.489   3.435  17.302  0.00  0.00    +0.000 HD
ATOM      8  H   UNL     1       7.101   4.403  16.187  0.00  0.00    +0.000 HD
ENDBRANCH   5   6
BRANCH   5   9
ATOM      9  C   UNL     1       6.104   5.300  19.282  0.00  0.00    +0.000 C 
BRANCH   9  10
ATOM     10  C   UNL     1       4.755   4.615  19.188  0.00  0.00    +0.000 A 
ATOM     11  C   UNL     1       4.645   3.278  19.610  0.00  0.00    +0.000 A 
ATOM     12  C   UNL     1       3.467   2.554  19.401  0.00  0.00    +0.000 A 
ATOM     13  C   UNL     1       2.382   3.165  18.783  0.00  0.00    +0.000 A 
ATOM     14 CL   UNL     1       0.954   2.255  18.470  0.00  0.00    +0.000 Cl
ATOM     15  C   UNL     1       2.447   4.503  18.405  0.00  0.00    +0.000 A 
ATOM     16  C   UNL     1       3.627   5.227  18.616  0.00  0.00    +0.000 A 
ATOM     17 CL   UNL     1       3.650   6.880  18.111  0.00  0.00    +0.000 Cl
ENDBRANCH   9  10
ENDBRANCH   5   9
ENDBRANCH   1   5
BRANCH   3  18
ATOM     18  C   UNL     1       8.222   8.906  17.809  0.00  0.00    +0.000 C 
BRANCH  18  19
ATOM     19  C   UNL     1       8.944   9.713  18.891  0.00  0.00    +0.000 C 
BRANCH  19  20
ATOM     20  C   UNL     1       9.514  10.990  18.329  0.00  0.00    +0.000 A 
ATOM     21  C   UNL     1       8.664  12.024  17.909  0.00  0.00    +0.000 A 
ATOM     22  C   UNL     1       9.187  13.175  17.317  0.00  0.00    +0.000 A 
ATOM     23  C   UNL     1      10.563  13.290  17.145  0.00  0.00    +0.000 A 
ATOM     24  C   UNL     1      11.421  12.285  17.569  0.00  0.00    +0.000 A 
ATOM     25  C   UNL     1      10.898  11.134  18.161  0.00  0.00    +0.000 A 
BRANCH  23  26
ATOM     26  O   UNL     1      11.114  14.385  16.547  0.00  0.00    +0.000 OA
ATOM     27  H   UNL     1      12.080  14.321  16.615  0.00  0.00    +0.000 HD
ENDBRANCH  23  26
ENDBRANCH  19  20
ENDBRANCH  18  19
ENDBRANCH   3  18
TORSDOF 8
ENDMDL
MODEL 7
REMARK VINA RESULT:      -7.7      5.707      7.177
REMARK  Name = 
REMARK  8 active torsions:
REMARK  status: ('A' for Active; 'I' for Inactive)
REMARK    1  A    between atoms: N_1  and  C_2
REMARK    2  A    between atoms: C_2  and  C_3
REMARK    3  A    between atoms: C_2  and  C_12
REMARK    4  A    between atoms: C_3  and  C_4
REMARK    5  A    between atoms: N_14  and  C_15
REMARK    6  A    between atoms: C_15  and  C_16
REMARK    7  A    between atoms: C_16  and  C_17
REMARK    8  A    between atoms: C_20  and  O_21
REMARK                            x       y       z     vdW  Elec       q    Type
REMARK                         _______ _______ _______ _____ _____    ______ ____
ROOT
ATOM      1  C   UNL     1       2.408   3.484  18.277  0.00  0.00    +0.000 C 
ATOM      2  O   UNL     1       1.373   3.634  17.631  0.00  0.00    +0.000 OA
ATOM      3  N   UNL     1       2.555   3.950  19.568  0.00  0.00    +0.000 N 
ATOM      4  H   UNL     1       3.466   3.909  20.009  0.00  0.00    +0.000 HD
ENDROOT
BRANCH   1   5
ATOM      5  C   UNL     1       3.656   2.760  17.700  0.00  0.00    +0.000 C 
BRANCH   5   6
ATOM      6  N   UNL     1       3.799   1.447  18.373  0.00  0.00    +0.000 NA
ATOM      7  H   UNL     1       4.696   1.050  18.075  0.00  0.00    +0.000 HD
ATOM      8  H   UNL     1       3.120   0.810  17.948  0.00  0.00    +0.000 HD
ENDBRANCH   5   6
BRANCH   5   9
ATOM      9  C   UNL     1       4.893   3.654  17.908  0.00  0.00    +0.000 C 
BRANCH   9  10
ATOM     10  C   UNL     1       5.588   4.174  16.665  0.00  0.00    +0.000 A 
ATOM     11  C   UNL     1       4.942   4.041  15.423  0.00  0.00    +0.000 A 
ATOM     12  C   UNL     1       5.602   4.361  14.233  0.00  0.00    +0.000 A 
ATOM     13  C   UNL     1       6.910   4.833  14.274  0.00  0.00    +0.000 A 
ATOM     14 CL   UNL     1       7.743   5.169  12.805  0.00  0.00    +0.000 Cl
ATOM     15  C   UNL     1       7.552   5.024  15.494  0.00  0.00    +0.000 A 
ATOM     16  C   UNL     1       6.889   4.704  16.685  0.00  0.00    +0.000 A 
ATOM     17 CL   UNL     1       7.746   4.950  18.166  0.00  0.00    +0.000 Cl
ENDBRANCH   9  10
ENDBRANCH   5   9
ENDBRANCH   1   5
BRANCH   3  18
ATOM     18  C   UNL     1       1.493   4.694  20.222  0.00  0.00    +0.000 C 
BRANCH  18  19
ATOM     19  C   UNL     1       2.001   5.987  20.866  0.00  0.00    +0.000 C 
BRANCH  19  20
ATOM     20  C   UNL     1       1.922   7.144  19.903  0.00  0.00    +0.000 A 
ATOM     21  C   UNL     1       2.579   7.082  18.664  0.00  0.00    +0.000 A 
ATOM     22  C   UNL     1       2.573   8.183  17.804  0.00  0.00    +0.000 A 
ATOM     23  C   UNL     1       1.909   9.344  18.185  0.00  0.00    +0.000 A 
ATOM     24  C   UNL     1       1.241   9.417  19.400  0.00  0.00    +0.000 A 
ATOM     25  C   UNL     1       1.246   8.319  20.260  0.00  0.00    +0.000 A 
BRANCH  23  26
ATOM     26  O   UNL     1       1.901  10.450  17.388  0.00  0.00    +0.000 OA
ATOM     27  H   UNL     1       1.139  11.001  17.631  0.00  0.00    +0.000 HD
ENDBRANCH  23  26
ENDBRANCH  19  20
ENDBRANCH  18  19
ENDBRANCH   3  18
TORSDOF 8
ENDMDL
MODEL 8
REMARK VINA RESULT:      -7.6      5.361      7.098
REMARK  Name = 
REMARK  8 active torsions:
REMARK  status: ('A' for Active; 'I' for Inactive)
REMARK    1  A    between atoms: N_1  and  C_2
REMARK    2  A    between atoms: C_2  and  C_3
REMARK    3  A    between atoms: C_2  and  C_12
REMARK    4  A    between atoms: C_3  and  C_4
REMARK    5  A    between atoms: N_14  and  C_15
REMARK    6  A    between atoms: C_15  and  C_16
REMARK    7  A    between atoms: C_16  and  C_17
REMARK    8  A    between atoms: C_20  and  O_21
REMARK                            x       y       z     vdW  Elec       q    Type
REMARK                         _______ _______ _______ _____ _____    ______ ____
ROOT
ATOM      1  C   UNL     1       2.556   2.866  19.302  0.00  0.00    +0.000 C 
ATOM      2  O   UNL     1       2.870   2.453  20.416  0.00  0.00    +0.000 OA
ATOM      3  N   UNL     1       1.699   3.933  19.118  0.00  0.00    +0.000 N 
ATOM      4  H   UNL     1       1.377   4.153  18.183  0.00  0.00    +0.000 HD
ENDROOT
BRANCH   1   5
ATOM      5  C   UNL     1       3.087   2.223  17.991  0.00  0.00    +0.000 C 
BRANCH   5   6
ATOM      6  N   UNL     1       4.178   1.280  18.330  0.00  0.00    +0.000 NA
ATOM      7  H   UNL     1       4.551   1.564  19.242  0.00  0.00    +0.000 HD
ATOM      8  H   UNL     1       4.959   1.476  17.699  0.00  0.00    +0.000 HD
ENDBRANCH   5   6
BRANCH   5   9
ATOM      9  C   UNL     1       3.561   3.340  17.043  0.00  0.00    +0.000 C 
BRANCH   9  10
ATOM     10  C   UNL     1       4.817   4.094  17.435  0.00  0.00    +0.000 A 
ATOM     11  C   UNL     1       5.001   4.448  18.784  0.00  0.00    +0.000 A 
ATOM     12  C   UNL     1       6.059   5.275  19.170  0.00  0.00    +0.000 A 
ATOM     13  C   UNL     1       6.955   5.743  18.215  0.00  0.00    +0.000 A 
ATOM     14 CL   UNL     1       8.222   6.811  18.683  0.00  0.00    +0.000 Cl
ATOM     15  C   UNL     1       6.825   5.363  16.882  0.00  0.00    +0.000 A 
ATOM     16  C   UNL     1       5.765   4.535  16.496  0.00  0.00    +0.000 A 
ATOM     17 CL   UNL     1       5.651   4.111  14.824  0.00  0.00    +0.000 Cl
ENDBRANCH   9  10
ENDBRANCH   5   9
ENDBRANCH   1   5
BRANCH   3  18
ATOM     18  C   UNL     1       1.080   4.602  20.249  0.00  0.00    +0.000 C 
BRANCH  18  19
ATOM     19  C   UNL     1       1.979   5.690  20.842  0.00  0.00    +0.000 C 
BRANCH  19  20
ATOM     20  C   UNL     1       1.992   6.922  19.973  0.00  0.00    +0.000 A 
ATOM     21  C   UNL     1       1.331   8.089  20.385  0.00  0.00    +0.000 A 
ATOM     22  C   UNL     1       1.276   9.204  19.547  0.00  0.00    +0.000 A 
ATOM     23  C   UNL     1       1.882   9.151  18.296  0.00  0.00    +0.000 A 
ATOM     24  C   UNL     1       2.554   8.010  17.878  0.00  0.00    +0.000 A 
ATOM     25  C   UNL     1       2.610   6.895  18.715  0.00  0.00    +0.000 A 
BRANCH  23  26
ATOM     26  O   UNL     1       1.829  10.208  17.436  0.00  0.00    +0.000 OA
ATOM     27  H   UNL     1       2.599  10.164  16.845  0.00  0.00    +0.000 HD
ENDBRANCH  23  26
ENDBRANCH  19  20
ENDBRANCH  18  19
ENDBRANCH   3  18
TORSDOF 8
ENDMDL
MODEL 9
REMARK VINA RESULT:      -7.5      1.393      1.644
REMARK  Name = 
REMARK  8 active torsions:
REMARK  status: ('A' for Active; 'I' for Inactive)
REMARK    1  A    between atoms: N_1  and  C_2
REMARK    2  A    between atoms: C_2  and  C_3
REMARK    3  A    between atoms: C_2  and  C_12
REMARK    4  A    between atoms: C_3  and  C_4
REMARK    5  A    between atoms: N_14  and  C_15
REMARK    6  A    between atoms: C_15  and  C_16
REMARK    7  A    between atoms: C_16  and  C_17
REMARK    8  A    between atoms: C_20  and  O_21
REMARK                            x       y       z     vdW  Elec       q    Type
REMARK                         _______ _______ _______ _____ _____    ______ ____
ROOT
ATOM      1  C   UNL     1       6.589   6.797  17.287  0.00  0.00    +0.000 C 
ATOM      2  O   UNL     1       5.750   7.466  16.690  0.00  0.00    +0.000 OA
ATOM      3  N   UNL     1       7.698   7.358  17.889  0.00  0.00    +0.000 N 
ATOM      4  H   UNL     1       8.420   6.752  18.260  0.00  0.00    +0.000 HD
ENDROOT
BRANCH   1   5
ATOM      5  C   UNL     1       6.491   5.251  17.417  0.00  0.00    +0.000 C 
BRANCH   5   6
ATOM      6  N   UNL     1       7.432   4.630  16.455  0.00  0.00    +0.000 NA
ATOM      7  H   UNL     1       7.821   5.386  15.882  0.00  0.00    +0.000 HD
ATOM      8  H   UNL     1       6.874   4.103  15.779  0.00  0.00    +0.000 HD
ENDBRANCH   5   6
BRANCH   5   9
ATOM      9  C   UNL     1       5.034   4.821  17.162  0.00  0.00    +0.000 C 
BRANCH   9  10
ATOM     10  C   UNL     1       4.208   4.421  18.369  0.00  0.00    +0.000 A 
ATOM     11  C   UNL     1       4.503   3.209  19.019  0.00  0.00    +0.000 A 
ATOM     12  C   UNL     1       3.676   2.720  20.035  0.00  0.00    +0.000 A 
ATOM     13  C   UNL     1       2.556   3.447  20.423  0.00  0.00    +0.000 A 
ATOM     14 CL   UNL     1       1.505   2.816  21.632  0.00  0.00    +0.000 Cl
ATOM     15  C   UNL     1       2.274   4.676  19.833  0.00  0.00    +0.000 A 
ATOM     16  C   UNL     1       3.103   5.164  18.816  0.00  0.00    +0.000 A 
ATOM     17 CL   UNL     1       2.690   6.689  18.113  0.00  0.00    +0.000 Cl
ENDBRANCH   9  10
ENDBRANCH   5   9
ENDBRANCH   1   5
BRANCH   3  18
ATOM     18  C   UNL     1       7.955   8.785  17.806  0.00  0.00    +0.000 C 
BRANCH  18  19
ATOM     19  C   UNL     1       8.935   9.262  18.882  0.00  0.00    +0.000 C 
BRANCH  19  20
ATOM     20  C   UNL     1       9.316  10.705  18.671  0.00  0.00    +0.000 A 
ATOM     21  C   UNL     1      10.354  11.282  19.418  0.00  0.00    +0.000 A 
ATOM     22  C   UNL     1      10.657  12.638  19.280  0.00  0.00    +0.000 A 
ATOM     23  C   UNL     1       9.920  13.417  18.393  0.00  0.00    +0.000 A 
ATOM     24  C   UNL     1       8.901  12.859  17.634  0.00  0.00    +0.000 A 
ATOM     25  C   UNL     1       8.597  11.504  17.771  0.00  0.00    +0.000 A 
BRANCH  23  26
ATOM     26  O   UNL     1      10.165  14.750  18.248  0.00  0.00    +0.000 OA
ATOM     27  H   UNL     1      10.233  15.150  19.130  0.00  0.00    +0.000 HD
ENDBRANCH  23  26
ENDBRANCH  19  20
ENDBRANCH  18  19
ENDBRANCH   3  18
TORSDOF 8
ENDMDL
