MODEL 1
REMARK VINA RESULT:      -8.2      0.000      0.000
REMARK  Name = 
REMARK  2 active torsions:
REMARK  status: ('A' for Active; 'I' for Inactive)
REMARK    1  A    between atoms: C_4  and  C_5
REMARK    2  A    between atoms: N_11  and  C_12
REMARK                            x       y       z     vdW  Elec       q    Type
REMARK                         _______ _______ _______ _____ _____    ______ ____
ROOT
ATOM      1  N   UNL     1       3.931   0.897  18.248  0.00  0.00    +0.000 N 
ATOM      2  C   UNL     1       3.655   2.213  18.418  0.00  0.00    +0.000 C 
ATOM      3  N   UNL     1       4.120   3.048  17.565  0.00  0.00    +0.000 NA
ATOM      4  C   UNL     1       3.803   4.457  17.774  0.00  0.00    +0.000 C 
ATOM      5  N   UNL     1       2.792   4.789  18.794  0.00  0.00    +0.000 N 
ATOM      6  C   UNL     1       2.497   3.751  19.638  0.00  0.00    +0.000 C 
ATOM      7  N   UNL     1       1.669   3.966  20.694  0.00  0.00    +0.000 N 
ATOM      8  N   UNL     1       2.913   2.530  19.501  0.00  0.00    +0.000 NA
ATOM      9  H   UNL     1       4.751   0.748  17.677  0.00  0.00    +0.000 HD
ATOM     10  H   UNL     1       3.925   0.386  19.120  0.00  0.00    +0.000 HD
ATOM     11  H   UNL     1       0.848   4.509  20.454  0.00  0.00    +0.000 HD
ATOM     12  H   UNL     1       1.413   3.085  21.127  0.00  0.00    +0.000 HD
ENDROOT
BRANCH   5  13
ATOM     13  C   UNL     1       2.436   6.164  18.920  0.00  0.00    +0.000 A 
ATOM     14  C   UNL     1       2.182   6.751  20.179  0.00  0.00    +0.000 A 
ATOM     15  C   UNL     1       1.789   8.089  20.314  0.00  0.00    +0.000 A 
ATOM     16  C   UNL     1       1.672   8.892  19.189  0.00  0.00    +0.000 A 
ATOM     17 CL   UNL     1       1.202  10.537  19.350  0.00  0.00    +0.000 Cl
ATOM     18  C   UNL     1       1.926   8.360  17.933  0.00  0.00    +0.000 A 
ATOM     19  C   UNL     1       2.282   7.010  17.805  0.00  0.00    +0.000 A 
ENDBRANCH   5  13
BRANCH   4  20
ATOM     20  C   UNL     1       5.113   5.221  18.000  0.00  0.00    +0.000 A 
ATOM     21  C   UNL     1       5.873   4.986  19.158  0.00  0.00    +0.000 A 
ATOM     22  C   UNL     1       7.090   5.641  19.353  0.00  0.00    +0.000 A 
ATOM     23  C   UNL     1       7.558   6.543  18.399  0.00  0.00    +0.000 A 
ATOM     24  C   UNL     1       6.799   6.813  17.262  0.00  0.00    +0.000 A 
ATOM     25  C   UNL     1       5.575   6.169  17.074  0.00  0.00    +0.000 A 
ENDBRANCH   4  20
TORSDOF 2
ENDMDL
MODEL 2
REMARK VINA RESULT:      -8.2      0.144      1.055
REMARK  Name = 
REMARK  2 active torsions:
REMARK  status: ('A' for Active; 'I' for Inactive)
REMARK    1  A    between atoms: C_4  and  C_5
REMARK    2  A    between atoms: N_11  and  C_12
REMARK                            x       y       z     vdW  Elec       q    Type
REMARK                         _______ _______ _______ _____ _____    ______ ____
ROOT
ATOM      1  N   UNL     1       3.974   0.799  18.455  0.00  0.00    +0.000 N 
ATOM      2  C   UNL     1       3.683   2.117  18.580  0.00  0.00    +0.000 C 
ATOM      3  N   UNL     1       4.120   2.924  17.688  0.00  0.00    +0.000 NA
ATOM      4  C   UNL     1       3.787   4.336  17.849  0.00  0.00    +0.000 C 
ATOM      5  N   UNL     1       2.789   4.694  18.874  0.00  0.00    +0.000 N 
ATOM      6  C   UNL     1       2.524   3.684  19.762  0.00  0.00    +0.000 C 
ATOM      7  N   UNL     1       1.712   3.929  20.824  0.00  0.00    +0.000 N 
ATOM      8  N   UNL     1       2.955   2.465  19.664  0.00  0.00    +0.000 NA
ATOM      9  H   UNL     1       4.786   0.639  17.876  0.00  0.00    +0.000 HD
ATOM     10  H   UNL     1       3.990   0.322  19.346  0.00  0.00    +0.000 HD
ATOM     11  H   UNL     1       0.879   4.450  20.578  0.00  0.00    +0.000 HD
ATOM     12  H   UNL     1       1.476   3.061  21.295  0.00  0.00    +0.000 HD
ENDROOT
BRANCH   5  13
ATOM     13  C   UNL     1       2.416   6.067  18.954  0.00  0.00    +0.000 A 
ATOM     14  C   UNL     1       2.326   6.878  17.802  0.00  0.00    +0.000 A 
ATOM     15  C   UNL     1       2.002   8.240  17.869  0.00  0.00    +0.000 A 
ATOM     16  C   UNL     1       1.726   8.824  19.097  0.00  0.00    +0.000 A 
ATOM     17 CL   UNL     1       1.318  10.491  19.186  0.00  0.00    +0.000 Cl
ATOM     18  C   UNL     1       1.790   8.061  20.254  0.00  0.00    +0.000 A 
ATOM     19  C   UNL     1       2.151   6.708  20.180  0.00  0.00    +0.000 A 
ENDBRANCH   5  13
BRANCH   4  20
ATOM     20  C   UNL     1       5.090   5.126  18.022  0.00  0.00    +0.000 A 
ATOM     21  C   UNL     1       5.843   4.989  19.200  0.00  0.00    +0.000 A 
ATOM     22  C   UNL     1       7.054   5.667  19.350  0.00  0.00    +0.000 A 
ATOM     23  C   UNL     1       7.522   6.495  18.331  0.00  0.00    +0.000 A 
ATOM     24  C   UNL     1       6.768   6.668  17.171  0.00  0.00    +0.000 A 
ATOM     25  C   UNL     1       5.551   6.002  17.027  0.00  0.00    +0.000 A 
ENDBRANCH   4  20
TORSDOF 2
ENDMDL
MODEL 3
REMARK VINA RESULT:      -8.1      0.223      1.072
REMARK  Name = 
REMARK  2 active torsions:
REMARK  status: ('A' for Active; 'I' for Inactive)
REMARK    1  A    between atoms: C_4  and  C_5
REMARK    2  A    between atoms: N_11  and  C_12
REMARK                            x       y       z     vdW  Elec       q    Type
REMARK                         _______ _______ _______ _____ _____    ______ ____
ROOT
ATOM      1  N   UNL     1       3.991   0.771  18.537  0.00  0.00    +0.000 N 
ATOM      2  C   UNL     1       3.712   2.093  18.646  0.00  0.00    +0.000 C 
ATOM      3  N   UNL     1       4.110   2.878  17.716  0.00  0.00    +0.000 NA
ATOM      4  C   UNL     1       3.792   4.295  17.861  0.00  0.00    +0.000 C 
ATOM      5  N   UNL     1       2.846   4.681  18.923  0.00  0.00    +0.000 N 
ATOM      6  C   UNL     1       2.618   3.693  19.845  0.00  0.00    +0.000 C 
ATOM      7  N   UNL     1       1.858   3.966  20.939  0.00  0.00    +0.000 N 
ATOM      8  N   UNL     1       3.038   2.470  19.755  0.00  0.00    +0.000 NA
ATOM      9  H   UNL     1       4.774   0.594  17.924  0.00  0.00    +0.000 HD
ATOM     10  H   UNL     1       4.047   0.314  19.437  0.00  0.00    +0.000 HD
ATOM     11  H   UNL     1       1.018   4.487  20.721  0.00  0.00    +0.000 HD
ATOM     12  H   UNL     1       1.641   3.111  21.440  0.00  0.00    +0.000 HD
ENDROOT
BRANCH   5  13
ATOM     13  C   UNL     1       2.483   6.058  18.989  0.00  0.00    +0.000 A 
ATOM     14  C   UNL     1       2.186   6.687  20.218  0.00  0.00    +0.000 A 
ATOM     15  C   UNL     1       1.787   8.029  20.294  0.00  0.00    +0.000 A 
ATOM     16  C   UNL     1       1.705   8.791  19.138  0.00  0.00    +0.000 A 
ATOM     17 CL   UNL     1       1.226  10.440  19.226  0.00  0.00    +0.000 Cl
ATOM     18  C   UNL     1       2.001   8.217  17.910  0.00  0.00    +0.000 A 
ATOM     19  C   UNL     1       2.363   6.865  17.841  0.00  0.00    +0.000 A 
ENDBRANCH   5  13
BRANCH   4  20
ATOM     20  C   UNL     1       5.105   5.081  17.954  0.00  0.00    +0.000 A 
ATOM     21  C   UNL     1       5.511   5.899  16.886  0.00  0.00    +0.000 A 
ATOM     22  C   UNL     1       6.681   6.656  16.978  0.00  0.00    +0.000 A 
ATOM     23  C   UNL     1       7.462   6.598  18.131  0.00  0.00    +0.000 A 
ATOM     24  C   UNL     1       7.089   5.764  19.184  0.00  0.00    +0.000 A 
ATOM     25  C   UNL     1       5.928   4.997  19.087  0.00  0.00    +0.000 A 
ENDBRANCH   4  20
TORSDOF 2
ENDMDL
MODEL 4
REMARK VINA RESULT:      -8.1      0.200      1.496
REMARK  Name = 
REMARK  2 active torsions:
REMARK  status: ('A' for Active; 'I' for Inactive)
REMARK    1  A    between atoms: C_4  and  C_5
REMARK    2  A    between atoms: N_11  and  C_12
REMARK                            x       y       z     vdW  Elec       q    Type
REMARK                         _______ _______ _______ _____ _____    ______ ____
ROOT
ATOM      1  N   UNL     1       3.944   0.732  18.462  0.00  0.00    +0.000 N 
ATOM      2  C   UNL     1       3.661   2.053  18.578  0.00  0.00    +0.000 C 
ATOM      3  N   UNL     1       4.092   2.849  17.672  0.00  0.00    +0.000 NA
ATOM      4  C   UNL     1       3.768   4.264  17.823  0.00  0.00    +0.000 C 
ATOM      5  N   UNL     1       2.785   4.637  18.856  0.00  0.00    +0.000 N 
ATOM      6  C   UNL     1       2.525   3.638  19.757  0.00  0.00    +0.000 C 
ATOM      7  N   UNL     1       1.728   3.897  20.827  0.00  0.00    +0.000 N 
ATOM      8  N   UNL     1       2.948   2.416  19.667  0.00  0.00    +0.000 NA
ATOM      9  H   UNL     1       4.747   0.562  17.875  0.00  0.00    +0.000 HD
ATOM     10  H   UNL     1       3.968   0.264  19.358  0.00  0.00    +0.000 HD
ATOM     11  H   UNL     1       0.895   4.421  20.586  0.00  0.00    +0.000 HD
ATOM     12  H   UNL     1       1.492   3.036  21.309  0.00  0.00    +0.000 HD
ENDROOT
BRANCH   5  13
ATOM     13  C   UNL     1       2.421   6.013  18.927  0.00  0.00    +0.000 A 
ATOM     14  C   UNL     1       2.317   6.813  17.768  0.00  0.00    +0.000 A 
ATOM     15  C   UNL     1       2.001   8.177  17.826  0.00  0.00    +0.000 A 
ATOM     16  C   UNL     1       1.747   8.776  19.052  0.00  0.00    +0.000 A 
ATOM     17 CL   UNL     1       1.350  10.446  19.128  0.00  0.00    +0.000 Cl
ATOM     18  C   UNL     1       1.825   8.025  20.216  0.00  0.00    +0.000 A 
ATOM     19  C   UNL     1       2.178   6.669  20.150  0.00  0.00    +0.000 A 
ENDBRANCH   5  13
BRANCH   4  20
ATOM     20  C   UNL     1       5.078   5.049  17.973  0.00  0.00    +0.000 A 
ATOM     21  C   UNL     1       5.502   5.909  16.946  0.00  0.00    +0.000 A 
ATOM     22  C   UNL     1       6.667   6.663  17.090  0.00  0.00    +0.000 A 
ATOM     23  C   UNL     1       7.426   6.561  18.255  0.00  0.00    +0.000 A 
ATOM     24  C   UNL     1       7.036   5.686  19.267  0.00  0.00    +0.000 A 
ATOM     25  C   UNL     1       5.879   4.921  19.117  0.00  0.00    +0.000 A 
ENDBRANCH   4  20
TORSDOF 2
ENDMDL
MODEL 5
REMARK VINA RESULT:      -7.8      2.027      2.993
REMARK  Name = 
REMARK  2 active torsions:
REMARK  status: ('A' for Active; 'I' for Inactive)
REMARK    1  A    between atoms: C_4  and  C_5
REMARK    2  A    between atoms: N_11  and  C_12
REMARK                            x       y       z     vdW  Elec       q    Type
REMARK                         _______ _______ _______ _____ _____    ______ ____
ROOT
ATOM      1  N   UNL     1       6.641   3.659  13.836  0.00  0.00    +0.000 N 
ATOM      2  C   UNL     1       5.999   4.278  14.857  0.00  0.00    +0.000 C 
ATOM      3  N   UNL     1       6.207   5.528  15.037  0.00  0.00    +0.000 NA
ATOM      4  C   UNL     1       5.500   6.167  16.142  0.00  0.00    +0.000 C 
ATOM      5  N   UNL     1       4.434   5.398  16.811  0.00  0.00    +0.000 N 
ATOM      6  C   UNL     1       4.447   4.061  16.511  0.00  0.00    +0.000 C 
ATOM      7  N   UNL     1       3.591   3.226  17.157  0.00  0.00    +0.000 N 
ATOM      8  N   UNL     1       5.195   3.499  15.613  0.00  0.00    +0.000 NA
ATOM      9  H   UNL     1       7.470   4.157  13.545  0.00  0.00    +0.000 HD
ATOM     10  H   UNL     1       6.779   2.673  14.009  0.00  0.00    +0.000 HD
ATOM     11  H   UNL     1       2.649   3.594  17.224  0.00  0.00    +0.000 HD
ATOM     12  H   UNL     1       3.596   2.309  16.722  0.00  0.00    +0.000 HD
ENDROOT
BRANCH   5  13
ATOM     13  C   UNL     1       3.700   6.073  17.829  0.00  0.00    +0.000 A 
ATOM     14  C   UNL     1       3.524   5.510  19.112  0.00  0.00    +0.000 A 
ATOM     15  C   UNL     1       2.769   6.141  20.110  0.00  0.00    +0.000 A 
ATOM     16  C   UNL     1       2.191   7.378  19.859  0.00  0.00    +0.000 A 
ATOM     17 CL   UNL     1       1.272   8.162  21.082  0.00  0.00    +0.000 Cl
ATOM     18  C   UNL     1       2.349   7.974  18.617  0.00  0.00    +0.000 A 
ATOM     19  C   UNL     1       3.075   7.317  17.614  0.00  0.00    +0.000 A 
ENDBRANCH   5  13
BRANCH   4  20
ATOM     20  C   UNL     1       6.536   6.693  17.143  0.00  0.00    +0.000 A 
ATOM     21  C   UNL     1       7.058   5.838  18.128  0.00  0.00    +0.000 A 
ATOM     22  C   UNL     1       8.036   6.292  19.015  0.00  0.00    +0.000 A 
ATOM     23  C   UNL     1       8.496   7.605  18.934  0.00  0.00    +0.000 A 
ATOM     24  C   UNL     1       7.962   8.475  17.985  0.00  0.00    +0.000 A 
ATOM     25  C   UNL     1       6.975   8.025  17.108  0.00  0.00    +0.000 A 
ENDBRANCH   4  20
TORSDOF 2
ENDMDL
MODEL 6
REMARK VINA RESULT:      -7.7      2.034      3.132
REMARK  Name = 
REMARK  2 active torsions:
REMARK  status: ('A' for Active; 'I' for Inactive)
REMARK    1  A    between atoms: C_4  and  C_5
REMARK    2  A    between atoms: N_11  and  C_12
REMARK                            x       y       z     vdW  Elec       q    Type
REMARK                         _______ _______ _______ _____ _____    ______ ____
ROOT
ATOM      1  N   UNL     1       6.674   3.646  13.798  0.00  0.00    +0.000 N 
ATOM      2  C   UNL     1       6.022   4.257  14.818  0.00  0.00    +0.000 C 
ATOM      3  N   UNL     1       6.215   5.509  15.001  0.00  0.00    +0.000 NA
ATOM      4  C   UNL     1       5.496   6.138  16.104  0.00  0.00    +0.000 C 
ATOM      5  N   UNL     1       4.436   5.357  16.766  0.00  0.00    +0.000 N 
ATOM      6  C   UNL     1       4.465   4.021  16.465  0.00  0.00    +0.000 C 
ATOM      7  N   UNL     1       3.614   3.176  17.105  0.00  0.00    +0.000 N 
ATOM      8  N   UNL     1       5.223   3.468  15.569  0.00  0.00    +0.000 NA
ATOM      9  H   UNL     1       7.499   4.154  13.512  0.00  0.00    +0.000 HD
ATOM     10  H   UNL     1       6.822   2.661  13.971  0.00  0.00    +0.000 HD
ATOM     11  H   UNL     1       2.669   3.533  17.168  0.00  0.00    +0.000 HD
ATOM     12  H   UNL     1       3.631   2.260  16.669  0.00  0.00    +0.000 HD
ENDROOT
BRANCH   5  13
ATOM     13  C   UNL     1       3.690   6.022  17.783  0.00  0.00    +0.000 A 
ATOM     14  C   UNL     1       3.094   7.282  17.560  0.00  0.00    +0.000 A 
ATOM     15  C   UNL     1       2.395   7.967  18.563  0.00  0.00    +0.000 A 
ATOM     16  C   UNL     1       2.242   7.390  19.815  0.00  0.00    +0.000 A 
ATOM     17 CL   UNL     1       1.376   8.221  21.046  0.00  0.00    +0.000 Cl
ATOM     18  C   UNL     1       2.800   6.147  20.074  0.00  0.00    +0.000 A 
ATOM     19  C   UNL     1       3.530   5.487  19.076  0.00  0.00    +0.000 A 
ENDBRANCH   5  13
BRANCH   4  20
ATOM     20  C   UNL     1       6.523   6.674  17.110  0.00  0.00    +0.000 A 
ATOM     21  C   UNL     1       7.050   5.822  18.096  0.00  0.00    +0.000 A 
ATOM     22  C   UNL     1       8.019   6.285  18.987  0.00  0.00    +0.000 A 
ATOM     23  C   UNL     1       8.465   7.604  18.911  0.00  0.00    +0.000 A 
ATOM     24  C   UNL     1       7.926   8.469  17.961  0.00  0.00    +0.000 A 
ATOM     25  C   UNL     1       6.947   8.011  17.080  0.00  0.00    +0.000 A 
ENDBRANCH   4  20
TORSDOF 2
ENDMDL
MODEL 7
REMARK VINA RESULT:      -7.7      2.058      3.182
REMARK  Name = 
REMARK  2 active torsions:
REMARK  status: ('A' for Active; 'I' for Inactive)
REMARK    1  A    between atoms: C_4  and  C_5
REMARK    2  A    between atoms: N_11  and  C_12
REMARK                            x       y       z     vdW  Elec       q    Type
REMARK                         _______ _______ _______ _____ _____    ______ ____
ROOT
ATOM      1  N   UNL     1       6.657   3.625  13.742  0.00  0.00    +0.000 N 
ATOM      2  C   UNL     1       6.026   4.254  14.764  0.00  0.00    +0.000 C 
ATOM      3  N   UNL     1       6.263   5.498  14.953  0.00  0.00    +0.000 NA
ATOM      4  C   UNL     1       5.566   6.147  16.058  0.00  0.00    +0.000 C 
ATOM      5  N   UNL     1       4.478   5.401  16.716  0.00  0.00    +0.000 N 
ATOM      6  C   UNL     1       4.459   4.066  16.408  0.00  0.00    +0.000 C 
ATOM      7  N   UNL     1       3.578   3.249  17.044  0.00  0.00    +0.000 N 
ATOM      8  N   UNL     1       5.198   3.491  15.511  0.00  0.00    +0.000 NA
ATOM      9  H   UNL     1       7.500   4.105  13.460  0.00  0.00    +0.000 HD
ATOM     10  H   UNL     1       6.770   2.635  13.911  0.00  0.00    +0.000 HD
ATOM     11  H   UNL     1       2.646   3.640  17.107  0.00  0.00    +0.000 HD
ATOM     12  H   UNL     1       3.564   2.335  16.604  0.00  0.00    +0.000 HD
ENDROOT
BRANCH   5  13
ATOM     13  C   UNL     1       3.754   6.088  17.734  0.00  0.00    +0.000 A 
ATOM     14  C   UNL     1       3.579   5.533  19.021  0.00  0.00    +0.000 A 
ATOM     15  C   UNL     1       2.834   6.176  20.018  0.00  0.00    +0.000 A 
ATOM     16  C   UNL     1       2.268   7.417  19.764  0.00  0.00    +0.000 A 
ATOM     17 CL   UNL     1       1.362   8.216  20.987  0.00  0.00    +0.000 Cl
ATOM     18  C   UNL     1       2.426   8.006  18.518  0.00  0.00    +0.000 A 
ATOM     19  C   UNL     1       3.141   7.337  17.515  0.00  0.00    +0.000 A 
ENDBRANCH   5  13
BRANCH   4  20
ATOM     20  C   UNL     1       6.609   6.641  17.068  0.00  0.00    +0.000 A 
ATOM     21  C   UNL     1       7.038   7.979  17.036  0.00  0.00    +0.000 A 
ATOM     22  C   UNL     1       7.952   8.452  17.979  0.00  0.00    +0.000 A 
ATOM     23  C   UNL     1       8.454   7.595  18.957  0.00  0.00    +0.000 A 
ATOM     24  C   UNL     1       8.064   6.257  18.979  0.00  0.00    +0.000 A 
ATOM     25  C   UNL     1       7.162   5.780  18.028  0.00  0.00    +0.000 A 
ENDBRANCH   4  20
TORSDOF 2
ENDMDL
MODEL 8
REMARK VINA RESULT:      -7.5      2.052      3.291
REMARK  Name = 
REMARK  2 active torsions:
REMARK  status: ('A' for Active; 'I' for Inactive)
REMARK    1  A    between atoms: C_4  and  C_5
REMARK    2  A    between atoms: N_11  and  C_12
REMARK                            x       y       z     vdW  Elec       q    Type
REMARK                         _______ _______ _______ _____ _____    ______ ____
ROOT
ATOM      1  N   UNL     1       6.651   3.604  13.716  0.00  0.00    +0.000 N 
ATOM      2  C   UNL     1       6.013   4.216  14.743  0.00  0.00    +0.000 C 
ATOM      3  N   UNL     1       6.253   5.456  14.957  0.00  0.00    +0.000 NA
ATOM      4  C   UNL     1       5.549   6.087  16.068  0.00  0.00    +0.000 C 
ATOM      5  N   UNL     1       4.454   5.333  16.704  0.00  0.00    +0.000 N 
ATOM      6  C   UNL     1       4.434   4.004  16.372  0.00  0.00    +0.000 C 
ATOM      7  N   UNL     1       3.545   3.178  16.986  0.00  0.00    +0.000 N 
ATOM      8  N   UNL     1       5.178   3.443  15.471  0.00  0.00    +0.000 NA
ATOM      9  H   UNL     1       7.497   4.085  13.448  0.00  0.00    +0.000 HD
ATOM     10  H   UNL     1       6.759   2.610  13.867  0.00  0.00    +0.000 HD
ATOM     11  H   UNL     1       2.614   3.571  17.050  0.00  0.00    +0.000 HD
ATOM     12  H   UNL     1       3.531   2.272  16.530  0.00  0.00    +0.000 HD
ENDROOT
BRANCH   5  13
ATOM     13  C   UNL     1       3.725   6.004  17.729  0.00  0.00    +0.000 A 
ATOM     14  C   UNL     1       3.147   7.274  17.517  0.00  0.00    +0.000 A 
ATOM     15  C   UNL     1       2.464   7.964  18.529  0.00  0.00    +0.000 A 
ATOM     16  C   UNL     1       2.312   7.382  19.779  0.00  0.00    +0.000 A 
ATOM     17 CL   UNL     1       1.467   8.219  21.020  0.00  0.00    +0.000 Cl
ATOM     18  C   UNL     1       2.852   6.129  20.027  0.00  0.00    +0.000 A 
ATOM     19  C   UNL     1       3.565   5.463  19.020  0.00  0.00    +0.000 A 
ENDBRANCH   5  13
BRANCH   4  20
ATOM     20  C   UNL     1       6.586   6.560  17.094  0.00  0.00    +0.000 A 
ATOM     21  C   UNL     1       7.052   7.885  17.063  0.00  0.00    +0.000 A 
ATOM     22  C   UNL     1       7.960   8.340  18.020  0.00  0.00    +0.000 A 
ATOM     23  C   UNL     1       8.420   7.476  19.013  0.00  0.00    +0.000 A 
ATOM     24  C   UNL     1       7.994   6.150  19.035  0.00  0.00    +0.000 A 
ATOM     25  C   UNL     1       7.097   5.691  18.070  0.00  0.00    +0.000 A 
ENDBRANCH   4  20
TORSDOF 2
ENDMDL
MODEL 9
REMARK VINA RESULT:      -7.4      2.063      4.186
REMARK  Name = 
REMARK  2 active torsions:
REMARK  status: ('A' for Active; 'I' for Inactive)
REMARK    1  A    between atoms: C_4  and  C_5
REMARK    2  A    between atoms: N_11  and  C_12
REMARK                            x       y       z     vdW  Elec       q    Type
REMARK                         _______ _______ _______ _____ _____    ______ ____
ROOT
ATOM      1  N   UNL     1       7.041   3.996  17.920  0.00  0.00    +0.000 N 
ATOM      2  C   UNL     1       5.953   4.778  18.121  0.00  0.00    +0.000 C 
ATOM      3  N   UNL     1       5.299   4.644  19.214  0.00  0.00    +0.000 NA
ATOM      4  C   UNL     1       4.134   5.502  19.401  0.00  0.00    +0.000 C 
ATOM      5  N   UNL     1       3.935   6.608  18.446  0.00  0.00    +0.000 N 
ATOM      6  C   UNL     1       4.703   6.505  17.315  0.00  0.00    +0.000 C 
ATOM      7  N   UNL     1       4.523   7.398  16.306  0.00  0.00    +0.000 N 
ATOM      8  N   UNL     1       5.643   5.634  17.122  0.00  0.00    +0.000 NA
ATOM      9  H   UNL     1       7.022   3.159  18.486  0.00  0.00    +0.000 HD
ATOM     10  H   UNL     1       7.228   3.839  16.939  0.00  0.00    +0.000 HD
ATOM     11  H   UNL     1       4.443   8.354  16.629  0.00  0.00    +0.000 HD
ATOM     12  H   UNL     1       5.261   7.303  15.616  0.00  0.00    +0.000 HD
ENDROOT
BRANCH   5  13
ATOM     13  C   UNL     1       2.840   7.484  18.699  0.00  0.00    +0.000 A 
ATOM     14  C   UNL     1       2.305   8.312  17.688  0.00  0.00    +0.000 A 
ATOM     15  C   UNL     1       1.257   9.210  17.933  0.00  0.00    +0.000 A 
ATOM     16  C   UNL     1       0.690   9.280  19.198  0.00  0.00    +0.000 A 
ATOM     17 CL   UNL     1      -0.603  10.372  19.501  0.00  0.00    +0.000 Cl
ATOM     18  C   UNL     1       1.175   8.475  20.218  0.00  0.00    +0.000 A 
ATOM     19  C   UNL     1       2.249   7.607  19.972  0.00  0.00    +0.000 A 
ENDBRANCH   5  13
BRANCH   4  20
ATOM     20  C   UNL     1       2.889   4.614  19.512  0.00  0.00    +0.000 A 
ATOM     21  C   UNL     1       2.292   4.093  18.351  0.00  0.00    +0.000 A 
ATOM     22  C   UNL     1       1.187   3.246  18.442  0.00  0.00    +0.000 A 
ATOM     23  C   UNL     1       0.660   2.916  19.689  0.00  0.00    +0.000 A 
ATOM     24  C   UNL     1       1.220   3.453  20.847  0.00  0.00    +0.000 A 
ATOM     25  C   UNL     1       2.315   4.311  20.756  0.00  0.00    +0.000 A 
ENDBRANCH   4  20
TORSDOF 2
ENDMDL
