MODEL 1
REMARK VINA RESULT:      -3.7      0.000      0.000
REMARK  Name = 
REMARK  4 active torsions:
REMARK  status: ('A' for Active; 'I' for Inactive)
REMARK    1  A    between atoms: C_1  and  O_2
REMARK    2  A    between atoms: O_2  and  C_3
REMARK    3  A    between atoms: C_3  and  C_5
REMARK    4  A    between atoms: C_5  and  C_6
REMARK                            x       y       z     vdW  Elec       q    Type
REMARK                         _______ _______ _______ _____ _____    ______ ____
ROOT
ATOM      1  C   UNL     1       7.451   5.035  17.470  0.00  0.00    +0.000 C 
ATOM      2  O   UNL     1       7.621   4.617  18.610  0.00  0.00    +0.000 OA
ENDROOT
BRANCH   1   3
ATOM      3  C   UNL     1       6.820   6.372  17.121  0.00  0.00    +0.000 C 
ATOM      4  C   UNL     1       7.636   7.537  17.664  0.00  0.00    +0.000 C 
ATOM      5 CL   UNL     1       5.167   6.440  17.799  0.00  0.00    +0.000 Cl
ENDBRANCH   1   3
BRANCH   1   7
ATOM      6  C   UNL     1       7.006   4.573  15.215  0.00  0.00    +0.000 C 
ATOM      7  O   UNL     1       7.860   4.379  16.344  0.00  0.00    +0.000 OA
ENDBRANCH   1   7
TORSDOF 2
ENDMDL
MODEL 2
REMARK VINA RESULT:      -3.7      2.171      2.989
REMARK  Name = 
REMARK  4 active torsions:
REMARK  status: ('A' for Active; 'I' for Inactive)
REMARK    1  A    between atoms: C_1  and  O_2
REMARK    2  A    between atoms: O_2  and  C_3
REMARK    3  A    between atoms: C_3  and  C_5
REMARK    4  A    between atoms: C_5  and  C_6
REMARK                            x       y       z     vdW  Elec       q    Type
REMARK                         _______ _______ _______ _____ _____    ______ ____
ROOT
ATOM      1  C   UNL     1       7.138   5.228  16.395  0.00  0.00    +0.000 C 
ATOM      2  O   UNL     1       7.874   4.341  16.812  0.00  0.00    +0.000 OA
ENDROOT
BRANCH   1   3
ATOM      3  C   UNL     1       5.690   5.033  15.983  0.00  0.00    +0.000 C 
ATOM      4  C   UNL     1       4.944   4.135  16.959  0.00  0.00    +0.000 C 
ATOM      5 CL   UNL     1       5.633   4.308  14.350  0.00  0.00    +0.000 Cl
ENDBRANCH   1   3
BRANCH   1   7
ATOM      6  C   UNL     1       7.446   7.256  17.530  0.00  0.00    +0.000 C 
ATOM      7  O   UNL     1       7.503   6.540  16.295  0.00  0.00    +0.000 OA
ENDBRANCH   1   7
TORSDOF 2
ENDMDL
MODEL 3
REMARK VINA RESULT:      -3.7      6.374      6.616
REMARK  Name = 
REMARK  4 active torsions:
REMARK  status: ('A' for Active; 'I' for Inactive)
REMARK    1  A    between atoms: C_1  and  O_2
REMARK    2  A    between atoms: O_2  and  C_3
REMARK    3  A    between atoms: C_3  and  C_5
REMARK    4  A    between atoms: C_5  and  C_6
REMARK                            x       y       z     vdW  Elec       q    Type
REMARK                         _______ _______ _______ _____ _____    ______ ____
ROOT
ATOM      1  C   UNL     1       1.484   3.040  18.997  0.00  0.00    +0.000 C 
ATOM      2  O   UNL     1       1.137   3.382  17.872  0.00  0.00    +0.000 OA
ENDROOT
BRANCH   1   3
ATOM      3  C   UNL     1       1.016   3.692  20.287  0.00  0.00    +0.000 C 
ATOM      4  C   UNL     1       1.671   5.049  20.500  0.00  0.00    +0.000 C 
ATOM      5 CL   UNL     1       1.406   2.623  21.665  0.00  0.00    +0.000 Cl
ENDBRANCH   1   3
BRANCH   1   7
ATOM      6  C   UNL     1       3.310   1.766  18.266  0.00  0.00    +0.000 C 
ATOM      7  O   UNL     1       2.303   1.978  19.256  0.00  0.00    +0.000 OA
ENDBRANCH   1   7
TORSDOF 2
ENDMDL
MODEL 4
REMARK VINA RESULT:      -3.6      1.689      3.042
REMARK  Name = 
REMARK  4 active torsions:
REMARK  status: ('A' for Active; 'I' for Inactive)
REMARK    1  A    between atoms: C_1  and  O_2
REMARK    2  A    between atoms: O_2  and  C_3
REMARK    3  A    between atoms: C_3  and  C_5
REMARK    4  A    between atoms: C_5  and  C_6
REMARK                            x       y       z     vdW  Elec       q    Type
REMARK                         _______ _______ _______ _____ _____    ______ ____
ROOT
ATOM      1  C   UNL     1       7.065   4.921  16.664  0.00  0.00    +0.000 C 
ATOM      2  O   UNL     1       7.462   5.946  16.121  0.00  0.00    +0.000 OA
ENDROOT
BRANCH   1   3
ATOM      3  C   UNL     1       6.102   3.926  16.040  0.00  0.00    +0.000 C 
ATOM      4  C   UNL     1       6.082   4.039  14.522  0.00  0.00    +0.000 C 
ATOM      5 CL   UNL     1       4.457   4.217  16.676  0.00  0.00    +0.000 Cl
ENDBRANCH   1   3
BRANCH   1   7
ATOM      6  C   UNL     1       7.655   5.545  18.844  0.00  0.00    +0.000 C 
ATOM      7  O   UNL     1       7.480   4.495  17.893  0.00  0.00    +0.000 OA
ENDBRANCH   1   7
TORSDOF 2
ENDMDL
MODEL 5
REMARK VINA RESULT:      -3.6      1.679      3.410
REMARK  Name = 
REMARK  4 active torsions:
REMARK  status: ('A' for Active; 'I' for Inactive)
REMARK    1  A    between atoms: C_1  and  O_2
REMARK    2  A    between atoms: O_2  and  C_3
REMARK    3  A    between atoms: C_3  and  C_5
REMARK    4  A    between atoms: C_5  and  C_6
REMARK                            x       y       z     vdW  Elec       q    Type
REMARK                         _______ _______ _______ _____ _____    ______ ____
ROOT
ATOM      1  C   UNL     1       7.238   4.882  15.448  0.00  0.00    +0.000 C 
ATOM      2  O   UNL     1       7.769   5.621  14.626  0.00  0.00    +0.000 OA
ENDROOT
BRANCH   1   3
ATOM      3  C   UNL     1       6.198   3.825  15.122  0.00  0.00    +0.000 C 
ATOM      4  C   UNL     1       5.823   3.843  13.647  0.00  0.00    +0.000 C 
ATOM      5 CL   UNL     1       4.735   4.112  16.108  0.00  0.00    +0.000 Cl
ENDBRANCH   1   3
BRANCH   1   7
ATOM      6  C   UNL     1       7.343   6.114  17.440  0.00  0.00    +0.000 C 
ATOM      7  O   UNL     1       7.552   4.866  16.777  0.00  0.00    +0.000 OA
ENDBRANCH   1   7
TORSDOF 2
ENDMDL
MODEL 6
REMARK VINA RESULT:      -3.6      6.101      6.316
REMARK  Name = 
REMARK  4 active torsions:
REMARK  status: ('A' for Active; 'I' for Inactive)
REMARK    1  A    between atoms: C_1  and  O_2
REMARK    2  A    between atoms: O_2  and  C_3
REMARK    3  A    between atoms: C_3  and  C_5
REMARK    4  A    between atoms: C_5  and  C_6
REMARK                            x       y       z     vdW  Elec       q    Type
REMARK                         _______ _______ _______ _____ _____    ______ ____
ROOT
ATOM      1  C   UNL     1       1.414   2.615  18.434  0.00  0.00    +0.000 C 
ATOM      2  O   UNL     1       0.268   2.188  18.518  0.00  0.00    +0.000 OA
ENDROOT
BRANCH   1   3
ATOM      3  C   UNL     1       1.957   3.805  19.206  0.00  0.00    +0.000 C 
ATOM      4  C   UNL     1       1.061   4.167  20.381  0.00  0.00    +0.000 C 
ATOM      5 CL   UNL     1       2.091   5.209  18.108  0.00  0.00    +0.000 Cl
ENDBRANCH   1   3
BRANCH   1   7
ATOM      6  C   UNL     1       3.524   1.595  18.415  0.00  0.00    +0.000 C 
ATOM      7  O   UNL     1       2.390   2.041  17.670  0.00  0.00    +0.000 OA
ENDBRANCH   1   7
TORSDOF 2
ENDMDL
MODEL 7
REMARK VINA RESULT:      -3.5      1.534      2.900
REMARK  Name = 
REMARK  4 active torsions:
REMARK  status: ('A' for Active; 'I' for Inactive)
REMARK    1  A    between atoms: C_1  and  O_2
REMARK    2  A    between atoms: O_2  and  C_3
REMARK    3  A    between atoms: C_3  and  C_5
REMARK    4  A    between atoms: C_5  and  C_6
REMARK                            x       y       z     vdW  Elec       q    Type
REMARK                         _______ _______ _______ _____ _____    ______ ____
ROOT
ATOM      1  C   UNL     1       6.883   4.501  17.204  0.00  0.00    +0.000 C 
ATOM      2  O   UNL     1       8.041   4.397  16.816  0.00  0.00    +0.000 OA
ENDROOT
BRANCH   1   3
ATOM      3  C   UNL     1       5.665   4.556  16.299  0.00  0.00    +0.000 C 
ATOM      4  C   UNL     1       5.975   4.021  14.908  0.00  0.00    +0.000 C 
ATOM      5 CL   UNL     1       5.100   6.247  16.171  0.00  0.00    +0.000 Cl
ENDBRANCH   1   3
BRANCH   1   7
ATOM      6  C   UNL     1       7.098   5.594  19.267  0.00  0.00    +0.000 C 
ATOM      7  O   UNL     1       6.516   4.524  18.519  0.00  0.00    +0.000 OA
ENDBRANCH   1   7
TORSDOF 2
ENDMDL
MODEL 8
REMARK VINA RESULT:      -3.5      5.738      6.166
REMARK  Name = 
REMARK  4 active torsions:
REMARK  status: ('A' for Active; 'I' for Inactive)
REMARK    1  A    between atoms: C_1  and  O_2
REMARK    2  A    between atoms: O_2  and  C_3
REMARK    3  A    between atoms: C_3  and  C_5
REMARK    4  A    between atoms: C_5  and  C_6
REMARK                            x       y       z     vdW  Elec       q    Type
REMARK                         _______ _______ _______ _____ _____    ______ ____
ROOT
ATOM      1  C   UNL     1       2.922   2.783  20.877  0.00  0.00    +0.000 C 
ATOM      2  O   UNL     1       2.609   2.561  22.042  0.00  0.00    +0.000 OA
ENDROOT
BRANCH   1   3
ATOM      3  C   UNL     1       2.081   3.571  19.888  0.00  0.00    +0.000 C 
ATOM      4  C   UNL     1       1.318   4.697  20.570  0.00  0.00    +0.000 C 
ATOM      5 CL   UNL     1       0.923   2.469  19.089  0.00  0.00    +0.000 Cl
ENDBRANCH   1   3
BRANCH   1   7
ATOM      6  C   UNL     1       4.571   3.273  19.286  0.00  0.00    +0.000 C 
ATOM      7  O   UNL     1       4.107   2.400  20.317  0.00  0.00    +0.000 OA
ENDBRANCH   1   7
TORSDOF 2
ENDMDL
MODEL 9
REMARK VINA RESULT:      -3.5      6.034      6.521
REMARK  Name = 
REMARK  4 active torsions:
REMARK  status: ('A' for Active; 'I' for Inactive)
REMARK    1  A    between atoms: C_1  and  O_2
REMARK    2  A    between atoms: O_2  and  C_3
REMARK    3  A    between atoms: C_3  and  C_5
REMARK    4  A    between atoms: C_5  and  C_6
REMARK                            x       y       z     vdW  Elec       q    Type
REMARK                         _______ _______ _______ _____ _____    ______ ____
ROOT
ATOM      1  C   UNL     1       2.471   2.602  20.860  0.00  0.00    +0.000 C 
ATOM      2  O   UNL     1       2.861   2.463  22.014  0.00  0.00    +0.000 OA
ENDROOT
BRANCH   1   3
ATOM      3  C   UNL     1       1.142   3.220  20.461  0.00  0.00    +0.000 C 
ATOM      4  C   UNL     1       0.714   2.779  19.068  0.00  0.00    +0.000 C 
ATOM      5 CL   UNL     1       1.284   5.001  20.502  0.00  0.00    +0.000 Cl
ENDBRANCH   1   3
BRANCH   1   7
ATOM      6  C   UNL     1       4.413   3.022  19.617  0.00  0.00    +0.000 C 
ATOM      7  O   UNL     1       3.207   2.270  19.759  0.00  0.00    +0.000 OA
ENDBRANCH   1   7
TORSDOF 2
ENDMDL
