MODEL 1
REMARK VINA RESULT:      -6.9      0.000      0.000
REMARK  Name = 
REMARK  2 active torsions:
REMARK  status: ('A' for Active; 'I' for Inactive)
REMARK    1  A    between atoms: C_1  and  N_2
REMARK    2  A    between atoms: N_2  and  C_3
REMARK                            x       y       z     vdW  Elec       q    Type
REMARK                         _______ _______ _______ _____ _____    ______ ____
ROOT
ATOM      1  C   UNL     1       0.703   2.438  21.588  0.00  0.00    +0.000 C 
ATOM      2  N   UNL     1       1.948   2.716  20.889  0.00  0.00    +0.000 N 
ATOM      3  C   UNL     1       3.038   3.184  21.730  0.00  0.00    +0.000 C 
ATOM      4  C   UNL     1       1.820   2.954  19.526  0.00  0.00    +0.000 C 
ATOM      5  O   UNL     1       0.699   2.937  19.004  0.00  0.00    +0.000 OA
ATOM      6  N   UNL     1       2.932   3.257  18.768  0.00  0.00    +0.000 N 
ATOM      7  C   UNL     1       2.725   3.819  17.433  0.00  0.00    +0.000 C 
ATOM      8  C   UNL     1       3.613   5.052  17.237  0.00  0.00    +0.000 C 
ATOM      9  C   UNL     1       5.106   4.786  17.576  0.00  0.00    +0.000 C 
ATOM     10  C   UNL     1       5.210   4.089  18.949  0.00  0.00    +0.000 C 
ATOM     11  C   UNL     1       4.313   2.854  19.007  0.00  0.00    +0.000 C 
ATOM     12  C   UNL     1       5.903   6.122  17.567  0.00  0.00    +0.000 C 
ATOM     13  C   UNL     1       7.014   5.954  16.527  0.00  0.00    +0.000 C 
ATOM     14  N   UNL     1       6.485   4.908  15.694  0.00  0.00    +0.000 N 
ATOM     15  C   UNL     1       6.838   4.713  14.396  0.00  0.00    +0.000 A 
ATOM     16  N   UNL     1       7.754   5.515  13.835  0.00  0.00    +0.000 NA
ATOM     17  C   UNL     1       8.000   5.344  12.521  0.00  0.00    +0.000 A 
ATOM     18  C   UNL     1       7.360   4.418  11.740  0.00  0.00    +0.000 A 
ATOM     19  C   UNL     1       6.448   3.636  12.398  0.00  0.00    +0.000 A 
ATOM     20  N   UNL     1       6.192   3.753  13.712  0.00  0.00    +0.000 NA
ATOM     21  C   UNL     1       5.759   3.934  16.461  0.00  0.00    +0.000 C 
ENDROOT
TORSDOF 0
ENDMDL
MODEL 2
REMARK VINA RESULT:      -6.2      7.421      9.107
REMARK  Name = 
REMARK  2 active torsions:
REMARK  status: ('A' for Active; 'I' for Inactive)
REMARK    1  A    between atoms: C_1  and  N_2
REMARK    2  A    between atoms: N_2  and  C_3
REMARK                            x       y       z     vdW  Elec       q    Type
REMARK                         _______ _______ _______ _____ _____    ______ ____
ROOT
ATOM      1  C   UNL     1       3.103   4.188  19.213  0.00  0.00    +0.000 C 
ATOM      2  N   UNL     1       2.505   5.442  19.644  0.00  0.00    +0.000 N 
ATOM      3  C   UNL     1       1.361   5.309  20.532  0.00  0.00    +0.000 C 
ATOM      4  C   UNL     1       2.770   6.534  18.827  0.00  0.00    +0.000 C 
ATOM      5  O   UNL     1       3.458   6.385  17.810  0.00  0.00    +0.000 OA
ATOM      6  N   UNL     1       2.231   7.769  19.124  0.00  0.00    +0.000 N 
ATOM      7  C   UNL     1       2.254   8.799  18.085  0.00  0.00    +0.000 C 
ATOM      8  C   UNL     1       0.873   9.449  17.957  0.00  0.00    +0.000 C 
ATOM      9  C   UNL     1       0.306   9.946  19.315  0.00  0.00    +0.000 C 
ATOM     10  C   UNL     1       0.432   8.828  20.371  0.00  0.00    +0.000 C 
ATOM     11  C   UNL     1       1.861   8.291  20.434  0.00  0.00    +0.000 C 
ATOM     12  C   UNL     1      -1.176  10.390  19.147  0.00  0.00    +0.000 C 
ATOM     13  C   UNL     1      -1.237  11.859  19.578  0.00  0.00    +0.000 C 
ATOM     14  N   UNL     1       0.129  12.274  19.411  0.00  0.00    +0.000 N 
ATOM     15  C   UNL     1       0.516  13.560  19.203  0.00  0.00    +0.000 A 
ATOM     16  N   UNL     1      -0.409  14.530  19.171  0.00  0.00    +0.000 NA
ATOM     17  C   UNL     1       0.012  15.773  18.868  0.00  0.00    +0.000 A 
ATOM     18  C   UNL     1       1.314  16.088  18.579  0.00  0.00    +0.000 A 
ATOM     19  C   UNL     1       2.191  15.039  18.645  0.00  0.00    +0.000 A 
ATOM     20  N   UNL     1       1.820  13.789  18.971  0.00  0.00    +0.000 NA
ATOM     21  C   UNL     1       1.050  11.228  19.762  0.00  0.00    +0.000 C 
ENDROOT
TORSDOF 0
ENDMDL
MODEL 3
REMARK VINA RESULT:      -5.7      9.802     10.968
REMARK  Name = 
REMARK  2 active torsions:
REMARK  status: ('A' for Active; 'I' for Inactive)
REMARK    1  A    between atoms: C_1  and  N_2
REMARK    2  A    between atoms: N_2  and  C_3
REMARK                            x       y       z     vdW  Elec       q    Type
REMARK                         _______ _______ _______ _____ _____    ______ ____
ROOT
ATOM      1  C   UNL     1       5.068  10.938  27.715  0.00  0.00    +0.000 C 
ATOM      2  N   UNL     1       6.146  11.472  26.896  0.00  0.00    +0.000 N 
ATOM      3  C   UNL     1       6.951  12.504  27.529  0.00  0.00    +0.000 C 
ATOM      4  C   UNL     1       5.989  11.295  25.527  0.00  0.00    +0.000 C 
ATOM      5  O   UNL     1       4.976  10.734  25.093  0.00  0.00    +0.000 OA
ATOM      6  N   UNL     1       6.937  11.787  24.652  0.00  0.00    +0.000 N 
ATOM      7  C   UNL     1       6.586  11.878  23.235  0.00  0.00    +0.000 C 
ATOM      8  C   UNL     1       6.958  13.260  22.688  0.00  0.00    +0.000 C 
ATOM      9  C   UNL     1       8.428  13.659  22.993  0.00  0.00    +0.000 C 
ATOM     10  C   UNL     1       8.733  13.418  24.486  0.00  0.00    +0.000 C 
ATOM     11  C   UNL     1       8.358  11.996  24.900  0.00  0.00    +0.000 C 
ATOM     12  C   UNL     1       8.670  15.147  22.607  0.00  0.00    +0.000 C 
ATOM     13  C   UNL     1       9.802  15.146  21.575  0.00  0.00    +0.000 C 
ATOM     14  N   UNL     1       9.733  13.806  21.059  0.00  0.00    +0.000 N 
ATOM     15  C   UNL     1      10.181  13.436  19.831  0.00  0.00    +0.000 A 
ATOM     16  N   UNL     1      10.753  14.351  19.035  0.00  0.00    +0.000 NA
ATOM     17  C   UNL     1      11.094  13.959  17.792  0.00  0.00    +0.000 A 
ATOM     18  C   UNL     1      10.876  12.698  17.304  0.00  0.00    +0.000 A 
ATOM     19  C   UNL     1      10.297  11.827  18.187  0.00  0.00    +0.000 A 
ATOM     20  N   UNL     1       9.966  12.166  19.445  0.00  0.00    +0.000 NA
ATOM     21  C   UNL     1       9.393  12.858  22.085  0.00  0.00    +0.000 C 
ENDROOT
TORSDOF 0
ENDMDL
MODEL 4
REMARK VINA RESULT:      -5.5      8.183      9.693
REMARK  Name = 
REMARK  2 active torsions:
REMARK  status: ('A' for Active; 'I' for Inactive)
REMARK    1  A    between atoms: C_1  and  N_2
REMARK    2  A    between atoms: N_2  and  C_3
REMARK                            x       y       z     vdW  Elec       q    Type
REMARK                         _______ _______ _______ _____ _____    ______ ____
ROOT
ATOM      1  C   UNL     1      -1.552  16.713  20.051  0.00  0.00    +0.000 C 
ATOM      2  N   UNL     1      -1.476  15.259  20.061  0.00  0.00    +0.000 N 
ATOM      3  C   UNL     1      -2.459  14.596  20.903  0.00  0.00    +0.000 C 
ATOM      4  C   UNL     1      -0.250  14.730  19.679  0.00  0.00    +0.000 C 
ATOM      5  O   UNL     1       0.679  15.489  19.380  0.00  0.00    +0.000 OA
ATOM      6  N   UNL     1      -0.056  13.364  19.679  0.00  0.00    +0.000 N 
ATOM      7  C   UNL     1       1.317  12.863  19.596  0.00  0.00    +0.000 C 
ATOM      8  C   UNL     1       1.551  11.791  20.665  0.00  0.00    +0.000 C 
ATOM      9  C   UNL     1       0.477  10.670  20.650  0.00  0.00    +0.000 C 
ATOM     10  C   UNL     1      -0.931  11.300  20.622  0.00  0.00    +0.000 C 
ATOM     11  C   UNL     1      -1.055  12.319  19.490  0.00  0.00    +0.000 C 
ATOM     12  C   UNL     1       0.649   9.744  21.888  0.00  0.00    +0.000 C 
ATOM     13  C   UNL     1       0.876   8.331  21.342  0.00  0.00    +0.000 C 
ATOM     14  N   UNL     1       1.355   8.599  20.013  0.00  0.00    +0.000 N 
ATOM     15  C   UNL     1       2.129   7.745  19.293  0.00  0.00    +0.000 A 
ATOM     16  N   UNL     1       2.463   6.558  19.819  0.00  0.00    +0.000 NA
ATOM     17  C   UNL     1       3.309   5.786  19.108  0.00  0.00    +0.000 A 
ATOM     18  C   UNL     1       3.848   6.155  17.903  0.00  0.00    +0.000 A 
ATOM     19  C   UNL     1       3.444   7.378  17.439  0.00  0.00    +0.000 A 
ATOM     20  N   UNL     1       2.581   8.168  18.100  0.00  0.00    +0.000 NA
ATOM     21  C   UNL     1       0.700   9.739  19.432  0.00  0.00    +0.000 C 
ENDROOT
TORSDOF 0
ENDMDL
MODEL 5
REMARK VINA RESULT:      -5.5      7.021      8.840
REMARK  Name = 
REMARK  2 active torsions:
REMARK  status: ('A' for Active; 'I' for Inactive)
REMARK    1  A    between atoms: C_1  and  N_2
REMARK    2  A    between atoms: N_2  and  C_3
REMARK                            x       y       z     vdW  Elec       q    Type
REMARK                         _______ _______ _______ _____ _____    ______ ____
ROOT
ATOM      1  C   UNL     1      -2.028  15.156  20.443  0.00  0.00    +0.000 C 
ATOM      2  N   UNL     1      -0.978  14.161  20.280  0.00  0.00    +0.000 N 
ATOM      3  C   UNL     1       0.235  14.642  19.640  0.00  0.00    +0.000 C 
ATOM      4  C   UNL     1      -1.408  12.841  20.309  0.00  0.00    +0.000 C 
ATOM      5  O   UNL     1      -2.611  12.590  20.448  0.00  0.00    +0.000 OA
ATOM      6  N   UNL     1      -0.503  11.814  20.137  0.00  0.00    +0.000 N 
ATOM      7  C   UNL     1      -1.023  10.478  19.844  0.00  0.00    +0.000 C 
ATOM      8  C   UNL     1      -0.272   9.869  18.655  0.00  0.00    +0.000 C 
ATOM      9  C   UNL     1       1.271   9.914  18.823  0.00  0.00    +0.000 C 
ATOM     10  C   UNL     1       1.707  11.333  19.243  0.00  0.00    +0.000 C 
ATOM     11  C   UNL     1       0.919  11.812  20.461  0.00  0.00    +0.000 C 
ATOM     12  C   UNL     1       1.967   9.485  17.498  0.00  0.00    +0.000 C 
ATOM     13  C   UNL     1       2.839   8.274  17.842  0.00  0.00    +0.000 C 
ATOM     14  N   UNL     1       2.209   7.784  19.038  0.00  0.00    +0.000 N 
ATOM     15  C   UNL     1       2.288   6.498  19.470  0.00  0.00    +0.000 A 
ATOM     16  N   UNL     1       3.014   5.612  18.773  0.00  0.00    +0.000 NA
ATOM     17  C   UNL     1       2.985   4.330  19.188  0.00  0.00    +0.000 A 
ATOM     18  C   UNL     1       2.251   3.892  20.259  0.00  0.00    +0.000 A 
ATOM     19  C   UNL     1       1.549   4.866  20.917  0.00  0.00    +0.000 A 
ATOM     20  N   UNL     1       1.571   6.160  20.556  0.00  0.00    +0.000 NA
ATOM     21  C   UNL     1       1.722   8.857  19.861  0.00  0.00    +0.000 C 
ENDROOT
TORSDOF 0
ENDMDL
MODEL 6
REMARK VINA RESULT:      -5.4      8.396     10.083
REMARK  Name = 
REMARK  2 active torsions:
REMARK  status: ('A' for Active; 'I' for Inactive)
REMARK    1  A    between atoms: C_1  and  N_2
REMARK    2  A    between atoms: N_2  and  C_3
REMARK                            x       y       z     vdW  Elec       q    Type
REMARK                         _______ _______ _______ _____ _____    ______ ____
ROOT
ATOM      1  C   UNL     1      -0.243  17.510  18.921  0.00  0.00    +0.000 C 
ATOM      2  N   UNL     1      -0.411  16.070  19.055  0.00  0.00    +0.000 N 
ATOM      3  C   UNL     1      -1.572  15.652  19.824  0.00  0.00    +0.000 C 
ATOM      4  C   UNL     1       0.744  15.322  18.863  0.00  0.00    +0.000 C 
ATOM      5  O   UNL     1       1.812  15.895  18.616  0.00  0.00    +0.000 OA
ATOM      6  N   UNL     1       0.709  13.949  18.994  0.00  0.00    +0.000 N 
ATOM      7  C   UNL     1       1.980  13.234  19.113  0.00  0.00    +0.000 C 
ATOM      8  C   UNL     1       1.922  12.248  20.284  0.00  0.00    +0.000 C 
ATOM      9  C   UNL     1       0.684  11.311  20.230  0.00  0.00    +0.000 C 
ATOM     10  C   UNL     1      -0.589  12.148  19.986  0.00  0.00    +0.000 C 
ATOM     11  C   UNL     1      -0.424  13.058  18.771  0.00  0.00    +0.000 C 
ATOM     12  C   UNL     1       0.572  10.494  21.549  0.00  0.00    +0.000 C 
ATOM     13  C   UNL     1       0.617   9.017  21.147  0.00  0.00    +0.000 C 
ATOM     14  N   UNL     1       1.269   9.078  19.867  0.00  0.00    +0.000 N 
ATOM     15  C   UNL     1       1.962   8.048  19.313  0.00  0.00    +0.000 A 
ATOM     16  N   UNL     1       2.039   6.880  19.966  0.00  0.00    +0.000 NA
ATOM     17  C   UNL     1       2.814   5.921  19.423  0.00  0.00    +0.000 A 
ATOM     18  C   UNL     1       3.529   6.083  18.265  0.00  0.00    +0.000 A 
ATOM     19  C   UNL     1       3.383   7.303  17.661  0.00  0.00    +0.000 A 
ATOM     20  N   UNL     1       2.599   8.278  18.152  0.00  0.00    +0.000 NA
ATOM     21  C   UNL     1       0.876  10.244  19.125  0.00  0.00    +0.000 C 
ENDROOT
TORSDOF 0
ENDMDL
MODEL 7
REMARK VINA RESULT:      -5.3      9.876     12.584
REMARK  Name = 
REMARK  2 active torsions:
REMARK  status: ('A' for Active; 'I' for Inactive)
REMARK    1  A    between atoms: C_1  and  N_2
REMARK    2  A    between atoms: N_2  and  C_3
REMARK                            x       y       z     vdW  Elec       q    Type
REMARK                         _______ _______ _______ _____ _____    ______ ____
ROOT
ATOM      1  C   UNL     1       2.680   7.447  18.950  0.00  0.00    +0.000 C 
ATOM      2  N   UNL     1       1.706   8.529  18.930  0.00  0.00    +0.000 N 
ATOM      3  C   UNL     1       1.891   9.507  17.870  0.00  0.00    +0.000 C 
ATOM      4  C   UNL     1       1.052   8.756  20.134  0.00  0.00    +0.000 C 
ATOM      5  O   UNL     1       1.332   8.068  21.123  0.00  0.00    +0.000 OA
ATOM      6  N   UNL     1       0.128   9.775  20.239  0.00  0.00    +0.000 N 
ATOM      7  C   UNL     1      -0.288  10.194  21.578  0.00  0.00    +0.000 C 
ATOM      8  C   UNL     1      -0.225  11.720  21.695  0.00  0.00    +0.000 C 
ATOM      9  C   UNL     1      -0.980  12.451  20.551  0.00  0.00    +0.000 C 
ATOM     10  C   UNL     1      -0.558  11.859  19.190  0.00  0.00    +0.000 C 
ATOM     11  C   UNL     1      -0.704  10.339  19.183  0.00  0.00    +0.000 C 
ATOM     12  C   UNL     1      -0.692  13.979  20.609  0.00  0.00    +0.000 C 
ATOM     13  C   UNL     1      -2.051  14.668  20.767  0.00  0.00    +0.000 C 
ATOM     14  N   UNL     1      -2.856  13.613  21.319  0.00  0.00    +0.000 N 
ATOM     15  C   UNL     1      -3.974  13.816  22.066  0.00  0.00    +0.000 A 
ATOM     16  N   UNL     1      -4.391  15.069  22.299  0.00  0.00    +0.000 NA
ATOM     17  C   UNL     1      -5.446  15.223  23.123  0.00  0.00    +0.000 A 
ATOM     18  C   UNL     1      -6.093  14.182  23.736  0.00  0.00    +0.000 A 
ATOM     19  C   UNL     1      -5.606  12.938  23.433  0.00  0.00    +0.000 A 
ATOM     20  N   UNL     1      -4.574  12.736  22.596  0.00  0.00    +0.000 NA
ATOM     21  C   UNL     1      -2.509  12.333  20.766  0.00  0.00    +0.000 C 
ENDROOT
TORSDOF 0
ENDMDL
MODEL 8
REMARK VINA RESULT:      -5.3     10.386     11.406
REMARK  Name = 
REMARK  2 active torsions:
REMARK  status: ('A' for Active; 'I' for Inactive)
REMARK    1  A    between atoms: C_1  and  N_2
REMARK    2  A    between atoms: N_2  and  C_3
REMARK                            x       y       z     vdW  Elec       q    Type
REMARK                         _______ _______ _______ _____ _____    ______ ____
ROOT
ATOM      1  C   UNL     1       5.849  12.506  28.678  0.00  0.00    +0.000 C 
ATOM      2  N   UNL     1       6.466  13.081  27.492  0.00  0.00    +0.000 N 
ATOM      3  C   UNL     1       6.160  14.482  27.254  0.00  0.00    +0.000 C 
ATOM      4  C   UNL     1       6.851  12.162  26.524  0.00  0.00    +0.000 C 
ATOM      5  O   UNL     1       6.643  10.957  26.706  0.00  0.00    +0.000 OA
ATOM      6  N   UNL     1       7.422  12.596  25.345  0.00  0.00    +0.000 N 
ATOM      7  C   UNL     1       7.508  11.650  24.232  0.00  0.00    +0.000 C 
ATOM      8  C   UNL     1       6.995  12.305  22.945  0.00  0.00    +0.000 C 
ATOM      9  C   UNL     1       7.664  13.676  22.651  0.00  0.00    +0.000 C 
ATOM     10  C   UNL     1       7.624  14.555  23.918  0.00  0.00    +0.000 C 
ATOM     11  C   UNL     1       8.198  13.809  25.122  0.00  0.00    +0.000 C 
ATOM     12  C   UNL     1       6.946  14.378  21.462  0.00  0.00    +0.000 C 
ATOM     13  C   UNL     1       8.016  14.612  20.391  0.00  0.00    +0.000 C 
ATOM     14  N   UNL     1       9.003  13.625  20.736  0.00  0.00    +0.000 N 
ATOM     15  C   UNL     1       9.898  13.101  19.859  0.00  0.00    +0.000 A 
ATOM     16  N   UNL     1       9.904  13.529  18.588  0.00  0.00    +0.000 NA
ATOM     17  C   UNL     1      10.744  12.912  17.734  0.00  0.00    +0.000 A 
ATOM     18  C   UNL     1      11.568  11.877  18.090  0.00  0.00    +0.000 A 
ATOM     19  C   UNL     1      11.504  11.512  19.408  0.00  0.00    +0.000 A 
ATOM     20  N   UNL     1      10.702  12.117  20.301  0.00  0.00    +0.000 NA
ATOM     21  C   UNL     1       9.117  13.462  22.160  0.00  0.00    +0.000 C 
ENDROOT
TORSDOF 0
ENDMDL
MODEL 9
REMARK VINA RESULT:      -5.3      9.055     10.591
REMARK  Name = 
REMARK  2 active torsions:
REMARK  status: ('A' for Active; 'I' for Inactive)
REMARK    1  A    between atoms: C_1  and  N_2
REMARK    2  A    between atoms: N_2  and  C_3
REMARK                            x       y       z     vdW  Elec       q    Type
REMARK                         _______ _______ _______ _____ _____    ______ ____
ROOT
ATOM      1  C   UNL     1      -1.950  17.555  20.383  0.00  0.00    +0.000 C 
ATOM      2  N   UNL     1      -1.914  16.100  20.395  0.00  0.00    +0.000 N 
ATOM      3  C   UNL     1      -2.913  15.464  21.238  0.00  0.00    +0.000 C 
ATOM      4  C   UNL     1      -0.703  15.538  20.012  0.00  0.00    +0.000 C 
ATOM      5  O   UNL     1       0.246  16.271  19.710  0.00  0.00    +0.000 OA
ATOM      6  N   UNL     1      -0.545  14.167  20.014  0.00  0.00    +0.000 N 
ATOM      7  C   UNL     1       0.814  13.629  19.929  0.00  0.00    +0.000 C 
ATOM      8  C   UNL     1       1.021  12.553  21.000  0.00  0.00    +0.000 C 
ATOM      9  C   UNL     1      -0.083  11.461  20.988  0.00  0.00    +0.000 C 
ATOM     10  C   UNL     1      -1.474  12.129  20.961  0.00  0.00    +0.000 C 
ATOM     11  C   UNL     1      -1.571  13.149  19.828  0.00  0.00    +0.000 C 
ATOM     12  C   UNL     1       0.066  10.533  22.228  0.00  0.00    +0.000 C 
ATOM     13  C   UNL     1       0.254   9.114  21.684  0.00  0.00    +0.000 C 
ATOM     14  N   UNL     1       0.738   9.367  20.353  0.00  0.00    +0.000 N 
ATOM     15  C   UNL     1       1.488   8.491  19.634  0.00  0.00    +0.000 A 
ATOM     16  N   UNL     1       1.792   7.296  20.160  0.00  0.00    +0.000 NA
ATOM     17  C   UNL     1       2.616   6.502  19.450  0.00  0.00    +0.000 A 
ATOM     18  C   UNL     1       3.162   6.854  18.244  0.00  0.00    +0.000 A 
ATOM     19  C   UNL     1       2.791   8.087  17.778  0.00  0.00    +0.000 A 
ATOM     20  N   UNL     1       1.950   8.901  18.439  0.00  0.00    +0.000 NA
ATOM     21  C   UNL     1       0.114  10.523  19.771  0.00  0.00    +0.000 C 
ENDROOT
TORSDOF 0
ENDMDL
