MODEL 1
REMARK VINA RESULT:      -7.2      0.000      0.000
REMARK  Name = 
REMARK  7 active torsions:
REMARK  status: ('A' for Active; 'I' for Inactive)
REMARK    1  A    between atoms: C_1  and  C_2
REMARK    2  A    between atoms: C_2  and  C_3
REMARK    3  A    between atoms: C_2  and  O_4
REMARK    4  A    between atoms: C_2  and  C_5
REMARK    5  A    between atoms: N_10  and  C_11
REMARK    6  A    between atoms: C_11  and  C_12
REMARK    7  A    between atoms: C_11  and  C_18
REMARK                            x       y       z     vdW  Elec       q    Type
REMARK                         _______ _______ _______ _____ _____    ______ ____
ROOT
ATOM      1  C   UNL     1       6.184   3.643  13.781  0.00  0.00    +0.000 C 
ATOM      2  C   UNL     1       6.857   4.791  14.577  0.00  0.00    +0.000 C 
ATOM      3  N   UNL     1       5.642   4.791  15.378  0.00  0.00    +0.000 N 
ATOM      4  C   UNL     1       5.393   5.355  16.591  0.00  0.00    +0.000 C 
ATOM      5  O   UNL     1       6.270   5.879  17.276  0.00  0.00    +0.000 OA
ATOM      6  N   UNL     1       4.090   5.283  16.997  0.00  0.00    +0.000 N 
ATOM      7  C   UNL     1       4.840   4.217  14.314  0.00  0.00    +0.000 C 
ATOM      8  H   UNL     1       3.522   4.588  16.539  0.00  0.00    +0.000 HD
ENDROOT
BRANCH   1  10
ATOM      9  C   UNL     1       7.258   4.683  11.773  0.00  0.00    +0.000 C 
ATOM     10  C   UNL     1       6.391   3.522  12.268  0.00  0.00    +0.000 C 
ATOM     11  C   UNL     1       5.047   3.530  11.540  0.00  0.00    +0.000 C 
BRANCH  10  12
ATOM     12  O   UNL     1       7.061   2.299  11.975  0.00  0.00    +0.000 OA
ATOM     13  H   UNL     1       6.401   1.664  11.647  0.00  0.00    +0.000 HD
ENDBRANCH  10  12
ENDBRANCH   1  10
BRANCH   6  14
ATOM     14  C   UNL     1       3.626   5.785  18.297  0.00  0.00    +0.000 C 
BRANCH  14  15
ATOM     15  C   UNL     1       2.675   4.789  18.951  0.00  0.00    +0.000 A 
ATOM     16  C   UNL     1       2.366   4.827  20.321  0.00  0.00    +0.000 A 
ATOM     17  C   UNL     1       1.459   3.921  20.875  0.00  0.00    +0.000 A 
ATOM     18  C   UNL     1       0.837   2.972  20.068  0.00  0.00    +0.000 A 
ATOM     19  C   UNL     1       1.133   2.915  18.709  0.00  0.00    +0.000 A 
ATOM     20  C   UNL     1       2.046   3.816  18.155  0.00  0.00    +0.000 A 
ENDBRANCH  14  15
BRANCH  14  21
ATOM     21  C   UNL     1       3.142   7.254  18.284  0.00  0.00    +0.000 C 
ATOM     22  F   UNL     1       3.810   7.953  17.323  0.00  0.00    +0.000 F 
ATOM     23  F   UNL     1       1.831   7.291  17.907  0.00  0.00    +0.000 F 
ENDBRANCH  14  21
ENDBRANCH   6  14
TORSDOF 5
ENDMDL
MODEL 2
REMARK VINA RESULT:      -7.1      0.324      1.083
REMARK  Name = 
REMARK  7 active torsions:
REMARK  status: ('A' for Active; 'I' for Inactive)
REMARK    1  A    between atoms: C_1  and  C_2
REMARK    2  A    between atoms: C_2  and  C_3
REMARK    3  A    between atoms: C_2  and  O_4
REMARK    4  A    between atoms: C_2  and  C_5
REMARK    5  A    between atoms: N_10  and  C_11
REMARK    6  A    between atoms: C_11  and  C_12
REMARK    7  A    between atoms: C_11  and  C_18
REMARK                            x       y       z     vdW  Elec       q    Type
REMARK                         _______ _______ _______ _____ _____    ______ ____
ROOT
ATOM      1  C   UNL     1       6.186   3.670  13.787  0.00  0.00    +0.000 C 
ATOM      2  C   UNL     1       6.848   4.861  14.529  0.00  0.00    +0.000 C 
ATOM      3  N   UNL     1       5.659   4.846  15.368  0.00  0.00    +0.000 N 
ATOM      4  C   UNL     1       5.430   5.436  16.573  0.00  0.00    +0.000 C 
ATOM      5  O   UNL     1       6.311   6.004  17.216  0.00  0.00    +0.000 OA
ATOM      6  N   UNL     1       4.143   5.336  17.022  0.00  0.00    +0.000 N 
ATOM      7  C   UNL     1       4.842   4.219  14.345  0.00  0.00    +0.000 C 
ATOM      8  H   UNL     1       3.583   4.613  16.600  0.00  0.00    +0.000 HD
ENDROOT
BRANCH   1  10
ATOM      9  C   UNL     1       7.210   4.658  11.726  0.00  0.00    +0.000 C 
ATOM     10  C   UNL     1       6.351   3.514  12.271  0.00  0.00    +0.000 C 
ATOM     11  C   UNL     1       4.986   3.514  11.581  0.00  0.00    +0.000 C 
BRANCH  10  12
ATOM     12  O   UNL     1       7.006   2.280  11.988  0.00  0.00    +0.000 OA
ATOM     13  H   UNL     1       6.885   1.692  12.753  0.00  0.00    +0.000 HD
ENDBRANCH  10  12
ENDBRANCH   1  10
BRANCH   6  14
ATOM     14  C   UNL     1       3.704   5.860  18.321  0.00  0.00    +0.000 C 
BRANCH  14  15
ATOM     15  C   UNL     1       2.729   4.897  18.990  0.00  0.00    +0.000 A 
ATOM     16  C   UNL     1       1.849   4.084  18.258  0.00  0.00    +0.000 A 
ATOM     17  C   UNL     1       0.998   3.185  18.906  0.00  0.00    +0.000 A 
ATOM     18  C   UNL     1       1.024   3.075  20.293  0.00  0.00    +0.000 A 
ATOM     19  C   UNL     1       1.887   3.875  21.037  0.00  0.00    +0.000 A 
ATOM     20  C   UNL     1       2.732   4.781  20.391  0.00  0.00    +0.000 A 
ENDBRANCH  14  15
BRANCH  14  21
ATOM     21  C   UNL     1       3.263   7.342  18.302  0.00  0.00    +0.000 C 
ATOM     22  F   UNL     1       3.171   7.782  17.015  0.00  0.00    +0.000 F 
ATOM     23  F   UNL     1       1.996   7.440  18.803  0.00  0.00    +0.000 F 
ENDBRANCH  14  21
ENDBRANCH   6  14
TORSDOF 5
ENDMDL
MODEL 3
REMARK VINA RESULT:      -7.1      4.266      7.847
REMARK  Name = 
REMARK  7 active torsions:
REMARK  status: ('A' for Active; 'I' for Inactive)
REMARK    1  A    between atoms: C_1  and  C_2
REMARK    2  A    between atoms: C_2  and  C_3
REMARK    3  A    between atoms: C_2  and  O_4
REMARK    4  A    between atoms: C_2  and  C_5
REMARK    5  A    between atoms: N_10  and  C_11
REMARK    6  A    between atoms: C_11  and  C_12
REMARK    7  A    between atoms: C_11  and  C_18
REMARK                            x       y       z     vdW  Elec       q    Type
REMARK                         _______ _______ _______ _____ _____    ______ ____
ROOT
ATOM      1  C   UNL     1      -0.044  10.368  20.318  0.00  0.00    +0.000 C 
ATOM      2  C   UNL     1       0.957  10.658  19.170  0.00  0.00    +0.000 C 
ATOM      3  N   UNL     1       1.305   9.249  19.274  0.00  0.00    +0.000 N 
ATOM      4  C   UNL     1       1.992   8.450  18.412  0.00  0.00    +0.000 C 
ATOM      5  O   UNL     1       2.331   8.818  17.289  0.00  0.00    +0.000 OA
ATOM      6  N   UNL     1       2.264   7.199  18.888  0.00  0.00    +0.000 N 
ATOM      7  C   UNL     1       0.873   9.158  20.656  0.00  0.00    +0.000 C 
ATOM      8  H   UNL     1       1.699   6.888  19.662  0.00  0.00    +0.000 HD
ENDROOT
BRANCH   1  10
ATOM      9  C   UNL     1      -0.616  10.728  22.729  0.00  0.00    +0.000 C 
ATOM     10  C   UNL     1      -0.312  11.421  21.398  0.00  0.00    +0.000 C 
ATOM     11  C   UNL     1      -1.485  12.316  20.997  0.00  0.00    +0.000 C 
BRANCH  10  12
ATOM     12  O   UNL     1       0.846  12.236  21.566  0.00  0.00    +0.000 OA
ATOM     13  H   UNL     1       1.142  12.525  20.685  0.00  0.00    +0.000 HD
ENDBRANCH  10  12
ENDBRANCH   1  10
BRANCH   6  14
ATOM     14  C   UNL     1       2.949   6.170  18.095  0.00  0.00    +0.000 C 
BRANCH  14  15
ATOM     15  C   UNL     1       2.423   4.782  18.442  0.00  0.00    +0.000 A 
ATOM     16  C   UNL     1       1.672   4.527  19.601  0.00  0.00    +0.000 A 
ATOM     17  C   UNL     1       1.174   3.249  19.864  0.00  0.00    +0.000 A 
ATOM     18  C   UNL     1       1.407   2.209  18.968  0.00  0.00    +0.000 A 
ATOM     19  C   UNL     1       2.154   2.441  17.816  0.00  0.00    +0.000 A 
ATOM     20  C   UNL     1       2.659   3.717  17.555  0.00  0.00    +0.000 A 
ENDBRANCH  14  15
BRANCH  14  21
ATOM     21  C   UNL     1       4.489   6.305  18.057  0.00  0.00    +0.000 C 
ATOM     22  F   UNL     1       5.051   5.454  18.963  0.00  0.00    +0.000 F 
ATOM     23  F   UNL     1       4.947   5.885  16.841  0.00  0.00    +0.000 F 
ENDBRANCH  14  21
ENDBRANCH   6  14
TORSDOF 5
ENDMDL
MODEL 4
REMARK VINA RESULT:      -7.1      4.473      8.063
REMARK  Name = 
REMARK  7 active torsions:
REMARK  status: ('A' for Active; 'I' for Inactive)
REMARK    1  A    between atoms: C_1  and  C_2
REMARK    2  A    between atoms: C_2  and  C_3
REMARK    3  A    between atoms: C_2  and  O_4
REMARK    4  A    between atoms: C_2  and  C_5
REMARK    5  A    between atoms: N_10  and  C_11
REMARK    6  A    between atoms: C_11  and  C_12
REMARK    7  A    between atoms: C_11  and  C_18
REMARK                            x       y       z     vdW  Elec       q    Type
REMARK                         _______ _______ _______ _____ _____    ______ ____
ROOT
ATOM      1  C   UNL     1      -0.111  10.751  20.365  0.00  0.00    +0.000 C 
ATOM      2  C   UNL     1       0.828  10.950  19.147  0.00  0.00    +0.000 C 
ATOM      3  N   UNL     1       1.170   9.547  19.329  0.00  0.00    +0.000 N 
ATOM      4  C   UNL     1       1.802   8.683  18.489  0.00  0.00    +0.000 C 
ATOM      5  O   UNL     1       2.082   8.968  17.326  0.00  0.00    +0.000 OA
ATOM      6  N   UNL     1       2.091   7.464  19.035  0.00  0.00    +0.000 N 
ATOM      7  C   UNL     1       0.814   9.556  20.736  0.00  0.00    +0.000 C 
ATOM      8  H   UNL     1       1.567   7.213  19.858  0.00  0.00    +0.000 HD
ENDROOT
BRANCH   1  10
ATOM      9  C   UNL     1      -0.816  11.296  22.704  0.00  0.00    +0.000 C 
ATOM     10  C   UNL     1      -0.310  11.879  21.382  0.00  0.00    +0.000 C 
ATOM     11  C   UNL     1      -1.307  12.910  20.852  0.00  0.00    +0.000 C 
BRANCH  10  12
ATOM     12  O   UNL     1       0.936  12.530  21.621  0.00  0.00    +0.000 OA
ATOM     13  H   UNL     1       1.442  12.527  20.790  0.00  0.00    +0.000 HD
ENDBRANCH  10  12
ENDBRANCH   1  10
BRANCH   6  14
ATOM     14  C   UNL     1       2.723   6.375  18.279  0.00  0.00    +0.000 C 
BRANCH  14  15
ATOM     15  C   UNL     1       2.145   5.026  18.691  0.00  0.00    +0.000 A 
ATOM     16  C   UNL     1       2.135   3.915  17.833  0.00  0.00    +0.000 A 
ATOM     17  C   UNL     1       1.631   2.684  18.262  0.00  0.00    +0.000 A 
ATOM     18  C   UNL     1       1.143   2.542  19.558  0.00  0.00    +0.000 A 
ATOM     19  C   UNL     1       1.139   3.633  20.422  0.00  0.00    +0.000 A 
ATOM     20  C   UNL     1       1.635   4.867  19.992  0.00  0.00    +0.000 A 
ENDBRANCH  14  15
BRANCH  14  21
ATOM     21  C   UNL     1       4.267   6.444  18.219  0.00  0.00    +0.000 C 
ATOM     22  F   UNL     1       4.805   5.611  19.155  0.00  0.00    +0.000 F 
ATOM     23  F   UNL     1       4.691   5.953  17.018  0.00  0.00    +0.000 F 
ENDBRANCH  14  21
ENDBRANCH   6  14
TORSDOF 5
ENDMDL
MODEL 5
REMARK VINA RESULT:      -7.0      0.987      1.302
REMARK  Name = 
REMARK  7 active torsions:
REMARK  status: ('A' for Active; 'I' for Inactive)
REMARK    1  A    between atoms: C_1  and  C_2
REMARK    2  A    between atoms: C_2  and  C_3
REMARK    3  A    between atoms: C_2  and  O_4
REMARK    4  A    between atoms: C_2  and  C_5
REMARK    5  A    between atoms: N_10  and  C_11
REMARK    6  A    between atoms: C_11  and  C_12
REMARK    7  A    between atoms: C_11  and  C_18
REMARK                            x       y       z     vdW  Elec       q    Type
REMARK                         _______ _______ _______ _____ _____    ______ ____
ROOT
ATOM      1  C   UNL     1       6.244   3.723  13.869  0.00  0.00    +0.000 C 
ATOM      2  C   UNL     1       6.829   5.010  14.507  0.00  0.00    +0.000 C 
ATOM      3  N   UNL     1       5.722   4.908  15.446  0.00  0.00    +0.000 N 
ATOM      4  C   UNL     1       5.528   5.524  16.643  0.00  0.00    +0.000 C 
ATOM      5  O   UNL     1       6.391   6.212  17.186  0.00  0.00    +0.000 OA
ATOM      6  N   UNL     1       4.301   5.308  17.205  0.00  0.00    +0.000 N 
ATOM      7  C   UNL     1       4.898   4.151  14.521  0.00  0.00    +0.000 C 
ATOM      8  H   UNL     1       3.792   4.511  16.861  0.00  0.00    +0.000 HD
ENDROOT
BRANCH   1  10
ATOM      9  C   UNL     1       7.201   4.580  11.720  0.00  0.00    +0.000 C 
ATOM     10  C   UNL     1       6.300   3.516  12.351  0.00  0.00    +0.000 C 
ATOM     11  C   UNL     1       4.898   3.597  11.747  0.00  0.00    +0.000 C 
BRANCH  10  12
ATOM     12  O   UNL     1       6.846   2.231  12.066  0.00  0.00    +0.000 OA
ATOM     13  H   UNL     1       6.364   1.574  12.597  0.00  0.00    +0.000 HD
ENDBRANCH  10  12
ENDBRANCH   1  10
BRANCH   6  14
ATOM     14  C   UNL     1       3.915   5.841  18.518  0.00  0.00    +0.000 C 
BRANCH  14  15
ATOM     15  C   UNL     1       3.479   4.717  19.449  0.00  0.00    +0.000 A 
ATOM     16  C   UNL     1       4.059   3.438  19.414  0.00  0.00    +0.000 A 
ATOM     17  C   UNL     1       3.658   2.445  20.311  0.00  0.00    +0.000 A 
ATOM     18  C   UNL     1       2.682   2.718  21.266  0.00  0.00    +0.000 A 
ATOM     19  C   UNL     1       2.091   3.978  21.314  0.00  0.00    +0.000 A 
ATOM     20  C   UNL     1       2.485   4.969  20.412  0.00  0.00    +0.000 A 
ENDBRANCH  14  15
BRANCH  14  21
ATOM     21  C   UNL     1       2.968   7.063  18.463  0.00  0.00    +0.000 C 
ATOM     22  F   UNL     1       3.542   8.062  17.734  0.00  0.00    +0.000 F 
ATOM     23  F   UNL     1       1.838   6.723  17.776  0.00  0.00    +0.000 F 
ENDBRANCH  14  21
ENDBRANCH   6  14
TORSDOF 5
ENDMDL
MODEL 6
REMARK VINA RESULT:      -7.0      0.988      1.065
REMARK  Name = 
REMARK  7 active torsions:
REMARK  status: ('A' for Active; 'I' for Inactive)
REMARK    1  A    between atoms: C_1  and  C_2
REMARK    2  A    between atoms: C_2  and  C_3
REMARK    3  A    between atoms: C_2  and  O_4
REMARK    4  A    between atoms: C_2  and  C_5
REMARK    5  A    between atoms: N_10  and  C_11
REMARK    6  A    between atoms: C_11  and  C_12
REMARK    7  A    between atoms: C_11  and  C_18
REMARK                            x       y       z     vdW  Elec       q    Type
REMARK                         _______ _______ _______ _____ _____    ______ ____
ROOT
ATOM      1  C   UNL     1       6.236   3.738  13.911  0.00  0.00    +0.000 C 
ATOM      2  C   UNL     1       6.861   5.000  14.562  0.00  0.00    +0.000 C 
ATOM      3  N   UNL     1       5.737   4.937  15.485  0.00  0.00    +0.000 N 
ATOM      4  C   UNL     1       5.551   5.556  16.682  0.00  0.00    +0.000 C 
ATOM      5  O   UNL     1       6.432   6.209  17.240  0.00  0.00    +0.000 OA
ATOM      6  N   UNL     1       4.309   5.386  17.226  0.00  0.00    +0.000 N 
ATOM      7  C   UNL     1       4.898   4.215  14.546  0.00  0.00    +0.000 C 
ATOM      8  H   UNL     1       3.774   4.610  16.872  0.00  0.00    +0.000 HD
ENDROOT
BRANCH   1  10
ATOM      9  C   UNL     1       7.205   4.605  11.771  0.00  0.00    +0.000 C 
ATOM     10  C   UNL     1       6.305   3.534  12.394  0.00  0.00    +0.000 C 
ATOM     11  C   UNL     1       4.907   3.607  11.778  0.00  0.00    +0.000 C 
BRANCH  10  12
ATOM     12  O   UNL     1       6.862   2.253  12.111  0.00  0.00    +0.000 OA
ATOM     13  H   UNL     1       6.269   1.577  12.483  0.00  0.00    +0.000 HD
ENDBRANCH  10  12
ENDBRANCH   1  10
BRANCH   6  14
ATOM     14  C   UNL     1       3.925   5.929  18.535  0.00  0.00    +0.000 C 
BRANCH  14  15
ATOM     15  C   UNL     1       3.521   4.808  19.487  0.00  0.00    +0.000 A 
ATOM     16  C   UNL     1       2.496   4.955  20.435  0.00  0.00    +0.000 A 
ATOM     17  C   UNL     1       2.129   3.891  21.263  0.00  0.00    +0.000 A 
ATOM     18  C   UNL     1       2.772   2.661  21.147  0.00  0.00    +0.000 A 
ATOM     19  C   UNL     1       3.794   2.498  20.216  0.00  0.00    +0.000 A 
ATOM     20  C   UNL     1       4.168   3.563  19.394  0.00  0.00    +0.000 A 
ENDBRANCH  14  15
BRANCH  14  21
ATOM     21  C   UNL     1       2.952   7.129  18.474  0.00  0.00    +0.000 C 
ATOM     22  F   UNL     1       3.508   8.140  17.747  0.00  0.00    +0.000 F 
ATOM     23  F   UNL     1       1.833   6.765  17.781  0.00  0.00    +0.000 F 
ENDBRANCH  14  21
ENDBRANCH   6  14
TORSDOF 5
ENDMDL
MODEL 7
REMARK VINA RESULT:      -7.0      4.049      7.590
REMARK  Name = 
REMARK  7 active torsions:
REMARK  status: ('A' for Active; 'I' for Inactive)
REMARK    1  A    between atoms: C_1  and  C_2
REMARK    2  A    between atoms: C_2  and  C_3
REMARK    3  A    between atoms: C_2  and  O_4
REMARK    4  A    between atoms: C_2  and  C_5
REMARK    5  A    between atoms: N_10  and  C_11
REMARK    6  A    between atoms: C_11  and  C_12
REMARK    7  A    between atoms: C_11  and  C_18
REMARK                            x       y       z     vdW  Elec       q    Type
REMARK                         _______ _______ _______ _____ _____    ______ ____
ROOT
ATOM      1  C   UNL     1       0.267   9.615  20.403  0.00  0.00    +0.000 C 
ATOM      2  C   UNL     1       1.121  10.027  19.175  0.00  0.00    +0.000 C 
ATOM      3  N   UNL     1       1.634   8.666  19.223  0.00  0.00    +0.000 N 
ATOM      4  C   UNL     1       2.326   7.957  18.289  0.00  0.00    +0.000 C 
ATOM      5  O   UNL     1       2.518   8.369  17.146  0.00  0.00    +0.000 OA
ATOM      6  N   UNL     1       2.782   6.742  18.717  0.00  0.00    +0.000 N 
ATOM      7  C   UNL     1       1.343   8.516  20.636  0.00  0.00    +0.000 C 
ATOM      8  H   UNL     1       2.329   6.363  19.533  0.00  0.00    +0.000 HD
ENDROOT
BRANCH   1  10
ATOM      9  C   UNL     1      -0.272   9.878  22.834  0.00  0.00    +0.000 C 
ATOM     10  C   UNL     1      -0.018  10.623  21.521  0.00  0.00    +0.000 C 
ATOM     11  C   UNL     1      -1.232  11.485  21.169  0.00  0.00    +0.000 C 
BRANCH  10  12
ATOM     12  O   UNL     1       1.111  11.476  21.694  0.00  0.00    +0.000 OA
ATOM     13  H   UNL     1       1.827  10.951  22.091  0.00  0.00    +0.000 HD
ENDBRANCH  10  12
ENDBRANCH   1  10
BRANCH   6  14
ATOM     14  C   UNL     1       3.504   5.805  17.848  0.00  0.00    +0.000 C 
BRANCH  14  15
ATOM     15  C   UNL     1       2.954   4.392  18.005  0.00  0.00    +0.000 A 
ATOM     16  C   UNL     1       3.744   3.248  17.807  0.00  0.00    +0.000 A 
ATOM     17  C   UNL     1       3.214   1.969  17.999  0.00  0.00    +0.000 A 
ATOM     18  C   UNL     1       1.890   1.815  18.403  0.00  0.00    +0.000 A 
ATOM     19  C   UNL     1       1.089   2.937  18.599  0.00  0.00    +0.000 A 
ATOM     20  C   UNL     1       1.617   4.216  18.400  0.00  0.00    +0.000 A 
ENDBRANCH  14  15
BRANCH  14  21
ATOM     21  C   UNL     1       5.045   5.927  17.908  0.00  0.00    +0.000 C 
ATOM     22  F   UNL     1       5.427   7.171  17.499  0.00  0.00    +0.000 F 
ATOM     23  F   UNL     1       5.452   5.839  19.208  0.00  0.00    +0.000 F 
ENDBRANCH  14  21
ENDBRANCH   6  14
TORSDOF 5
ENDMDL
MODEL 8
REMARK VINA RESULT:      -6.8      4.174      7.740
REMARK  Name = 
REMARK  7 active torsions:
REMARK  status: ('A' for Active; 'I' for Inactive)
REMARK    1  A    between atoms: C_1  and  C_2
REMARK    2  A    between atoms: C_2  and  C_3
REMARK    3  A    between atoms: C_2  and  O_4
REMARK    4  A    between atoms: C_2  and  C_5
REMARK    5  A    between atoms: N_10  and  C_11
REMARK    6  A    between atoms: C_11  and  C_12
REMARK    7  A    between atoms: C_11  and  C_18
REMARK                            x       y       z     vdW  Elec       q    Type
REMARK                         _______ _______ _______ _____ _____    ______ ____
ROOT
ATOM      1  C   UNL     1       0.195  10.237  20.279  0.00  0.00    +0.000 C 
ATOM      2  C   UNL     1       1.099  10.472  19.041  0.00  0.00    +0.000 C 
ATOM      3  N   UNL     1       1.478   9.076  19.199  0.00  0.00    +0.000 N 
ATOM      4  C   UNL     1       2.110   8.236  18.334  0.00  0.00    +0.000 C 
ATOM      5  O   UNL     1       2.355   8.541  17.168  0.00  0.00    +0.000 OA
ATOM      6  N   UNL     1       2.442   7.019  18.859  0.00  0.00    +0.000 N 
ATOM      7  C   UNL     1       1.157   9.062  20.614  0.00  0.00    +0.000 C 
ATOM      8  H   UNL     1       1.945   6.747  19.692  0.00  0.00    +0.000 HD
ENDROOT
BRANCH   1  10
ATOM      9  C   UNL     1      -1.458  11.832  21.276  0.00  0.00    +0.000 C 
ATOM     10  C   UNL     1      -0.006  11.349  21.314  0.00  0.00    +0.000 C 
ATOM     11  C   UNL     1       0.939  12.518  21.036  0.00  0.00    +0.000 C 
BRANCH  10  12
ATOM     12  O   UNL     1       0.269  10.841  22.618  0.00  0.00    +0.000 OA
ATOM     13  H   UNL     1       0.738   9.995  22.519  0.00  0.00    +0.000 HD
ENDBRANCH  10  12
ENDBRANCH   1  10
BRANCH   6  14
ATOM     14  C   UNL     1       3.081   5.954  18.076  0.00  0.00    +0.000 C 
BRANCH  14  15
ATOM     15  C   UNL     1       2.424   4.609  18.358  0.00  0.00    +0.000 A 
ATOM     16  C   UNL     1       2.699   3.460  17.599  0.00  0.00    +0.000 A 
ATOM     17  C   UNL     1       2.105   2.234  17.914  0.00  0.00    +0.000 A 
ATOM     18  C   UNL     1       1.239   2.136  19.000  0.00  0.00    +0.000 A 
ATOM     19  C   UNL     1       0.950   3.265  19.761  0.00  0.00    +0.000 A 
ATOM     20  C   UNL     1       1.536   4.492  19.442  0.00  0.00    +0.000 A 
ENDBRANCH  14  15
BRANCH  14  21
ATOM     21  C   UNL     1       4.627   5.960  18.122  0.00  0.00    +0.000 C 
ATOM     22  F   UNL     1       5.098   7.171  17.708  0.00  0.00    +0.000 F 
ATOM     23  F   UNL     1       5.037   5.842  19.419  0.00  0.00    +0.000 F 
ENDBRANCH  14  21
ENDBRANCH   6  14
TORSDOF 5
ENDMDL
MODEL 9
REMARK VINA RESULT:      -6.8      4.452      7.874
REMARK  Name = 
REMARK  7 active torsions:
REMARK  status: ('A' for Active; 'I' for Inactive)
REMARK    1  A    between atoms: C_1  and  C_2
REMARK    2  A    between atoms: C_2  and  C_3
REMARK    3  A    between atoms: C_2  and  O_4
REMARK    4  A    between atoms: C_2  and  C_5
REMARK    5  A    between atoms: N_10  and  C_11
REMARK    6  A    between atoms: C_11  and  C_12
REMARK    7  A    between atoms: C_11  and  C_18
REMARK                            x       y       z     vdW  Elec       q    Type
REMARK                         _______ _______ _______ _____ _____    ______ ____
ROOT
ATOM      1  C   UNL     1      -0.086  10.793  20.006  0.00  0.00    +0.000 C 
ATOM      2  C   UNL     1       0.948  10.929  18.858  0.00  0.00    +0.000 C 
ATOM      3  N   UNL     1       1.255   9.532  19.126  0.00  0.00    +0.000 N 
ATOM      4  C   UNL     1       1.939   8.626  18.376  0.00  0.00    +0.000 C 
ATOM      5  O   UNL     1       2.312   8.857  17.227  0.00  0.00    +0.000 OA
ATOM      6  N   UNL     1       2.167   7.429  18.995  0.00  0.00    +0.000 N 
ATOM      7  C   UNL     1       0.791   9.607  20.499  0.00  0.00    +0.000 C 
ATOM      8  H   UNL     1       1.578   7.220  19.784  0.00  0.00    +0.000 HD
ENDROOT
BRANCH   1  10
ATOM      9  C   UNL     1       0.840  12.931  20.923  0.00  0.00    +0.000 C 
ATOM     10  C   UNL     1      -0.348  11.967  20.956  0.00  0.00    +0.000 C 
ATOM     11  C   UNL     1      -0.570  11.463  22.383  0.00  0.00    +0.000 C 
BRANCH  10  12
ATOM     12  O   UNL     1      -1.514  12.669  20.535  0.00  0.00    +0.000 OA
ATOM     13  H   UNL     1      -2.024  12.084  19.948  0.00  0.00    +0.000 HD
ENDBRANCH  10  12
ENDBRANCH   1  10
BRANCH   6  14
ATOM     14  C   UNL     1       2.841   6.302  18.338  0.00  0.00    +0.000 C 
BRANCH  14  15
ATOM     15  C   UNL     1       2.240   4.976  18.791  0.00  0.00    +0.000 A 
ATOM     16  C   UNL     1       1.739   4.778  20.087  0.00  0.00    +0.000 A 
ATOM     17  C   UNL     1       1.160   3.560  20.452  0.00  0.00    +0.000 A 
ATOM     18  C   UNL     1       1.061   2.527  19.524  0.00  0.00    +0.000 A 
ATOM     19  C   UNL     1       1.557   2.702  18.235  0.00  0.00    +0.000 A 
ATOM     20  C   UNL     1       2.143   3.917  17.871  0.00  0.00    +0.000 A 
ENDBRANCH  14  15
BRANCH  14  21
ATOM     21  C   UNL     1       4.386   6.372  18.362  0.00  0.00    +0.000 C 
ATOM     22  F   UNL     1       4.869   5.599  19.376  0.00  0.00    +0.000 F 
ATOM     23  F   UNL     1       4.879   5.811  17.219  0.00  0.00    +0.000 F 
ENDBRANCH  14  21
ENDBRANCH   6  14
TORSDOF 5
ENDMDL
