MODEL 1
REMARK VINA RESULT:      -7.2      0.000      0.000
REMARK  Name = 
REMARK  10 active torsions:
REMARK  status: ('A' for Active; 'I' for Inactive)
REMARK    1  A    between atoms: C_1  and  C_2
REMARK    2  A    between atoms: C_2  and  C_3
REMARK    3  A    between atoms: C_2  and  C_4
REMARK    4  A    between atoms: C_4  and  C_5
REMARK    5  A    between atoms: C_5  and  N_6
REMARK    6  A    between atoms: N_9  and  C_10
REMARK    7  A    between atoms: C_10  and  C_11
REMARK    8  A    between atoms: C_21  and  C_22
REMARK    9  A    between atoms: C_22  and  C_23
REMARK   10  A    between atoms: C_23  and  O_24
REMARK                            x       y       z     vdW  Elec       q    Type
REMARK                         _______ _______ _______ _____ _____    ______ ____
ROOT
ATOM      1  N   UNL     1       5.588   4.358  17.114  0.00  0.00    +0.000 NA
ATOM      2  C   UNL     1       5.581   5.804  17.449  0.00  0.00    +0.000 C 
ATOM      3  C   UNL     1       4.228   6.528  17.232  0.00  0.00    +0.000 C 
ATOM      4  N   UNL     1       3.064   5.905  17.905  0.00  0.00    +0.000 NA
ATOM      5  C   UNL     1       3.091   4.446  17.665  0.00  0.00    +0.000 C 
ATOM      6  C   UNL     1       4.451   3.693  17.829  0.00  0.00    +0.000 C 
ENDROOT
BRANCH   1   7
ATOM      7  C   UNL     1       5.494   4.124  15.654  0.00  0.00    +0.000 C 
BRANCH   7   8
ATOM      8  C   UNL     1       6.661   4.669  14.809  0.00  0.00    +0.000 C 
BRANCH   8  10
ATOM      9  C   UNL     1       5.493   3.687  12.762  0.00  0.00    +0.000 C 
ATOM     10  C   UNL     1       6.831   4.057  13.403  0.00  0.00    +0.000 C 
ATOM     11  C   UNL     1       7.569   5.052  12.498  0.00  0.00    +0.000 C 
ENDBRANCH   8  10
ENDBRANCH   7   8
ENDBRANCH   1   7
BRANCH   4  12
ATOM     12  C   UNL     1       3.023   6.328  19.311  0.00  0.00    +0.000 C 
BRANCH  12  13
ATOM     13  C   UNL     1       2.248   7.575  19.575  0.00  0.00    +0.000 A 
ATOM     14  C   UNL     1       1.762   8.524  18.695  0.00  0.00    +0.000 A 
ATOM     15  C   UNL     1       0.935   9.421  19.426  0.00  0.00    +0.000 A 
ATOM     16  C   UNL     1       0.131  10.522  19.071  0.00  0.00    +0.000 A 
ATOM     17  C   UNL     1      -0.616  11.171  20.060  0.00  0.00    +0.000 A 
ATOM     18  C   UNL     1      -0.558  10.750  21.386  0.00  0.00    +0.000 A 
ATOM     19  C   UNL     1       0.249   9.669  21.766  0.00  0.00    +0.000 A 
ATOM     20  C   UNL     1       0.974   9.020  20.762  0.00  0.00    +0.000 A 
ATOM     21  N   UNL     1       1.803   7.922  20.827  0.00  0.00    +0.000 N 
ATOM     22  H   UNL     1       2.034   7.415  21.670  0.00  0.00    +0.000 HD
ENDBRANCH  12  13
ENDBRANCH   4  12
BRANCH   6  23
ATOM     23  C   UNL     1       4.766   3.442  19.325  0.00  0.00    +0.000 C 
BRANCH  23  24
ATOM     24  C   UNL     1       4.240   2.121  19.874  0.00  0.00    +0.000 C 
BRANCH  24  25
ATOM     25  O   UNL     1       5.297   1.262  20.278  0.00  0.00    +0.000 OA
ATOM     26  H   UNL     1       6.039   1.851  20.540  0.00  0.00    +0.000 HD
ENDBRANCH  24  25
ENDBRANCH  23  24
ENDBRANCH   6  23
TORSDOF 8
ENDMDL
MODEL 2
REMARK VINA RESULT:      -7.0      1.632      1.896
REMARK  Name = 
REMARK  10 active torsions:
REMARK  status: ('A' for Active; 'I' for Inactive)
REMARK    1  A    between atoms: C_1  and  C_2
REMARK    2  A    between atoms: C_2  and  C_3
REMARK    3  A    between atoms: C_2  and  C_4
REMARK    4  A    between atoms: C_4  and  C_5
REMARK    5  A    between atoms: C_5  and  N_6
REMARK    6  A    between atoms: N_9  and  C_10
REMARK    7  A    between atoms: C_10  and  C_11
REMARK    8  A    between atoms: C_21  and  C_22
REMARK    9  A    between atoms: C_22  and  C_23
REMARK   10  A    between atoms: C_23  and  O_24
REMARK                            x       y       z     vdW  Elec       q    Type
REMARK                         _______ _______ _______ _____ _____    ______ ____
ROOT
ATOM      1  N   UNL     1       4.345   3.707  18.175  0.00  0.00    +0.000 NA
ATOM      2  C   UNL     1       4.876   4.925  18.838  0.00  0.00    +0.000 C 
ATOM      3  C   UNL     1       4.131   6.241  18.500  0.00  0.00    +0.000 C 
ATOM      4  N   UNL     1       2.666   6.211  18.721  0.00  0.00    +0.000 NA
ATOM      5  C   UNL     1       2.117   4.963  18.149  0.00  0.00    +0.000 C 
ATOM      6  C   UNL     1       2.871   3.624  18.431  0.00  0.00    +0.000 C 
ENDROOT
BRANCH   1   7
ATOM      7  C   UNL     1       4.623   3.700  16.719  0.00  0.00    +0.000 C 
BRANCH   7   8
ATOM      8  C   UNL     1       6.093   3.918  16.313  0.00  0.00    +0.000 C 
BRANCH   8  10
ATOM      9  C   UNL     1       6.083   3.993  13.762  0.00  0.00    +0.000 C 
ATOM     10  C   UNL     1       6.333   4.774  15.052  0.00  0.00    +0.000 C 
ATOM     11  C   UNL     1       5.416   6.003  15.087  0.00  0.00    +0.000 C 
ENDBRANCH   8  10
ENDBRANCH   7   8
ENDBRANCH   1   7
BRANCH   4  12
ATOM     12  C   UNL     1       2.377   6.455  20.140  0.00  0.00    +0.000 C 
BRANCH  12  13
ATOM     13  C   UNL     1       1.716   7.759  20.438  0.00  0.00    +0.000 A 
ATOM     14  C   UNL     1       1.294   8.759  19.581  0.00  0.00    +0.000 A 
ATOM     15  C   UNL     1       0.562   9.711  20.342  0.00  0.00    +0.000 A 
ATOM     16  C   UNL     1      -0.153  10.881  20.020  0.00  0.00    +0.000 A 
ATOM     17  C   UNL     1      -0.821  11.576  21.033  0.00  0.00    +0.000 A 
ATOM     18  C   UNL     1      -0.771  11.132  22.353  0.00  0.00    +0.000 A 
ATOM     19  C   UNL     1      -0.050   9.981  22.700  0.00  0.00    +0.000 A 
ATOM     20  C   UNL     1       0.595   9.289  21.672  0.00  0.00    +0.000 A 
ATOM     21  N   UNL     1       1.330   8.124  21.704  0.00  0.00    +0.000 N 
ATOM     22  H   UNL     1       1.535   7.587  22.535  0.00  0.00    +0.000 HD
ENDBRANCH  12  13
ENDBRANCH   4  12
BRANCH   6  23
ATOM     23  C   UNL     1       2.553   3.100  19.854  0.00  0.00    +0.000 C 
BRANCH  23  24
ATOM     24  C   UNL     1       1.074   3.116  20.223  0.00  0.00    +0.000 C 
BRANCH  24  25
ATOM     25  O   UNL     1       0.864   2.707  21.567  0.00  0.00    +0.000 OA
ATOM     26  H   UNL     1       0.904   3.526  22.108  0.00  0.00    +0.000 HD
ENDBRANCH  24  25
ENDBRANCH  23  24
ENDBRANCH   6  23
TORSDOF 8
ENDMDL
MODEL 3
REMARK VINA RESULT:      -7.0      1.629      2.220
REMARK  Name = 
REMARK  10 active torsions:
REMARK  status: ('A' for Active; 'I' for Inactive)
REMARK    1  A    between atoms: C_1  and  C_2
REMARK    2  A    between atoms: C_2  and  C_3
REMARK    3  A    between atoms: C_2  and  C_4
REMARK    4  A    between atoms: C_4  and  C_5
REMARK    5  A    between atoms: C_5  and  N_6
REMARK    6  A    between atoms: N_9  and  C_10
REMARK    7  A    between atoms: C_10  and  C_11
REMARK    8  A    between atoms: C_21  and  C_22
REMARK    9  A    between atoms: C_22  and  C_23
REMARK   10  A    between atoms: C_23  and  O_24
REMARK                            x       y       z     vdW  Elec       q    Type
REMARK                         _______ _______ _______ _____ _____    ______ ____
ROOT
ATOM      1  N   UNL     1       3.585   3.713  18.037  0.00  0.00    +0.000 NA
ATOM      2  C   UNL     1       4.294   4.403  19.143  0.00  0.00    +0.000 C 
ATOM      3  C   UNL     1       4.252   5.951  19.092  0.00  0.00    +0.000 C 
ATOM      4  N   UNL     1       2.898   6.543  18.988  0.00  0.00    +0.000 NA
ATOM      5  C   UNL     1       2.132   5.816  17.953  0.00  0.00    +0.000 C 
ATOM      6  C   UNL     1       2.191   4.255  17.946  0.00  0.00    +0.000 C 
ENDROOT
BRANCH   1   7
ATOM      7  C   UNL     1       4.289   3.867  16.741  0.00  0.00    +0.000 C 
BRANCH   7   8
ATOM      8  C   UNL     1       5.781   4.244  16.827  0.00  0.00    +0.000 C 
BRANCH   8  10
ATOM      9  C   UNL     1       6.526   4.594  14.411  0.00  0.00    +0.000 C 
ATOM     10  C   UNL     1       6.293   5.247  15.774  0.00  0.00    +0.000 C 
ATOM     11  C   UNL     1       5.281   6.390  15.622  0.00  0.00    +0.000 C 
ENDBRANCH   8  10
ENDBRANCH   7   8
ENDBRANCH   1   7
BRANCH   4  12
ATOM     12  C   UNL     1       2.284   6.607  20.321  0.00  0.00    +0.000 C 
BRANCH  12  13
ATOM     13  C   UNL     1       1.594   7.890  20.640  0.00  0.00    +0.000 A 
ATOM     14  C   UNL     1       1.138   8.889  19.799  0.00  0.00    +0.000 A 
ATOM     15  C   UNL     1       0.390   9.814  20.579  0.00  0.00    +0.000 A 
ATOM     16  C   UNL     1      -0.358  10.969  20.277  0.00  0.00    +0.000 A 
ATOM     17  C   UNL     1      -1.032  11.635  21.306  0.00  0.00    +0.000 A 
ATOM     18  C   UNL     1      -0.957  11.178  22.619  0.00  0.00    +0.000 A 
ATOM     19  C   UNL     1      -0.204  10.041  22.945  0.00  0.00    +0.000 A 
ATOM     20  C   UNL     1       0.448   9.377  21.903  0.00  0.00    +0.000 A 
ATOM     21  N   UNL     1       1.212   8.231  21.915  0.00  0.00    +0.000 N 
ATOM     22  H   UNL     1       1.439   7.690  22.737  0.00  0.00    +0.000 HD
ENDBRANCH  12  13
ENDBRANCH   4  12
BRANCH   6  23
ATOM     23  C   UNL     1       1.261   3.662  19.035  0.00  0.00    +0.000 C 
BRANCH  23  24
ATOM     24  C   UNL     1       0.884   2.200  18.824  0.00  0.00    +0.000 C 
BRANCH  24  25
ATOM     25  O   UNL     1       2.015   1.411  18.482  0.00  0.00    +0.000 OA
ATOM     26  H   UNL     1       2.739   1.703  19.080  0.00  0.00    +0.000 HD
ENDBRANCH  24  25
ENDBRANCH  23  24
ENDBRANCH   6  23
TORSDOF 8
ENDMDL
MODEL 4
REMARK VINA RESULT:      -7.0      1.366      1.824
REMARK  Name = 
REMARK  10 active torsions:
REMARK  status: ('A' for Active; 'I' for Inactive)
REMARK    1  A    between atoms: C_1  and  C_2
REMARK    2  A    between atoms: C_2  and  C_3
REMARK    3  A    between atoms: C_2  and  C_4
REMARK    4  A    between atoms: C_4  and  C_5
REMARK    5  A    between atoms: C_5  and  N_6
REMARK    6  A    between atoms: N_9  and  C_10
REMARK    7  A    between atoms: C_10  and  C_11
REMARK    8  A    between atoms: C_21  and  C_22
REMARK    9  A    between atoms: C_22  and  C_23
REMARK   10  A    between atoms: C_23  and  O_24
REMARK                            x       y       z     vdW  Elec       q    Type
REMARK                         _______ _______ _______ _____ _____    ______ ____
ROOT
ATOM      1  N   UNL     1       4.858   3.800  17.635  0.00  0.00    +0.000 NA
ATOM      2  C   UNL     1       5.033   4.187  19.057  0.00  0.00    +0.000 C 
ATOM      3  C   UNL     1       4.966   5.708  19.342  0.00  0.00    +0.000 C 
ATOM      4  N   UNL     1       3.752   6.392  18.837  0.00  0.00    +0.000 NA
ATOM      5  C   UNL     1       3.497   5.958  17.446  0.00  0.00    +0.000 C 
ATOM      6  C   UNL     1       3.604   4.434  17.115  0.00  0.00    +0.000 C 
ENDROOT
BRANCH   1   7
ATOM      7  C   UNL     1       6.023   4.188  16.804  0.00  0.00    +0.000 C 
BRANCH   7   8
ATOM      8  C   UNL     1       6.128   3.498  15.430  0.00  0.00    +0.000 C 
BRANCH   8  10
ATOM      9  C   UNL     1       7.399   5.062  13.864  0.00  0.00    +0.000 C 
ATOM     10  C   UNL     1       6.052   4.420  14.196  0.00  0.00    +0.000 C 
ATOM     11  C   UNL     1       5.563   3.613  12.986  0.00  0.00    +0.000 C 
ENDBRANCH   8  10
ENDBRANCH   7   8
ENDBRANCH   1   7
BRANCH   4  12
ATOM     12  C   UNL     1       2.648   6.203  19.787  0.00  0.00    +0.000 C 
BRANCH  12  13
ATOM     13  C   UNL     1       1.976   7.457  20.235  0.00  0.00    +0.000 A 
ATOM     14  C   UNL     1       1.498   8.524  19.497  0.00  0.00    +0.000 A 
ATOM     15  C   UNL     1       0.782   9.382  20.376  0.00  0.00    +0.000 A 
ATOM     16  C   UNL     1       0.031  10.560  20.198  0.00  0.00    +0.000 A 
ATOM     17  C   UNL     1      -0.606  11.139  21.301  0.00  0.00    +0.000 A 
ATOM     18  C   UNL     1      -0.490  10.573  22.568  0.00  0.00    +0.000 A 
ATOM     19  C   UNL     1       0.267   9.411  22.772  0.00  0.00    +0.000 A 
ATOM     20  C   UNL     1       0.880   8.835  21.656  0.00  0.00    +0.000 A 
ATOM     21  N   UNL     1       1.637   7.690  21.546  0.00  0.00    +0.000 N 
ATOM     22  H   UNL     1       1.888   7.080  22.312  0.00  0.00    +0.000 HD
ENDBRANCH  12  13
ENDBRANCH   4  12
BRANCH   6  23
ATOM     23  C   UNL     1       2.332   3.678  17.573  0.00  0.00    +0.000 C 
BRANCH  23  24
ATOM     24  C   UNL     1       2.500   2.169  17.703  0.00  0.00    +0.000 C 
BRANCH  24  25
ATOM     25  O   UNL     1       1.506   1.600  18.544  0.00  0.00    +0.000 OA
ATOM     26  H   UNL     1       1.919   0.808  18.952  0.00  0.00    +0.000 HD
ENDBRANCH  24  25
ENDBRANCH  23  24
ENDBRANCH   6  23
TORSDOF 8
ENDMDL
MODEL 5
REMARK VINA RESULT:      -6.9      1.045      1.687
REMARK  Name = 
REMARK  10 active torsions:
REMARK  status: ('A' for Active; 'I' for Inactive)
REMARK    1  A    between atoms: C_1  and  C_2
REMARK    2  A    between atoms: C_2  and  C_3
REMARK    3  A    between atoms: C_2  and  C_4
REMARK    4  A    between atoms: C_4  and  C_5
REMARK    5  A    between atoms: C_5  and  N_6
REMARK    6  A    between atoms: N_9  and  C_10
REMARK    7  A    between atoms: C_10  and  C_11
REMARK    8  A    between atoms: C_21  and  C_22
REMARK    9  A    between atoms: C_22  and  C_23
REMARK   10  A    between atoms: C_23  and  O_24
REMARK                            x       y       z     vdW  Elec       q    Type
REMARK                         _______ _______ _______ _____ _____    ______ ____
ROOT
ATOM      1  N   UNL     1       4.606   4.073  17.739  0.00  0.00    +0.000 NA
ATOM      2  C   UNL     1       5.002   5.438  18.165  0.00  0.00    +0.000 C 
ATOM      3  C   UNL     1       3.968   6.552  17.864  0.00  0.00    +0.000 C 
ATOM      4  N   UNL     1       2.601   6.299  18.377  0.00  0.00    +0.000 NA
ATOM      5  C   UNL     1       2.209   4.912  18.047  0.00  0.00    +0.000 C 
ATOM      6  C   UNL     1       3.247   3.770  18.294  0.00  0.00    +0.000 C 
ENDROOT
BRANCH   1   7
ATOM      7  C   UNL     1       4.612   3.925  16.264  0.00  0.00    +0.000 C 
BRANCH   7   8
ATOM      8  C   UNL     1       6.000   3.900  15.596  0.00  0.00    +0.000 C 
BRANCH   8  10
ATOM      9  C   UNL     1       7.527   5.059  13.912  0.00  0.00    +0.000 C 
ATOM     10  C   UNL     1       6.107   4.583  14.218  0.00  0.00    +0.000 C 
ATOM     11  C   UNL     1       5.655   3.604  13.126  0.00  0.00    +0.000 C 
ENDBRANCH   8  10
ENDBRANCH   7   8
ENDBRANCH   1   7
BRANCH   4  12
ATOM     12  C   UNL     1       2.531   6.670  19.797  0.00  0.00    +0.000 C 
BRANCH  12  13
ATOM     13  C   UNL     1       1.687   7.862  20.100  0.00  0.00    +0.000 A 
ATOM     14  C   UNL     1       1.075   8.244  21.280  0.00  0.00    +0.000 A 
ATOM     15  C   UNL     1       0.541   9.548  21.097  0.00  0.00    +0.000 A 
ATOM     16  C   UNL     1      -0.117  10.464  21.942  0.00  0.00    +0.000 A 
ATOM     17  C   UNL     1      -0.475  11.721  21.442  0.00  0.00    +0.000 A 
ATOM     18  C   UNL     1      -0.204  12.065  20.120  0.00  0.00    +0.000 A 
ATOM     19  C   UNL     1       0.433  11.162  19.256  0.00  0.00    +0.000 A 
ATOM     20  C   UNL     1       0.800   9.919  19.777  0.00  0.00    +0.000 A 
ATOM     21  N   UNL     1       1.464   8.865  19.188  0.00  0.00    +0.000 N 
ATOM     22  H   UNL     1       1.777   8.837  18.228  0.00  0.00    +0.000 HD
ENDBRANCH  12  13
ENDBRANCH   4  12
BRANCH   6  23
ATOM     23  C   UNL     1       3.299   3.387  19.794  0.00  0.00    +0.000 C 
BRANCH  23  24
ATOM     24  C   UNL     1       4.281   2.271  20.132  0.00  0.00    +0.000 C 
BRANCH  24  25
ATOM     25  O   UNL     1       4.483   1.397  19.031  0.00  0.00    +0.000 OA
ATOM     26  H   UNL     1       4.112   1.860  18.247  0.00  0.00    +0.000 HD
ENDBRANCH  24  25
ENDBRANCH  23  24
ENDBRANCH   6  23
TORSDOF 8
ENDMDL
MODEL 6
REMARK VINA RESULT:      -6.9      4.397      5.819
REMARK  Name = 
REMARK  10 active torsions:
REMARK  status: ('A' for Active; 'I' for Inactive)
REMARK    1  A    between atoms: C_1  and  C_2
REMARK    2  A    between atoms: C_2  and  C_3
REMARK    3  A    between atoms: C_2  and  C_4
REMARK    4  A    between atoms: C_4  and  C_5
REMARK    5  A    between atoms: C_5  and  N_6
REMARK    6  A    between atoms: N_9  and  C_10
REMARK    7  A    between atoms: C_10  and  C_11
REMARK    8  A    between atoms: C_21  and  C_22
REMARK    9  A    between atoms: C_22  and  C_23
REMARK   10  A    between atoms: C_23  and  O_24
REMARK                            x       y       z     vdW  Elec       q    Type
REMARK                         _______ _______ _______ _____ _____    ______ ____
ROOT
ATOM      1  N   UNL     1       5.802   4.428  16.631  0.00  0.00    +0.000 NA
ATOM      2  C   UNL     1       7.258   4.709  16.579  0.00  0.00    +0.000 C 
ATOM      3  C   UNL     1       7.641   6.148  16.149  0.00  0.00    +0.000 C 
ATOM      4  N   UNL     1       7.002   7.231  16.933  0.00  0.00    +0.000 NA
ATOM      5  C   UNL     1       5.561   6.935  17.081  0.00  0.00    +0.000 C 
ATOM      6  C   UNL     1       5.139   5.481  17.467  0.00  0.00    +0.000 C 
ENDROOT
BRANCH   1   7
ATOM      7  C   UNL     1       5.195   4.377  15.280  0.00  0.00    +0.000 C 
BRANCH   7   8
ATOM      8  C   UNL     1       5.910   3.475  14.255  0.00  0.00    +0.000 C 
BRANCH   8  10
ATOM      9  C   UNL     1       7.206   4.346  12.235  0.00  0.00    +0.000 C 
ATOM     10  C   UNL     1       5.841   3.927  12.782  0.00  0.00    +0.000 C 
ATOM     11  C   UNL     1       5.280   2.786  11.924  0.00  0.00    +0.000 C 
ENDBRANCH   8  10
ENDBRANCH   7   8
ENDBRANCH   1   7
BRANCH   4  12
ATOM     12  C   UNL     1       7.750   7.445  18.179  0.00  0.00    +0.000 C 
BRANCH  12  13
ATOM     13  C   UNL     1       8.370   8.793  18.323  0.00  0.00    +0.000 A 
ATOM     14  C   UNL     1       8.268   9.911  17.515  0.00  0.00    +0.000 A 
ATOM     15  C   UNL     1       8.899  10.996  18.183  0.00  0.00    +0.000 A 
ATOM     16  C   UNL     1       9.051  12.367  17.896  0.00  0.00    +0.000 A 
ATOM     17  C   UNL     1       9.703  13.191  18.820  0.00  0.00    +0.000 A 
ATOM     18  C   UNL     1      10.213  12.667  20.005  0.00  0.00    +0.000 A 
ATOM     19  C   UNL     1      10.090  11.303  20.303  0.00  0.00    +0.000 A 
ATOM     20  C   UNL     1       9.420  10.498  19.378  0.00  0.00    +0.000 A 
ATOM     21  N   UNL     1       9.115   9.155  19.419  0.00  0.00    +0.000 N 
ATOM     22  H   UNL     1       9.371   8.522  20.163  0.00  0.00    +0.000 HD
ENDBRANCH  12  13
ENDBRANCH   4  12
BRANCH   6  23
ATOM     23  C   UNL     1       5.335   5.233  18.984  0.00  0.00    +0.000 C 
BRANCH  23  24
ATOM     24  C   UNL     1       4.582   4.027  19.534  0.00  0.00    +0.000 C 
BRANCH  24  25
ATOM     25  O   UNL     1       5.223   2.807  19.192  0.00  0.00    +0.000 OA
ATOM     26  H   UNL     1       4.557   2.281  18.697  0.00  0.00    +0.000 HD
ENDBRANCH  24  25
ENDBRANCH  23  24
ENDBRANCH   6  23
TORSDOF 8
ENDMDL
MODEL 7
REMARK VINA RESULT:      -6.9      1.268      1.481
REMARK  Name = 
REMARK  10 active torsions:
REMARK  status: ('A' for Active; 'I' for Inactive)
REMARK    1  A    between atoms: C_1  and  C_2
REMARK    2  A    between atoms: C_2  and  C_3
REMARK    3  A    between atoms: C_2  and  C_4
REMARK    4  A    between atoms: C_4  and  C_5
REMARK    5  A    between atoms: C_5  and  N_6
REMARK    6  A    between atoms: N_9  and  C_10
REMARK    7  A    between atoms: C_10  and  C_11
REMARK    8  A    between atoms: C_21  and  C_22
REMARK    9  A    between atoms: C_22  and  C_23
REMARK   10  A    between atoms: C_23  and  O_24
REMARK                            x       y       z     vdW  Elec       q    Type
REMARK                         _______ _______ _______ _____ _____    ______ ____
ROOT
ATOM      1  N   UNL     1       4.830   4.016  17.484  0.00  0.00    +0.000 NA
ATOM      2  C   UNL     1       5.205   5.307  18.113  0.00  0.00    +0.000 C 
ATOM      3  C   UNL     1       4.193   6.462  17.909  0.00  0.00    +0.000 C 
ATOM      4  N   UNL     1       2.798   6.157  18.306  0.00  0.00    +0.000 NA
ATOM      5  C   UNL     1       2.422   4.832  17.769  0.00  0.00    +0.000 C 
ATOM      6  C   UNL     1       3.441   3.656  17.916  0.00  0.00    +0.000 C 
ENDROOT
BRANCH   1   7
ATOM      7  C   UNL     1       4.918   4.070  16.005  0.00  0.00    +0.000 C 
BRANCH   7   8
ATOM      8  C   UNL     1       6.319   4.345  15.425  0.00  0.00    +0.000 C 
BRANCH   8  10
ATOM      9  C   UNL     1       7.785   5.115  13.483  0.00  0.00    +0.000 C 
ATOM     10  C   UNL     1       6.378   4.717  13.930  0.00  0.00    +0.000 C 
ATOM     11  C   UNL     1       5.897   3.527  13.088  0.00  0.00    +0.000 C 
ENDBRANCH   8  10
ENDBRANCH   7   8
ENDBRANCH   1   7
BRANCH   4  12
ATOM     12  C   UNL     1       2.649   6.333  19.757  0.00  0.00    +0.000 C 
BRANCH  12  13
ATOM     13  C   UNL     1       1.948   7.581  20.176  0.00  0.00    +0.000 A 
ATOM     14  C   UNL     1       1.419   8.604  19.411  0.00  0.00    +0.000 A 
ATOM     15  C   UNL     1       0.696   9.472  20.275  0.00  0.00    +0.000 A 
ATOM     16  C   UNL     1      -0.096  10.619  20.072  0.00  0.00    +0.000 A 
ATOM     17  C   UNL     1      -0.725  11.219  21.168  0.00  0.00    +0.000 A 
ATOM     18  C   UNL     1      -0.563  10.704  22.451  0.00  0.00    +0.000 A 
ATOM     19  C   UNL     1       0.236   9.574  22.680  0.00  0.00    +0.000 A 
ATOM     20  C   UNL     1       0.841   8.977  21.571  0.00  0.00    +0.000 A 
ATOM     21  N   UNL     1       1.632   7.852  21.485  0.00  0.00    +0.000 N 
ATOM     22  H   UNL     1       1.920   7.280  22.266  0.00  0.00    +0.000 HD
ENDBRANCH  12  13
ENDBRANCH   4  12
BRANCH   6  23
ATOM     23  C   UNL     1       3.407   3.072  19.351  0.00  0.00    +0.000 C 
BRANCH  23  24
ATOM     24  C   UNL     1       2.129   2.318  19.701  0.00  0.00    +0.000 C 
BRANCH  24  25
ATOM     25  O   UNL     1       1.313   3.056  20.599  0.00  0.00    +0.000 OA
ATOM     26  H   UNL     1       1.072   3.883  20.127  0.00  0.00    +0.000 HD
ENDBRANCH  24  25
ENDBRANCH  23  24
ENDBRANCH   6  23
TORSDOF 8
ENDMDL
MODEL 8
REMARK VINA RESULT:      -6.8      1.074      1.300
REMARK  Name = 
REMARK  10 active torsions:
REMARK  status: ('A' for Active; 'I' for Inactive)
REMARK    1  A    between atoms: C_1  and  C_2
REMARK    2  A    between atoms: C_2  and  C_3
REMARK    3  A    between atoms: C_2  and  C_4
REMARK    4  A    between atoms: C_4  and  C_5
REMARK    5  A    between atoms: C_5  and  N_6
REMARK    6  A    between atoms: N_9  and  C_10
REMARK    7  A    between atoms: C_10  and  C_11
REMARK    8  A    between atoms: C_21  and  C_22
REMARK    9  A    between atoms: C_22  and  C_23
REMARK   10  A    between atoms: C_23  and  O_24
REMARK                            x       y       z     vdW  Elec       q    Type
REMARK                         _______ _______ _______ _____ _____    ______ ____
ROOT
ATOM      1  N   UNL     1       4.578   4.335  17.840  0.00  0.00    +0.000 NA
ATOM      2  C   UNL     1       4.886   5.717  18.282  0.00  0.00    +0.000 C 
ATOM      3  C   UNL     1       3.756   6.752  18.058  0.00  0.00    +0.000 C 
ATOM      4  N   UNL     1       2.438   6.381  18.626  0.00  0.00    +0.000 NA
ATOM      5  C   UNL     1       2.141   4.975  18.279  0.00  0.00    +0.000 C 
ATOM      6  C   UNL     1       3.275   3.914  18.448  0.00  0.00    +0.000 C 
ENDROOT
BRANCH   1   7
ATOM      7  C   UNL     1       4.525   4.221  16.363  0.00  0.00    +0.000 C 
BRANCH   7   8
ATOM      8  C   UNL     1       5.640   3.381  15.712  0.00  0.00    +0.000 C 
BRANCH   8  10
ATOM      9  C   UNL     1       6.111   3.741  13.230  0.00  0.00    +0.000 C 
ATOM     10  C   UNL     1       6.511   4.099  14.661  0.00  0.00    +0.000 C 
ATOM     11  C   UNL     1       6.398   5.617  14.855  0.00  0.00    +0.000 C 
ENDBRANCH   8  10
ENDBRANCH   7   8
ENDBRANCH   1   7
BRANCH   4  12
ATOM     12  C   UNL     1       2.408   6.714  20.057  0.00  0.00    +0.000 C 
BRANCH  12  13
ATOM     13  C   UNL     1       1.680   7.970  20.400  0.00  0.00    +0.000 A 
ATOM     14  C   UNL     1       1.178   8.961  19.577  0.00  0.00    +0.000 A 
ATOM     15  C   UNL     1       0.412   9.853  20.377  0.00  0.00    +0.000 A 
ATOM     16  C   UNL     1      -0.378  10.985  20.100  0.00  0.00    +0.000 A 
ATOM     17  C   UNL     1      -1.059  11.618  21.145  0.00  0.00    +0.000 A 
ATOM     18  C   UNL     1      -0.948  11.150  22.452  0.00  0.00    +0.000 A 
ATOM     19  C   UNL     1      -0.152  10.036  22.755  0.00  0.00    +0.000 A 
ATOM     20  C   UNL     1       0.505   9.405  21.696  0.00  0.00    +0.000 A 
ATOM     21  N   UNL     1       1.307   8.285  21.684  0.00  0.00    +0.000 N 
ATOM     22  H   UNL     1       1.565   7.743  22.497  0.00  0.00    +0.000 HD
ENDBRANCH  12  13
ENDBRANCH   4  12
BRANCH   6  23
ATOM     23  C   UNL     1       3.429   3.502  19.934  0.00  0.00    +0.000 C 
BRANCH  23  24
ATOM     24  C   UNL     1       4.159   2.183  20.158  0.00  0.00    +0.000 C 
BRANCH  24  25
ATOM     25  O   UNL     1       4.527   1.572  18.929  0.00  0.00    +0.000 OA
ATOM     26  H   UNL     1       5.405   1.945  18.694  0.00  0.00    +0.000 HD
ENDBRANCH  24  25
ENDBRANCH  23  24
ENDBRANCH   6  23
TORSDOF 8
ENDMDL
MODEL 9
REMARK VINA RESULT:      -6.8      1.618      2.188
REMARK  Name = 
REMARK  10 active torsions:
REMARK  status: ('A' for Active; 'I' for Inactive)
REMARK    1  A    between atoms: C_1  and  C_2
REMARK    2  A    between atoms: C_2  and  C_3
REMARK    3  A    between atoms: C_2  and  C_4
REMARK    4  A    between atoms: C_4  and  C_5
REMARK    5  A    between atoms: C_5  and  N_6
REMARK    6  A    between atoms: N_9  and  C_10
REMARK    7  A    between atoms: C_10  and  C_11
REMARK    8  A    between atoms: C_21  and  C_22
REMARK    9  A    between atoms: C_22  and  C_23
REMARK   10  A    between atoms: C_23  and  O_24
REMARK                            x       y       z     vdW  Elec       q    Type
REMARK                         _______ _______ _______ _____ _____    ______ ____
ROOT
ATOM      1  N   UNL     1       4.436   4.006  18.381  0.00  0.00    +0.000 NA
ATOM      2  C   UNL     1       4.828   5.372  18.807  0.00  0.00    +0.000 C 
ATOM      3  C   UNL     1       3.862   6.504  18.376  0.00  0.00    +0.000 C 
ATOM      4  N   UNL     1       2.445   6.303  18.759  0.00  0.00    +0.000 NA
ATOM      5  C   UNL     1       2.046   4.918  18.429  0.00  0.00    +0.000 C 
ATOM      6  C   UNL     1       3.021   3.757  18.808  0.00  0.00    +0.000 C 
ENDROOT
BRANCH   1   7
ATOM      7  C   UNL     1       4.580   3.815  16.918  0.00  0.00    +0.000 C 
BRANCH   7   8
ATOM      8  C   UNL     1       6.023   3.818  16.378  0.00  0.00    +0.000 C 
BRANCH   8  10
ATOM      9  C   UNL     1       6.019   3.896  13.827  0.00  0.00    +0.000 C 
ATOM     10  C   UNL     1       6.280   4.671  15.119  0.00  0.00    +0.000 C 
ATOM     11  C   UNL     1       5.382   5.915  15.153  0.00  0.00    +0.000 C 
ENDBRANCH   8  10
ENDBRANCH   7   8
ENDBRANCH   1   7
BRANCH   4  12
ATOM     12  C   UNL     1       2.249   6.718  20.155  0.00  0.00    +0.000 C 
BRANCH  12  13
ATOM     13  C   UNL     1       1.484   7.986  20.338  0.00  0.00    +0.000 A 
ATOM     14  C   UNL     1       0.845   8.486  21.458  0.00  0.00    +0.000 A 
ATOM     15  C   UNL     1       0.421   9.812  21.167  0.00  0.00    +0.000 A 
ATOM     16  C   UNL     1      -0.205  10.826  21.918  0.00  0.00    +0.000 A 
ATOM     17  C   UNL     1      -0.442  12.070  21.323  0.00  0.00    +0.000 A 
ATOM     18  C   UNL     1      -0.080  12.307  20.000  0.00  0.00    +0.000 A 
ATOM     19  C   UNL     1       0.528  11.306  19.228  0.00  0.00    +0.000 A 
ATOM     20  C   UNL     1       0.774  10.076  19.843  0.00  0.00    +0.000 A 
ATOM     21  N   UNL     1       1.384   8.941  19.357  0.00  0.00    +0.000 N 
ATOM     22  H   UNL     1       1.741   8.827  18.418  0.00  0.00    +0.000 HD
ENDBRANCH  12  13
ENDBRANCH   4  12
BRANCH   6  23
ATOM     23  C   UNL     1       2.916   3.416  20.316  0.00  0.00    +0.000 C 
BRANCH  23  24
ATOM     24  C   UNL     1       1.495   3.197  20.821  0.00  0.00    +0.000 C 
BRANCH  24  25
ATOM     25  O   UNL     1       1.480   2.497  22.058  0.00  0.00    +0.000 OA
ATOM     26  H   UNL     1       1.372   3.181  22.754  0.00  0.00    +0.000 HD
ENDBRANCH  24  25
ENDBRANCH  23  24
ENDBRANCH   6  23
TORSDOF 8
ENDMDL
