MODEL 1
REMARK VINA RESULT:      -9.3      0.000      0.000
REMARK  Name = 
REMARK  5 active torsions:
REMARK  status: ('A' for Active; 'I' for Inactive)
REMARK    1  A    between atoms: C_1  and  N_2
REMARK    2  A    between atoms: C_6  and  C_7
REMARK    3  A    between atoms: C_10  and  C_11
REMARK    4  A    between atoms: N_15  and  S_16
REMARK    5  A    between atoms: S_16  and  C_19
REMARK                            x       y       z     vdW  Elec       q    Type
REMARK                         _______ _______ _______ _____ _____    ______ ____
ROOT
ATOM      1  C   UNL     1       1.514   8.197  19.594  0.00  0.00    +0.000 A 
ATOM      2  C   UNL     1       1.553   7.207  20.582  0.00  0.00    +0.000 A 
ATOM      3  C   UNL     1       2.120   5.960  20.303  0.00  0.00    +0.000 A 
ATOM      4  C   UNL     1       2.617   5.735  19.027  0.00  0.00    +0.000 A 
ATOM      5  N   UNL     1       3.264   4.526  18.694  0.00  0.00    +0.000 N 
ATOM      6  N   UNL     1       2.598   6.644  18.043  0.00  0.00    +0.000 NA
ATOM      7  C   UNL     1       2.042   7.845  18.349  0.00  0.00    +0.000 A 
ATOM      8  H   UNL     1       2.854   3.696  19.117  0.00  0.00    +0.000 HD
ENDROOT
BRANCH   1  12
ATOM      9  C   UNL     1      -0.249  11.515  20.778  0.00  0.00    +0.000 A 
ATOM     10  C   UNL     1       0.620  11.855  19.756  0.00  0.00    +0.000 A 
ATOM     11  C   UNL     1       1.311  10.734  19.211  0.00  0.00    +0.000 A 
ATOM     12  C   UNL     1       0.971   9.544  19.829  0.00  0.00    +0.000 A 
ATOM     13  S   UNL     1      -0.213   9.820  21.045  0.00  0.00    +0.000 S 
BRANCH   9  19
ATOM     14  C   UNL     1      -6.214  14.920  23.732  0.00  0.00    +0.000 C 
ATOM     15  N   UNL     1      -4.926  14.496  23.245  0.00  0.00    +0.000 N 
ATOM     16  C   UNL     1      -4.764  13.545  22.158  0.00  0.00    +0.000 C 
ATOM     17  C   UNL     1      -3.288  13.306  22.157  0.00  0.00    +0.000 A 
ATOM     18  C   UNL     1      -2.518  12.489  21.341  0.00  0.00    +0.000 A 
ATOM     19  C   UNL     1      -1.126  12.408  21.567  0.00  0.00    +0.000 A 
ATOM     20  C   UNL     1      -0.559  13.179  22.615  0.00  0.00    +0.000 A 
ATOM     21  C   UNL     1      -1.338  13.999  23.435  0.00  0.00    +0.000 A 
ATOM     22  C   UNL     1      -2.692  14.041  23.181  0.00  0.00    +0.000 A 
ATOM     23  C   UNL     1      -3.738  14.782  23.893  0.00  0.00    +0.000 C 
ATOM     24  O   UNL     1      -3.556  15.481  24.870  0.00  0.00    +0.000 OA
ENDBRANCH   9  19
ENDBRANCH   1  12
BRANCH   5  25
ATOM     25  S   UNL     1       4.926   4.505  18.976  0.00  0.00    +0.000 S 
ATOM     26  O   UNL     1       5.346   5.716  19.646  0.00  0.00    +0.000 OA
ATOM     27  O   UNL     1       5.212   3.213  19.567  0.00  0.00    +0.000 OA
BRANCH  25  28
ATOM     28  C   UNL     1       5.627   4.499  17.354  0.00  0.00    +0.000 A 
ATOM     29  C   UNL     1       4.803   4.423  16.224  0.00  0.00    +0.000 A 
ATOM     30  C   UNL     1       5.370   4.533  14.952  0.00  0.00    +0.000 A 
ATOM     31  C   UNL     1       6.745   4.717  14.822  0.00  0.00    +0.000 A 
ATOM     32  F   UNL     1       7.281   4.835  13.601  0.00  0.00    +0.000 F 
ATOM     33  C   UNL     1       7.567   4.791  15.941  0.00  0.00    +0.000 A 
ATOM     34  C   UNL     1       7.000   4.682  17.208  0.00  0.00    +0.000 A 
ATOM     35  F   UNL     1       7.805   4.762  18.275  0.00  0.00    +0.000 F 
ENDBRANCH  25  28
ENDBRANCH   5  25
TORSDOF 4
ENDMDL
MODEL 2
REMARK VINA RESULT:      -9.2      1.422      1.888
REMARK  Name = 
REMARK  5 active torsions:
REMARK  status: ('A' for Active; 'I' for Inactive)
REMARK    1  A    between atoms: C_1  and  N_2
REMARK    2  A    between atoms: C_6  and  C_7
REMARK    3  A    between atoms: C_10  and  C_11
REMARK    4  A    between atoms: N_15  and  S_16
REMARK    5  A    between atoms: S_16  and  C_19
REMARK                            x       y       z     vdW  Elec       q    Type
REMARK                         _______ _______ _______ _____ _____    ______ ____
ROOT
ATOM      1  C   UNL     1       1.642   8.121  19.601  0.00  0.00    +0.000 A 
ATOM      2  C   UNL     1       1.680   7.136  20.593  0.00  0.00    +0.000 A 
ATOM      3  C   UNL     1       2.220   5.878  20.312  0.00  0.00    +0.000 A 
ATOM      4  C   UNL     1       2.690   5.637  19.028  0.00  0.00    +0.000 A 
ATOM      5  N   UNL     1       3.309   4.415  18.691  0.00  0.00    +0.000 N 
ATOM      6  N   UNL     1       2.670   6.541  18.039  0.00  0.00    +0.000 NA
ATOM      7  C   UNL     1       2.142   7.753  18.348  0.00  0.00    +0.000 A 
ATOM      8  H   UNL     1       2.892   3.594  19.126  0.00  0.00    +0.000 HD
ENDROOT
BRANCH   1  12
ATOM      9  C   UNL     1       0.259  11.572  20.906  0.00  0.00    +0.000 A 
ATOM     10  C   UNL     1       0.553  11.730  19.562  0.00  0.00    +0.000 A 
ATOM     11  C   UNL     1       1.041  10.538  18.952  0.00  0.00    +0.000 A 
ATOM     12  C   UNL     1       1.126   9.479  19.837  0.00  0.00    +0.000 A 
ATOM     13  S   UNL     1       0.576   9.957  21.394  0.00  0.00    +0.000 S 
BRANCH   9  19
ATOM     14  C   UNL     1      -1.132  17.974  24.508  0.00  0.00    +0.000 C 
ATOM     15  N   UNL     1      -0.959  16.619  24.050  0.00  0.00    +0.000 N 
ATOM     16  C   UNL     1       0.004  16.245  23.028  0.00  0.00    +0.000 C 
ATOM     17  C   UNL     1      -0.323  14.806  22.789  0.00  0.00    +0.000 A 
ATOM     18  C   UNL     1       0.255  13.893  21.918  0.00  0.00    +0.000 A 
ATOM     19  C   UNL     1      -0.265  12.582  21.851  0.00  0.00    +0.000 A 
ATOM     20  C   UNL     1      -1.357  12.237  22.691  0.00  0.00    +0.000 A 
ATOM     21  C   UNL     1      -1.937  13.160  23.565  0.00  0.00    +0.000 A 
ATOM     22  C   UNL     1      -1.400  14.429  23.590  0.00  0.00    +0.000 A 
ATOM     23  C   UNL     1      -1.823  15.591  24.379  0.00  0.00    +0.000 C 
ATOM     24  O   UNL     1      -2.768  15.609  25.142  0.00  0.00    +0.000 OA
ENDBRANCH   9  19
ENDBRANCH   1  12
BRANCH   5  25
ATOM     25  S   UNL     1       4.975   4.365  18.945  0.00  0.00    +0.000 S 
ATOM     26  O   UNL     1       5.424   5.559  19.628  0.00  0.00    +0.000 OA
ATOM     27  O   UNL     1       5.252   3.059  19.509  0.00  0.00    +0.000 OA
BRANCH  25  28
ATOM     28  C   UNL     1       5.649   4.376  17.311  0.00  0.00    +0.000 A 
ATOM     29  C   UNL     1       4.810   4.257  16.196  0.00  0.00    +0.000 A 
ATOM     30  C   UNL     1       5.351   4.381  14.914  0.00  0.00    +0.000 A 
ATOM     31  C   UNL     1       6.715   4.622  14.759  0.00  0.00    +0.000 A 
ATOM     32  F   UNL     1       7.225   4.753  13.528  0.00  0.00    +0.000 F 
ATOM     33  C   UNL     1       7.551   4.738  15.863  0.00  0.00    +0.000 A 
ATOM     34  C   UNL     1       7.010   4.616  17.140  0.00  0.00    +0.000 A 
ATOM     35  F   UNL     1       7.829   4.737  18.193  0.00  0.00    +0.000 F 
ENDBRANCH  25  28
ENDBRANCH   5  25
TORSDOF 4
ENDMDL
MODEL 3
REMARK VINA RESULT:      -9.2      2.819      3.526
REMARK  Name = 
REMARK  5 active torsions:
REMARK  status: ('A' for Active; 'I' for Inactive)
REMARK    1  A    between atoms: C_1  and  N_2
REMARK    2  A    between atoms: C_6  and  C_7
REMARK    3  A    between atoms: C_10  and  C_11
REMARK    4  A    between atoms: N_15  and  S_16
REMARK    5  A    between atoms: S_16  and  C_19
REMARK                            x       y       z     vdW  Elec       q    Type
REMARK                         _______ _______ _______ _____ _____    ______ ____
ROOT
ATOM      1  C   UNL     1       1.577   8.028  19.977  0.00  0.00    +0.000 A 
ATOM      2  C   UNL     1       1.588   6.921  20.832  0.00  0.00    +0.000 A 
ATOM      3  C   UNL     1       2.130   5.707  20.402  0.00  0.00    +0.000 A 
ATOM      4  C   UNL     1       2.630   5.632  19.109  0.00  0.00    +0.000 A 
ATOM      5  N   UNL     1       3.253   4.461  18.629  0.00  0.00    +0.000 N 
ATOM      6  N   UNL     1       2.637   6.658  18.246  0.00  0.00    +0.000 NA
ATOM      7  C   UNL     1       2.105   7.823  18.699  0.00  0.00    +0.000 A 
ATOM      8  H   UNL     1       2.822   3.593  18.943  0.00  0.00    +0.000 HD
ENDROOT
BRANCH   1  12
ATOM      9  C   UNL     1       0.335  11.744  20.393  0.00  0.00    +0.000 A 
ATOM     10  C   UNL     1      -0.019  11.062  21.544  0.00  0.00    +0.000 A 
ATOM     11  C   UNL     1       0.398   9.699  21.539  0.00  0.00    +0.000 A 
ATOM     12  C   UNL     1       1.061   9.346  20.377  0.00  0.00    +0.000 A 
ATOM     13  S   UNL     1       1.187  10.701  19.328  0.00  0.00    +0.000 S 
BRANCH   9  19
ATOM     14  C   UNL     1       0.818  18.630  17.522  0.00  0.00    +0.000 C 
ATOM     15  N   UNL     1       0.559  17.425  18.267  0.00  0.00    +0.000 N 
ATOM     16  C   UNL     1       1.464  16.288  18.277  0.00  0.00    +0.000 C 
ATOM     17  C   UNL     1       0.681  15.259  19.025  0.00  0.00    +0.000 A 
ATOM     18  C   UNL     1       1.016  13.954  19.362  0.00  0.00    +0.000 A 
ATOM     19  C   UNL     1       0.074  13.159  20.053  0.00  0.00    +0.000 A 
ATOM     20  C   UNL     1      -1.181  13.728  20.393  0.00  0.00    +0.000 A 
ATOM     21  C   UNL     1      -1.514  15.042  20.050  0.00  0.00    +0.000 A 
ATOM     22  C   UNL     1      -0.567  15.776  19.371  0.00  0.00    +0.000 A 
ATOM     23  C   UNL     1      -0.656  17.151  18.868  0.00  0.00    +0.000 C 
ATOM     24  O   UNL     1      -1.635  17.865  18.961  0.00  0.00    +0.000 OA
ENDBRANCH   9  19
ENDBRANCH   1  12
BRANCH   5  25
ATOM     25  S   UNL     1       4.912   4.368  18.912  0.00  0.00    +0.000 S 
ATOM     26  O   UNL     1       5.373   5.534  19.633  0.00  0.00    +0.000 OA
ATOM     27  O   UNL     1       5.149   3.043  19.449  0.00  0.00    +0.000 OA
BRANCH  25  28
ATOM     28  C   UNL     1       5.617   4.404  17.293  0.00  0.00    +0.000 A 
ATOM     29  C   UNL     1       4.797   4.343  16.159  0.00  0.00    +0.000 A 
ATOM     30  C   UNL     1       5.366   4.486  14.891  0.00  0.00    +0.000 A 
ATOM     31  C   UNL     1       6.739   4.687  14.769  0.00  0.00    +0.000 A 
ATOM     32  F   UNL     1       7.277   4.837  13.551  0.00  0.00    +0.000 F 
ATOM     33  C   UNL     1       7.557   4.746  15.891  0.00  0.00    +0.000 A 
ATOM     34  C   UNL     1       6.988   4.604  17.154  0.00  0.00    +0.000 A 
ATOM     35  F   UNL     1       7.790   4.669  18.224  0.00  0.00    +0.000 F 
ENDBRANCH  25  28
ENDBRANCH   5  25
TORSDOF 4
ENDMDL
MODEL 4
REMARK VINA RESULT:      -9.1      2.260      2.689
REMARK  Name = 
REMARK  5 active torsions:
REMARK  status: ('A' for Active; 'I' for Inactive)
REMARK    1  A    between atoms: C_1  and  N_2
REMARK    2  A    between atoms: C_6  and  C_7
REMARK    3  A    between atoms: C_10  and  C_11
REMARK    4  A    between atoms: N_15  and  S_16
REMARK    5  A    between atoms: S_16  and  C_19
REMARK                            x       y       z     vdW  Elec       q    Type
REMARK                         _______ _______ _______ _____ _____    ______ ____
ROOT
ATOM      1  C   UNL     1       1.476   7.734  20.381  0.00  0.00    +0.000 A 
ATOM      2  C   UNL     1       1.509   6.521  21.077  0.00  0.00    +0.000 A 
ATOM      3  C   UNL     1       2.095   5.394  20.494  0.00  0.00    +0.000 A 
ATOM      4  C   UNL     1       2.617   5.513  19.212  0.00  0.00    +0.000 A 
ATOM      5  N   UNL     1       3.282   4.437  18.588  0.00  0.00    +0.000 N 
ATOM      6  N   UNL     1       2.603   6.647  18.499  0.00  0.00    +0.000 NA
ATOM      7  C   UNL     1       2.030   7.723  19.097  0.00  0.00    +0.000 A 
ATOM      8  H   UNL     1       2.875   3.523  18.772  0.00  0.00    +0.000 HD
ENDROOT
BRANCH   1  12
ATOM      9  C   UNL     1       0.004  11.284  21.249  0.00  0.00    +0.000 A 
ATOM     10  C   UNL     1      -0.135  10.495  22.378  0.00  0.00    +0.000 A 
ATOM     11  C   UNL     1       0.387   9.179  22.211  0.00  0.00    +0.000 A 
ATOM     12  C   UNL     1       0.914   8.969  20.949  0.00  0.00    +0.000 A 
ATOM     13  S   UNL     1       0.786  10.400  20.004  0.00  0.00    +0.000 S 
BRANCH   9  19
ATOM     14  C   UNL     1      -1.251  18.058  18.345  0.00  0.00    +0.000 C 
ATOM     15  N   UNL     1      -1.042  16.883  19.152  0.00  0.00    +0.000 N 
ATOM     16  C   UNL     1      -0.273  15.736  18.699  0.00  0.00    +0.000 C 
ATOM     17  C   UNL     1      -0.500  14.744  19.793  0.00  0.00    +0.000 A 
ATOM     18  C   UNL     1      -0.023  13.448  19.935  0.00  0.00    +0.000 A 
ATOM     19  C   UNL     1      -0.415  12.690  21.060  0.00  0.00    +0.000 A 
ATOM     20  C   UNL     1      -1.275  13.287  22.019  0.00  0.00    +0.000 A 
ATOM     21  C   UNL     1      -1.754  14.591  21.871  0.00  0.00    +0.000 A 
ATOM     22  C   UNL     1      -1.350  15.289  20.754  0.00  0.00    +0.000 A 
ATOM     23  C   UNL     1      -1.717  16.646  20.336  0.00  0.00    +0.000 C 
ATOM     24  O   UNL     1      -2.486  17.376  20.930  0.00  0.00    +0.000 OA
ENDBRANCH   9  19
ENDBRANCH   1  12
BRANCH   5  25
ATOM     25  S   UNL     1       4.940   4.354  18.887  0.00  0.00    +0.000 S 
ATOM     26  O   UNL     1       5.384   5.516  19.626  0.00  0.00    +0.000 OA
ATOM     27  O   UNL     1       5.182   3.025  19.412  0.00  0.00    +0.000 OA
BRANCH  25  28
ATOM     28  C   UNL     1       5.660   4.414  17.275  0.00  0.00    +0.000 A 
ATOM     29  C   UNL     1       4.853   4.348  16.133  0.00  0.00    +0.000 A 
ATOM     30  C   UNL     1       5.432   4.510  14.872  0.00  0.00    +0.000 A 
ATOM     31  C   UNL     1       6.803   4.735  14.765  0.00  0.00    +0.000 A 
ATOM     32  F   UNL     1       7.351   4.902  13.555  0.00  0.00    +0.000 F 
ATOM     33  C   UNL     1       7.609   4.798  15.896  0.00  0.00    +0.000 A 
ATOM     34  C   UNL     1       7.029   4.638  17.152  0.00  0.00    +0.000 A 
ATOM     35  F   UNL     1       7.819   4.708  18.231  0.00  0.00    +0.000 F 
ENDBRANCH  25  28
ENDBRANCH   5  25
TORSDOF 4
ENDMDL
MODEL 5
REMARK VINA RESULT:      -9.1      0.806      1.485
REMARK  Name = 
REMARK  5 active torsions:
REMARK  status: ('A' for Active; 'I' for Inactive)
REMARK    1  A    between atoms: C_1  and  N_2
REMARK    2  A    between atoms: C_6  and  C_7
REMARK    3  A    between atoms: C_10  and  C_11
REMARK    4  A    between atoms: N_15  and  S_16
REMARK    5  A    between atoms: S_16  and  C_19
REMARK                            x       y       z     vdW  Elec       q    Type
REMARK                         _______ _______ _______ _____ _____    ______ ____
ROOT
ATOM      1  C   UNL     1       1.557   8.136  19.600  0.00  0.00    +0.000 A 
ATOM      2  C   UNL     1       1.602   7.147  20.589  0.00  0.00    +0.000 A 
ATOM      3  C   UNL     1       2.170   5.901  20.308  0.00  0.00    +0.000 A 
ATOM      4  C   UNL     1       2.661   5.675  19.030  0.00  0.00    +0.000 A 
ATOM      5  N   UNL     1       3.308   4.467  18.695  0.00  0.00    +0.000 N 
ATOM      6  N   UNL     1       2.636   6.584  18.045  0.00  0.00    +0.000 NA
ATOM      7  C   UNL     1       2.080   7.784  18.352  0.00  0.00    +0.000 A 
ATOM      8  H   UNL     1       2.902   3.637  19.121  0.00  0.00    +0.000 HD
ENDROOT
BRANCH   1  12
ATOM      9  C   UNL     1      -0.197  11.455  20.795  0.00  0.00    +0.000 A 
ATOM     10  C   UNL     1       0.650  11.792  19.754  0.00  0.00    +0.000 A 
ATOM     11  C   UNL     1       1.335  10.669  19.204  0.00  0.00    +0.000 A 
ATOM     12  C   UNL     1       1.012   9.482  19.836  0.00  0.00    +0.000 A 
ATOM     13  S   UNL     1      -0.149   9.762  21.073  0.00  0.00    +0.000 S 
BRANCH   9  19
ATOM     14  C   UNL     1      -2.661  16.835  25.366  0.00  0.00    +0.000 C 
ATOM     15  N   UNL     1      -2.437  15.680  24.534  0.00  0.00    +0.000 N 
ATOM     16  C   UNL     1      -1.112  15.168  24.228  0.00  0.00    +0.000 C 
ATOM     17  C   UNL     1      -1.403  14.107  23.216  0.00  0.00    +0.000 A 
ATOM     18  C   UNL     1      -0.537  13.256  22.543  0.00  0.00    +0.000 A 
ATOM     19  C   UNL     1      -1.062  12.350  21.595  0.00  0.00    +0.000 A 
ATOM     20  C   UNL     1      -2.464  12.331  21.373  0.00  0.00    +0.000 A 
ATOM     21  C   UNL     1      -3.332  13.191  22.053  0.00  0.00    +0.000 A 
ATOM     22  C   UNL     1      -2.773  14.061  22.963  0.00  0.00    +0.000 A 
ATOM     23  C   UNL     1      -3.433  15.080  23.785  0.00  0.00    +0.000 C 
ATOM     24  O   UNL     1      -4.621  15.332  23.763  0.00  0.00    +0.000 OA
ENDBRANCH   9  19
ENDBRANCH   1  12
BRANCH   5  25
ATOM     25  S   UNL     1       4.972   4.449  18.970  0.00  0.00    +0.000 S 
ATOM     26  O   UNL     1       5.391   5.658  19.645  0.00  0.00    +0.000 OA
ATOM     27  O   UNL     1       5.264   3.154  19.552  0.00  0.00    +0.000 OA
BRANCH  25  28
ATOM     28  C   UNL     1       5.665   4.455  17.345  0.00  0.00    +0.000 A 
ATOM     29  C   UNL     1       4.840   4.329  16.220  0.00  0.00    +0.000 A 
ATOM     30  C   UNL     1       5.397   4.449  14.944  0.00  0.00    +0.000 A 
ATOM     31  C   UNL     1       6.762   4.691  14.805  0.00  0.00    +0.000 A 
ATOM     32  F   UNL     1       7.287   4.818  13.580  0.00  0.00    +0.000 F 
ATOM     33  C   UNL     1       7.584   4.814  15.919  0.00  0.00    +0.000 A 
ATOM     34  C   UNL     1       7.028   4.696  17.189  0.00  0.00    +0.000 A 
ATOM     35  F   UNL     1       7.833   4.823  18.252  0.00  0.00    +0.000 F 
ENDBRANCH  25  28
ENDBRANCH   5  25
TORSDOF 4
ENDMDL
MODEL 6
REMARK VINA RESULT:      -9.0      2.393      2.719
REMARK  Name = 
REMARK  5 active torsions:
REMARK  status: ('A' for Active; 'I' for Inactive)
REMARK    1  A    between atoms: C_1  and  N_2
REMARK    2  A    between atoms: C_6  and  C_7
REMARK    3  A    between atoms: C_10  and  C_11
REMARK    4  A    between atoms: N_15  and  S_16
REMARK    5  A    between atoms: S_16  and  C_19
REMARK                            x       y       z     vdW  Elec       q    Type
REMARK                         _______ _______ _______ _____ _____    ______ ____
ROOT
ATOM      1  C   UNL     1       1.561   8.029  20.020  0.00  0.00    +0.000 A 
ATOM      2  C   UNL     1       1.554   6.903  20.851  0.00  0.00    +0.000 A 
ATOM      3  C   UNL     1       2.097   5.696  20.401  0.00  0.00    +0.000 A 
ATOM      4  C   UNL     1       2.616   5.648  19.114  0.00  0.00    +0.000 A 
ATOM      5  N   UNL     1       3.241   4.485  18.618  0.00  0.00    +0.000 N 
ATOM      6  N   UNL     1       2.640   6.693  18.275  0.00  0.00    +0.000 NA
ATOM      7  C   UNL     1       2.107   7.850  18.746  0.00  0.00    +0.000 A 
ATOM      8  H   UNL     1       2.802   3.612  18.906  0.00  0.00    +0.000 HD
ENDROOT
BRANCH   1  12
ATOM      9  C   UNL     1       0.208  11.701  20.473  0.00  0.00    +0.000 A 
ATOM     10  C   UNL     1       0.067  11.059  21.691  0.00  0.00    +0.000 A 
ATOM     11  C   UNL     1       0.547   9.717  21.677  0.00  0.00    +0.000 A 
ATOM     12  C   UNL     1       1.044   9.340  20.442  0.00  0.00    +0.000 A 
ATOM     13  S   UNL     1       0.941  10.649  19.332  0.00  0.00    +0.000 S 
BRANCH   9  19
ATOM     14  C   UNL     1      -2.958  18.474  20.445  0.00  0.00    +0.000 C 
ATOM     15  N   UNL     1      -2.294  17.223  20.179  0.00  0.00    +0.000 N 
ATOM     16  C   UNL     1      -2.545  16.014  20.945  0.00  0.00    +0.000 C 
ATOM     17  C   UNL     1      -1.511  15.076  20.413  0.00  0.00    +0.000 A 
ATOM     18  C   UNL     1      -1.244  13.756  20.753  0.00  0.00    +0.000 A 
ATOM     19  C   UNL     1      -0.174  13.086  20.120  0.00  0.00    +0.000 A 
ATOM     20  C   UNL     1       0.586  13.782  19.145  0.00  0.00    +0.000 A 
ATOM     21  C   UNL     1       0.316  15.111  18.807  0.00  0.00    +0.000 A 
ATOM     22  C   UNL     1      -0.734  15.726  19.455  0.00  0.00    +0.000 A 
ATOM     23  C   UNL     1      -1.216  17.104  19.321  0.00  0.00    +0.000 C 
ATOM     24  O   UNL     1      -0.722  17.950  18.602  0.00  0.00    +0.000 OA
ENDBRANCH   9  19
ENDBRANCH   1  12
BRANCH   5  25
ATOM     25  S   UNL     1       4.895   4.378  18.924  0.00  0.00    +0.000 S 
ATOM     26  O   UNL     1       5.355   5.537  19.657  0.00  0.00    +0.000 OA
ATOM     27  O   UNL     1       5.115   3.048  19.459  0.00  0.00    +0.000 OA
BRANCH  25  28
ATOM     28  C   UNL     1       5.624   4.415  17.315  0.00  0.00    +0.000 A 
ATOM     29  C   UNL     1       4.821   4.330  16.170  0.00  0.00    +0.000 A 
ATOM     30  C   UNL     1       5.406   4.475  14.910  0.00  0.00    +0.000 A 
ATOM     31  C   UNL     1       6.777   4.702  14.806  0.00  0.00    +0.000 A 
ATOM     32  F   UNL     1       7.330   4.853  13.595  0.00  0.00    +0.000 F 
ATOM     33  C   UNL     1       7.577   4.784  15.939  0.00  0.00    +0.000 A 
ATOM     34  C   UNL     1       6.992   4.641  17.195  0.00  0.00    +0.000 A 
ATOM     35  F   UNL     1       7.777   4.729  18.276  0.00  0.00    +0.000 F 
ENDBRANCH  25  28
ENDBRANCH   5  25
TORSDOF 4
ENDMDL
MODEL 7
REMARK VINA RESULT:      -8.9      1.300      1.540
REMARK  Name = 
REMARK  5 active torsions:
REMARK  status: ('A' for Active; 'I' for Inactive)
REMARK    1  A    between atoms: C_1  and  N_2
REMARK    2  A    between atoms: C_6  and  C_7
REMARK    3  A    between atoms: C_10  and  C_11
REMARK    4  A    between atoms: N_15  and  S_16
REMARK    5  A    between atoms: S_16  and  C_19
REMARK                            x       y       z     vdW  Elec       q    Type
REMARK                         _______ _______ _______ _____ _____    ______ ____
ROOT
ATOM      1  C   UNL     1       1.764   8.248  19.359  0.00  0.00    +0.000 A 
ATOM      2  C   UNL     1       1.746   7.327  20.412  0.00  0.00    +0.000 A 
ATOM      3  C   UNL     1       2.227   6.030  20.217  0.00  0.00    +0.000 A 
ATOM      4  C   UNL     1       2.697   5.685  18.957  0.00  0.00    +0.000 A 
ATOM      5  N   UNL     1       3.259   4.416  18.706  0.00  0.00    +0.000 N 
ATOM      6  N   UNL     1       2.729   6.524  17.913  0.00  0.00    +0.000 NA
ATOM      7  C   UNL     1       2.258   7.778  18.138  0.00  0.00    +0.000 A 
ATOM      8  H   UNL     1       2.799   3.646  19.186  0.00  0.00    +0.000 HD
ENDROOT
BRANCH   1  12
ATOM      9  C   UNL     1       0.570  11.847  20.429  0.00  0.00    +0.000 A 
ATOM     10  C   UNL     1       0.822  11.886  19.068  0.00  0.00    +0.000 A 
ATOM     11  C   UNL     1       1.240  10.631  18.539  0.00  0.00    +0.000 A 
ATOM     12  C   UNL     1       1.313   9.641  19.503  0.00  0.00    +0.000 A 
ATOM     13  S   UNL     1       0.838  10.263  21.033  0.00  0.00    +0.000 S 
BRANCH   9  19
ATOM     14  C   UNL     1      -3.079  15.901  25.543  0.00  0.00    +0.000 C 
ATOM     15  N   UNL     1      -2.301  15.370  24.453  0.00  0.00    +0.000 N 
ATOM     16  C   UNL     1      -2.531  14.054  23.882  0.00  0.00    +0.000 C 
ATOM     17  C   UNL     1      -1.384  13.909  22.934  0.00  0.00    +0.000 A 
ATOM     18  C   UNL     1      -1.052  12.858  22.089  0.00  0.00    +0.000 A 
ATOM     19  C   UNL     1       0.120  12.949  21.307  0.00  0.00    +0.000 A 
ATOM     20  C   UNL     1       0.914  14.122  21.401  0.00  0.00    +0.000 A 
ATOM     21  C   UNL     1       0.578  15.176  22.254  0.00  0.00    +0.000 A 
ATOM     22  C   UNL     1      -0.571  15.040  23.003  0.00  0.00    +0.000 A 
ATOM     23  C   UNL     1      -1.141  15.964  23.989  0.00  0.00    +0.000 C 
ATOM     24  O   UNL     1      -0.646  17.023  24.320  0.00  0.00    +0.000 OA
ENDBRANCH   9  19
ENDBRANCH   1  12
BRANCH   5  25
ATOM     25  S   UNL     1       4.918   4.304  18.982  0.00  0.00    +0.000 S 
ATOM     26  O   UNL     1       5.395   5.460  19.708  0.00  0.00    +0.000 OA
ATOM     27  O   UNL     1       5.143   2.973  19.510  0.00  0.00    +0.000 OA
BRANCH  25  28
ATOM     28  C   UNL     1       5.618   4.341  17.360  0.00  0.00    +0.000 A 
ATOM     29  C   UNL     1       4.800   4.207  16.230  0.00  0.00    +0.000 A 
ATOM     30  C   UNL     1       5.359   4.353  14.958  0.00  0.00    +0.000 A 
ATOM     31  C   UNL     1       6.718   4.629  14.827  0.00  0.00    +0.000 A 
ATOM     32  F   UNL     1       7.244   4.780  13.605  0.00  0.00    +0.000 F 
ATOM     33  C   UNL     1       7.533   4.760  15.945  0.00  0.00    +0.000 A 
ATOM     34  C   UNL     1       6.975   4.617  17.213  0.00  0.00    +0.000 A 
ATOM     35  F   UNL     1       7.773   4.753  18.279  0.00  0.00    +0.000 F 
ENDBRANCH  25  28
ENDBRANCH   5  25
TORSDOF 4
ENDMDL
MODEL 8
REMARK VINA RESULT:      -8.9      2.751      3.863
REMARK  Name = 
REMARK  5 active torsions:
REMARK  status: ('A' for Active; 'I' for Inactive)
REMARK    1  A    between atoms: C_1  and  N_2
REMARK    2  A    between atoms: C_6  and  C_7
REMARK    3  A    between atoms: C_10  and  C_11
REMARK    4  A    between atoms: N_15  and  S_16
REMARK    5  A    between atoms: S_16  and  C_19
REMARK                            x       y       z     vdW  Elec       q    Type
REMARK                         _______ _______ _______ _____ _____    ______ ____
ROOT
ATOM      1  C   UNL     1       1.731   8.516  18.929  0.00  0.00    +0.000 A 
ATOM      2  C   UNL     1       2.422   8.432  17.716  0.00  0.00    +0.000 A 
ATOM      3  C   UNL     1       3.379   7.433  17.521  0.00  0.00    +0.000 A 
ATOM      4  C   UNL     1       3.632   6.552  18.565  0.00  0.00    +0.000 A 
ATOM      5  N   UNL     1       4.535   5.479  18.417  0.00  0.00    +0.000 N 
ATOM      6  N   UNL     1       3.006   6.593  19.749  0.00  0.00    +0.000 NA
ATOM      7  C   UNL     1       2.079   7.574  19.903  0.00  0.00    +0.000 A 
ATOM      8  H   UNL     1       5.363   5.694  17.865  0.00  0.00    +0.000 HD
ENDROOT
BRANCH   1  12
ATOM      9  C   UNL     1      -0.799  11.227  20.260  0.00  0.00    +0.000 A 
ATOM     10  C   UNL     1      -1.014  11.099  18.899  0.00  0.00    +0.000 A 
ATOM     11  C   UNL     1      -0.176  10.121  18.288  0.00  0.00    +0.000 A 
ATOM     12  C   UNL     1       0.682   9.514  19.188  0.00  0.00    +0.000 A 
ATOM     13  S   UNL     1       0.421  10.133  20.770  0.00  0.00    +0.000 S 
BRANCH   9  19
ATOM     14  C   UNL     1      -5.930  15.358  23.796  0.00  0.00    +0.000 C 
ATOM     15  N   UNL     1      -4.756  14.728  23.248  0.00  0.00    +0.000 N 
ATOM     16  C   UNL     1      -4.758  14.013  21.982  0.00  0.00    +0.000 C 
ATOM     17  C   UNL     1      -3.391  13.411  21.951  0.00  0.00    +0.000 A 
ATOM     18  C   UNL     1      -2.790  12.610  20.988  0.00  0.00    +0.000 A 
ATOM     19  C   UNL     1      -1.481  12.132  21.211  0.00  0.00    +0.000 A 
ATOM     20  C   UNL     1      -0.815  12.498  22.410  0.00  0.00    +0.000 A 
ATOM     21  C   UNL     1      -1.423  13.303  23.377  0.00  0.00    +0.000 A 
ATOM     22  C   UNL     1      -2.704  13.740  23.119  0.00  0.00    +0.000 A 
ATOM     23  C   UNL     1      -3.582  14.561  23.959  0.00  0.00    +0.000 C 
ATOM     24  O   UNL     1      -3.302  14.973  25.068  0.00  0.00    +0.000 OA
ENDBRANCH   9  19
ENDBRANCH   1  12
BRANCH   5  25
ATOM     25  S   UNL     1       3.856   4.052  17.829  0.00  0.00    +0.000 S 
ATOM     26  O   UNL     1       2.942   4.331  16.743  0.00  0.00    +0.000 OA
ATOM     27  O   UNL     1       4.964   3.139  17.628  0.00  0.00    +0.000 OA
BRANCH  25  28
ATOM     28  C   UNL     1       2.920   3.438  19.196  0.00  0.00    +0.000 A 
ATOM     29  C   UNL     1       3.568   2.928  20.328  0.00  0.00    +0.000 A 
ATOM     30  C   UNL     1       2.811   2.552  21.441  0.00  0.00    +0.000 A 
ATOM     31  C   UNL     1       1.425   2.689  21.412  0.00  0.00    +0.000 A 
ATOM     32  F   UNL     1       0.707   2.340  22.487  0.00  0.00    +0.000 F 
ATOM     33  C   UNL     1       0.778   3.193  20.290  0.00  0.00    +0.000 A 
ATOM     34  C   UNL     1       1.534   3.568  19.182  0.00  0.00    +0.000 A 
ATOM     35  F   UNL     1       0.895   4.056  18.111  0.00  0.00    +0.000 F 
ENDBRANCH  25  28
ENDBRANCH   5  25
TORSDOF 4
ENDMDL
MODEL 9
REMARK VINA RESULT:      -8.8      1.815      2.211
REMARK  Name = 
REMARK  5 active torsions:
REMARK  status: ('A' for Active; 'I' for Inactive)
REMARK    1  A    between atoms: C_1  and  N_2
REMARK    2  A    between atoms: C_6  and  C_7
REMARK    3  A    between atoms: C_10  and  C_11
REMARK    4  A    between atoms: N_15  and  S_16
REMARK    5  A    between atoms: S_16  and  C_19
REMARK                            x       y       z     vdW  Elec       q    Type
REMARK                         _______ _______ _______ _____ _____    ______ ____
ROOT
ATOM      1  C   UNL     1       1.431   7.621  20.536  0.00  0.00    +0.000 A 
ATOM      2  C   UNL     1       1.430   6.353  21.129  0.00  0.00    +0.000 A 
ATOM      3  C   UNL     1       2.017   5.270  20.469  0.00  0.00    +0.000 A 
ATOM      4  C   UNL     1       2.574   5.487  19.216  0.00  0.00    +0.000 A 
ATOM      5  N   UNL     1       3.243   4.457  18.522  0.00  0.00    +0.000 N 
ATOM      6  N   UNL     1       2.594   6.677  18.600  0.00  0.00    +0.000 NA
ATOM      7  C   UNL     1       2.018   7.708  19.271  0.00  0.00    +0.000 A 
ATOM      8  H   UNL     1       2.819   3.537  18.618  0.00  0.00    +0.000 HD
ENDROOT
BRANCH   1  12
ATOM      9  C   UNL     1      -0.069  11.090  21.649  0.00  0.00    +0.000 A 
ATOM     10  C   UNL     1      -0.151  10.239  22.738  0.00  0.00    +0.000 A 
ATOM     11  C   UNL     1       0.387   8.945  22.480  0.00  0.00    +0.000 A 
ATOM     12  C   UNL     1       0.869   8.812  21.190  0.00  0.00    +0.000 A 
ATOM     13  S   UNL     1       0.681  10.288  20.330  0.00  0.00    +0.000 S 
BRANCH   9  19
ATOM     14  C   UNL     1      -2.247  18.047  23.307  0.00  0.00    +0.000 C 
ATOM     15  N   UNL     1      -1.950  16.757  22.739  0.00  0.00    +0.000 N 
ATOM     16  C   UNL     1      -1.732  15.567  23.545  0.00  0.00    +0.000 C 
ATOM     17  C   UNL     1      -1.293  14.565  22.526  0.00  0.00    +0.000 A 
ATOM     18  C   UNL     1      -0.938  13.232  22.682  0.00  0.00    +0.000 A 
ATOM     19  C   UNL     1      -0.519  12.495  21.552  0.00  0.00    +0.000 A 
ATOM     20  C   UNL     1      -0.490  13.141  20.288  0.00  0.00    +0.000 A 
ATOM     21  C   UNL     1      -0.847  14.484  20.136  0.00  0.00    +0.000 A 
ATOM     22  C   UNL     1      -1.242  15.164  21.268  0.00  0.00    +0.000 A 
ATOM     23  C   UNL     1      -1.638  16.569  21.405  0.00  0.00    +0.000 C 
ATOM     24  O   UNL     1      -1.652  17.381  20.501  0.00  0.00    +0.000 OA
ENDBRANCH   9  19
ENDBRANCH   1  12
BRANCH   5  25
ATOM     25  S   UNL     1       4.890   4.325  18.855  0.00  0.00    +0.000 S 
ATOM     26  O   UNL     1       5.345   5.455  19.636  0.00  0.00    +0.000 OA
ATOM     27  O   UNL     1       5.088   2.976  19.348  0.00  0.00    +0.000 OA
BRANCH  25  28
ATOM     28  C   UNL     1       5.649   4.412  17.262  0.00  0.00    +0.000 A 
ATOM     29  C   UNL     1       4.872   4.336  16.100  0.00  0.00    +0.000 A 
ATOM     30  C   UNL     1       5.479   4.519  14.855  0.00  0.00    +0.000 A 
ATOM     31  C   UNL     1       6.847   4.775  14.784  0.00  0.00    +0.000 A 
ATOM     32  F   UNL     1       7.421   4.963  13.588  0.00  0.00    +0.000 F 
ATOM     33  C   UNL     1       7.622   4.848  15.935  0.00  0.00    +0.000 A 
ATOM     34  C   UNL     1       7.015   4.666  17.175  0.00  0.00    +0.000 A 
ATOM     35  F   UNL     1       7.776   4.746  18.274  0.00  0.00    +0.000 F 
ENDBRANCH  25  28
ENDBRANCH   5  25
TORSDOF 4
ENDMDL
