MODEL 1
REMARK VINA RESULT:      -6.9      0.000      0.000
REMARK  Name = 
REMARK  9 active torsions:
REMARK  status: ('A' for Active; 'I' for Inactive)
REMARK    1  A    between atoms: N_10  and  C_11
REMARK    2  A    between atoms: C_11  and  C_12
REMARK    3  A    between atoms: C_12  and  O_13
REMARK    4  A    between atoms: C_12  and  C_14
REMARK    5  A    between atoms: C_14  and  O_15
REMARK    6  A    between atoms: O_15  and  C_16
REMARK    7  A    between atoms: C_16  and  P_17
REMARK    8  A    between atoms: P_17  and  O_19
REMARK    9  A    between atoms: P_17  and  O_20
REMARK                            x       y       z     vdW  Elec       q    Type
REMARK                         _______ _______ _______ _____ _____    ______ ____
ROOT
ATOM      1  C   UNL     1       4.727   5.707  18.375  0.00  0.00    +0.000 C 
ENDROOT
BRANCH   1  11
ATOM      2  O   UNL     1       0.104   1.928  18.466  0.00  0.00    +0.000 OA
ATOM      3  C   UNL     1       0.809   2.819  18.922  0.00  0.00    +0.000 A 
ATOM      4  N   UNL     1       0.597   3.342  20.191  0.00  0.00    +0.000 N 
ATOM      5  C   UNL     1       1.346   4.368  20.736  0.00  0.00    +0.000 A 
ATOM      6  N   UNL     1       2.345   4.962  20.155  0.00  0.00    +0.000 NA
ATOM      7  C   UNL     1       2.611   4.442  18.928  0.00  0.00    +0.000 A 
ATOM      8  C   UNL     1       1.934   3.446  18.260  0.00  0.00    +0.000 A 
ATOM      9  N   UNL     1       2.492   3.193  17.033  0.00  0.00    +0.000 NA
ATOM     10  C   UNL     1       3.530   4.002  16.976  0.00  0.00    +0.000 A 
ATOM     11  N   UNL     1       3.662   4.758  18.117  0.00  0.00    +0.000 N 
ATOM     12  H   UNL     1      -0.159   2.920  20.712  0.00  0.00    +0.000 HD
ENDBRANCH   1  11
BRANCH   1  13
ATOM     13  C   UNL     1       5.863   5.161  19.256  0.00  0.00    +0.000 C 
BRANCH  13  14
ATOM     14  O   UNL     1       5.797   3.731  19.351  0.00  0.00    +0.000 OA
ATOM     15  H   UNL     1       6.665   3.390  19.627  0.00  0.00    +0.000 HD
ENDBRANCH  13  14
BRANCH  13  16
ATOM     16  C   UNL     1       7.241   5.536  18.688  0.00  0.00    +0.000 C 
BRANCH  16  17
ATOM     17  O   UNL     1       7.176   5.866  17.298  0.00  0.00    +0.000 OA
BRANCH  17  18
ATOM     18  C   UNL     1       7.431   4.718  16.459  0.00  0.00    +0.000 C 
BRANCH  18  19
ATOM     19  P   UNL     1       6.656   4.961  14.854  0.00  0.00    +0.000 P 
ATOM     20  O   UNL     1       5.480   5.878  14.820  0.00  0.00    +0.000 OA
BRANCH  19  21
ATOM     21  O   UNL     1       7.860   5.422  13.889  0.00  0.00    +0.000 OA
ATOM     22  H   UNL     1       8.211   6.307  14.109  0.00  0.00    +0.000 HD
ENDBRANCH  19  21
BRANCH  19  23
ATOM     23  O   UNL     1       6.358   3.508  14.252  0.00  0.00    +0.000 OA
ATOM     24  H   UNL     1       6.924   2.839  14.686  0.00  0.00    +0.000 HD
ENDBRANCH  19  23
ENDBRANCH  18  19
ENDBRANCH  17  18
ENDBRANCH  16  17
ENDBRANCH  13  16
ENDBRANCH   1  13
TORSDOF 9
ENDMDL
MODEL 2
REMARK VINA RESULT:      -6.8      3.700      6.533
REMARK  Name = 
REMARK  9 active torsions:
REMARK  status: ('A' for Active; 'I' for Inactive)
REMARK    1  A    between atoms: N_10  and  C_11
REMARK    2  A    between atoms: C_11  and  C_12
REMARK    3  A    between atoms: C_12  and  O_13
REMARK    4  A    between atoms: C_12  and  C_14
REMARK    5  A    between atoms: C_14  and  O_15
REMARK    6  A    between atoms: O_15  and  C_16
REMARK    7  A    between atoms: C_16  and  P_17
REMARK    8  A    between atoms: P_17  and  O_19
REMARK    9  A    between atoms: P_17  and  O_20
REMARK                            x       y       z     vdW  Elec       q    Type
REMARK                         _______ _______ _______ _____ _____    ______ ____
ROOT
ATOM      1  C   UNL     1       4.799   3.660  16.694  0.00  0.00    +0.000 C 
ENDROOT
BRANCH   1  11
ATOM      2  O   UNL     1       7.957   8.617  17.749  0.00  0.00    +0.000 OA
ATOM      3  C   UNL     1       7.646   7.448  17.935  0.00  0.00    +0.000 A 
ATOM      4  N   UNL     1       8.202   6.697  18.962  0.00  0.00    +0.000 N 
ATOM      5  C   UNL     1       7.905   5.366  19.190  0.00  0.00    +0.000 A 
ATOM      6  N   UNL     1       7.068   4.652  18.501  0.00  0.00    +0.000 NA
ATOM      7  C   UNL     1       6.468   5.369  17.515  0.00  0.00    +0.000 A 
ATOM      8  C   UNL     1       6.688   6.683  17.164  0.00  0.00    +0.000 A 
ATOM      9  N   UNL     1       5.899   7.060  16.107  0.00  0.00    +0.000 NA
ATOM     10  C   UNL     1       5.172   5.993  15.848  0.00  0.00    +0.000 A 
ATOM     11  N   UNL     1       5.459   4.951  16.696  0.00  0.00    +0.000 N 
ATOM     12  H   UNL     1       8.857   7.190  19.553  0.00  0.00    +0.000 HD
ENDBRANCH   1  11
BRANCH   1  13
ATOM     13  C   UNL     1       3.746   3.483  17.801  0.00  0.00    +0.000 C 
BRANCH  13  14
ATOM     14  O   UNL     1       2.564   4.243  17.511  0.00  0.00    +0.000 OA
ATOM     15  H   UNL     1       2.508   4.389  16.550  0.00  0.00    +0.000 HD
ENDBRANCH  13  14
BRANCH  13  16
ATOM     16  C   UNL     1       3.339   2.010  17.956  0.00  0.00    +0.000 C 
BRANCH  16  17
ATOM     17  O   UNL     1       2.602   1.783  19.160  0.00  0.00    +0.000 OA
BRANCH  17  18
ATOM     18  C   UNL     1       3.159   2.510  20.278  0.00  0.00    +0.000 C 
BRANCH  18  19
ATOM     19  P   UNL     1       1.837   3.330  21.182  0.00  0.00    +0.000 P 
ATOM     20  O   UNL     1       1.367   2.652  22.425  0.00  0.00    +0.000 OA
BRANCH  19  21
ATOM     21  O   UNL     1       2.384   4.824  21.432  0.00  0.00    +0.000 OA
ATOM     22  H   UNL     1       2.834   5.204  20.652  0.00  0.00    +0.000 HD
ENDBRANCH  19  21
BRANCH  19  23
ATOM     23  O   UNL     1       0.668   3.632  20.132  0.00  0.00    +0.000 OA
ATOM     24  H   UNL     1       0.160   4.421  20.408  0.00  0.00    +0.000 HD
ENDBRANCH  19  23
ENDBRANCH  18  19
ENDBRANCH  17  18
ENDBRANCH  16  17
ENDBRANCH  13  16
ENDBRANCH   1  13
TORSDOF 9
ENDMDL
MODEL 3
REMARK VINA RESULT:      -6.8      3.273      6.503
REMARK  Name = 
REMARK  9 active torsions:
REMARK  status: ('A' for Active; 'I' for Inactive)
REMARK    1  A    between atoms: N_10  and  C_11
REMARK    2  A    between atoms: C_11  and  C_12
REMARK    3  A    between atoms: C_12  and  O_13
REMARK    4  A    between atoms: C_12  and  C_14
REMARK    5  A    between atoms: C_14  and  O_15
REMARK    6  A    between atoms: O_15  and  C_16
REMARK    7  A    between atoms: C_16  and  P_17
REMARK    8  A    between atoms: P_17  and  O_19
REMARK    9  A    between atoms: P_17  and  O_20
REMARK                            x       y       z     vdW  Elec       q    Type
REMARK                         _______ _______ _______ _____ _____    ______ ____
ROOT
ATOM      1  C   UNL     1       3.677   4.512  18.235  0.00  0.00    +0.000 C 
ENDROOT
BRANCH   1  11
ATOM      2  O   UNL     1       8.271   8.174  17.160  0.00  0.00    +0.000 OA
ATOM      3  C   UNL     1       7.686   7.289  17.771  0.00  0.00    +0.000 A 
ATOM      4  N   UNL     1       8.211   6.728  18.928  0.00  0.00    +0.000 N 
ATOM      5  C   UNL     1       7.603   5.707  19.634  0.00  0.00    +0.000 A 
ATOM      6  N   UNL     1       6.468   5.153  19.329  0.00  0.00    +0.000 NA
ATOM      7  C   UNL     1       5.901   5.711  18.227  0.00  0.00    +0.000 A 
ATOM      8  C   UNL     1       6.406   6.707  17.422  0.00  0.00    +0.000 A 
ATOM      9  N   UNL     1       5.550   7.005  16.393  0.00  0.00    +0.000 NA
ATOM     10  C   UNL     1       4.511   6.223  16.599  0.00  0.00    +0.000 A 
ATOM     11  N   UNL     1       4.664   5.442  17.719  0.00  0.00    +0.000 N 
ATOM     12  H   UNL     1       9.091   7.118  19.237  0.00  0.00    +0.000 HD
ENDBRANCH   1  11
BRANCH   1  13
ATOM     13  C   UNL     1       3.919   3.047  17.838  0.00  0.00    +0.000 C 
BRANCH  13  14
ATOM     14  O   UNL     1       4.747   2.383  18.804  0.00  0.00    +0.000 OA
ATOM     15  H   UNL     1       4.781   2.919  19.616  0.00  0.00    +0.000 HD
ENDBRANCH  13  14
BRANCH  13  16
ATOM     16  C   UNL     1       2.597   2.270  17.733  0.00  0.00    +0.000 C 
BRANCH  16  17
ATOM     17  O   UNL     1       2.242   1.648  18.970  0.00  0.00    +0.000 OA
BRANCH  17  18
ATOM     18  C   UNL     1       1.364   2.480  19.760  0.00  0.00    +0.000 C 
BRANCH  18  19
ATOM     19  P   UNL     1       2.151   2.866  21.330  0.00  0.00    +0.000 P 
ATOM     20  O   UNL     1       3.526   2.323  21.531  0.00  0.00    +0.000 OA
BRANCH  19  21
ATOM     21  O   UNL     1       2.072   4.471  21.440  0.00  0.00    +0.000 OA
ATOM     22  H   UNL     1       2.674   4.840  22.115  0.00  0.00    +0.000 HD
ENDBRANCH  19  21
BRANCH  19  23
ATOM     23  O   UNL     1       1.122   2.457  22.484  0.00  0.00    +0.000 OA
ATOM     24  H   UNL     1       1.128   1.488  22.616  0.00  0.00    +0.000 HD
ENDBRANCH  19  23
ENDBRANCH  18  19
ENDBRANCH  17  18
ENDBRANCH  16  17
ENDBRANCH  13  16
ENDBRANCH   1  13
TORSDOF 9
ENDMDL
MODEL 4
REMARK VINA RESULT:      -6.7      3.592      6.418
REMARK  Name = 
REMARK  9 active torsions:
REMARK  status: ('A' for Active; 'I' for Inactive)
REMARK    1  A    between atoms: N_10  and  C_11
REMARK    2  A    between atoms: C_11  and  C_12
REMARK    3  A    between atoms: C_12  and  O_13
REMARK    4  A    between atoms: C_12  and  C_14
REMARK    5  A    between atoms: C_14  and  O_15
REMARK    6  A    between atoms: O_15  and  C_16
REMARK    7  A    between atoms: C_16  and  P_17
REMARK    8  A    between atoms: P_17  and  O_19
REMARK    9  A    between atoms: P_17  and  O_20
REMARK                            x       y       z     vdW  Elec       q    Type
REMARK                         _______ _______ _______ _____ _____    ______ ____
ROOT
ATOM      1  C   UNL     1       4.954   3.670  16.840  0.00  0.00    +0.000 C 
ENDROOT
BRANCH   1  11
ATOM      2  O   UNL     1       7.952   8.764  17.691  0.00  0.00    +0.000 OA
ATOM      3  C   UNL     1       7.690   7.589  17.911  0.00  0.00    +0.000 A 
ATOM      4  N   UNL     1       8.304   6.883  18.939  0.00  0.00    +0.000 N 
ATOM      5  C   UNL     1       8.064   5.547  19.205  0.00  0.00    +0.000 A 
ATOM      6  N   UNL     1       7.234   4.787  18.556  0.00  0.00    +0.000 NA
ATOM      7  C   UNL     1       6.580   5.459  17.573  0.00  0.00    +0.000 A 
ATOM      8  C   UNL     1       6.740   6.771  17.186  0.00  0.00    +0.000 A 
ATOM      9  N   UNL     1       5.907   7.094  16.146  0.00  0.00    +0.000 NA
ATOM     10  C   UNL     1       5.214   5.995  15.931  0.00  0.00    +0.000 A 
ATOM     11  N   UNL     1       5.565   4.984  16.794  0.00  0.00    +0.000 N 
ATOM     12  H   UNL     1       8.956   7.414  19.498  0.00  0.00    +0.000 HD
ENDBRANCH   1  11
BRANCH   1  13
ATOM     13  C   UNL     1       4.189   3.371  18.140  0.00  0.00    +0.000 C 
BRANCH  13  14
ATOM     14  O   UNL     1       5.085   2.944  19.176  0.00  0.00    +0.000 OA
ATOM     15  H   UNL     1       5.050   3.583  19.909  0.00  0.00    +0.000 HD
ENDBRANCH  13  14
BRANCH  13  16
ATOM     16  C   UNL     1       3.435   4.611  18.645  0.00  0.00    +0.000 C 
BRANCH  16  17
ATOM     17  O   UNL     1       3.558   4.773  20.060  0.00  0.00    +0.000 OA
BRANCH  17  18
ATOM     18  C   UNL     1       2.296   4.583  20.736  0.00  0.00    +0.000 C 
BRANCH  18  19
ATOM     19  P   UNL     1       2.044   2.833  21.064  0.00  0.00    +0.000 P 
ATOM     20  O   UNL     1       1.447   2.032  19.956  0.00  0.00    +0.000 OA
BRANCH  19  21
ATOM     21  O   UNL     1       3.487   2.298  21.538  0.00  0.00    +0.000 OA
ATOM     22  H   UNL     1       3.734   2.600  22.434  0.00  0.00    +0.000 HD
ENDBRANCH  19  21
BRANCH  19  23
ATOM     23  O   UNL     1       1.240   2.725  22.443  0.00  0.00    +0.000 OA
ATOM     24  H   UNL     1       0.381   2.280  22.301  0.00  0.00    +0.000 HD
ENDBRANCH  19  23
ENDBRANCH  18  19
ENDBRANCH  17  18
ENDBRANCH  16  17
ENDBRANCH  13  16
ENDBRANCH   1  13
TORSDOF 9
ENDMDL
MODEL 5
REMARK VINA RESULT:      -6.6      1.221      1.532
REMARK  Name = 
REMARK  9 active torsions:
REMARK  status: ('A' for Active; 'I' for Inactive)
REMARK    1  A    between atoms: N_10  and  C_11
REMARK    2  A    between atoms: C_11  and  C_12
REMARK    3  A    between atoms: C_12  and  O_13
REMARK    4  A    between atoms: C_12  and  C_14
REMARK    5  A    between atoms: C_14  and  O_15
REMARK    6  A    between atoms: O_15  and  C_16
REMARK    7  A    between atoms: C_16  and  P_17
REMARK    8  A    between atoms: P_17  and  O_19
REMARK    9  A    between atoms: P_17  and  O_20
REMARK                            x       y       z     vdW  Elec       q    Type
REMARK                         _______ _______ _______ _____ _____    ______ ____
ROOT
ATOM      1  C   UNL     1       5.526   4.231  18.716  0.00  0.00    +0.000 C 
ENDROOT
BRANCH   1  11
ATOM      2  O   UNL     1      -0.111   2.261  18.608  0.00  0.00    +0.000 OA
ATOM      3  C   UNL     1       0.861   2.794  19.128  0.00  0.00    +0.000 A 
ATOM      4  N   UNL     1       0.854   3.190  20.459  0.00  0.00    +0.000 N 
ATOM      5  C   UNL     1       1.915   3.823  21.080  0.00  0.00    +0.000 A 
ATOM      6  N   UNL     1       3.051   4.114  20.520  0.00  0.00    +0.000 NA
ATOM      7  C   UNL     1       3.111   3.697  19.228  0.00  0.00    +0.000 A 
ATOM      8  C   UNL     1       2.127   3.083  18.485  0.00  0.00    +0.000 A 
ATOM      9  N   UNL     1       2.552   2.817  17.209  0.00  0.00    +0.000 NA
ATOM     10  C   UNL     1       3.803   3.228  17.192  0.00  0.00    +0.000 A 
ATOM     11  N   UNL     1       4.198   3.740  18.404  0.00  0.00    +0.000 N 
ATOM     12  H   UNL     1       0.005   2.985  20.966  0.00  0.00    +0.000 HD
ENDBRANCH   1  11
BRANCH   1  13
ATOM     13  C   UNL     1       5.645   5.764  18.745  0.00  0.00    +0.000 C 
BRANCH  13  14
ATOM     14  O   UNL     1       7.020   6.174  18.717  0.00  0.00    +0.000 OA
ATOM     15  H   UNL     1       7.125   6.969  19.268  0.00  0.00    +0.000 HD
ENDBRANCH  13  14
BRANCH  13  16
ATOM     16  C   UNL     1       4.934   6.404  17.542  0.00  0.00    +0.000 C 
BRANCH  16  17
ATOM     17  O   UNL     1       5.825   6.613  16.444  0.00  0.00    +0.000 OA
BRANCH  17  18
ATOM     18  C   UNL     1       5.486   5.786  15.309  0.00  0.00    +0.000 C 
BRANCH  18  19
ATOM     19  P   UNL     1       6.936   4.860  14.784  0.00  0.00    +0.000 P 
ATOM     20  O   UNL     1       7.822   5.528  13.787  0.00  0.00    +0.000 OA
BRANCH  19  21
ATOM     21  O   UNL     1       7.688   4.474  16.154  0.00  0.00    +0.000 OA
ATOM     22  H   UNL     1       7.304   4.910  16.940  0.00  0.00    +0.000 HD
ENDBRANCH  19  21
BRANCH  19  23
ATOM     23  O   UNL     1       6.429   3.413  14.327  0.00  0.00    +0.000 OA
ATOM     24  H   UNL     1       7.191   2.823  14.160  0.00  0.00    +0.000 HD
ENDBRANCH  19  23
ENDBRANCH  18  19
ENDBRANCH  17  18
ENDBRANCH  16  17
ENDBRANCH  13  16
ENDBRANCH   1  13
TORSDOF 9
ENDMDL
MODEL 6
REMARK VINA RESULT:      -6.6      1.387      2.282
REMARK  Name = 
REMARK  9 active torsions:
REMARK  status: ('A' for Active; 'I' for Inactive)
REMARK    1  A    between atoms: N_10  and  C_11
REMARK    2  A    between atoms: C_11  and  C_12
REMARK    3  A    between atoms: C_12  and  O_13
REMARK    4  A    between atoms: C_12  and  C_14
REMARK    5  A    between atoms: C_14  and  O_15
REMARK    6  A    between atoms: O_15  and  C_16
REMARK    7  A    between atoms: C_16  and  P_17
REMARK    8  A    between atoms: P_17  and  O_19
REMARK    9  A    between atoms: P_17  and  O_20
REMARK                            x       y       z     vdW  Elec       q    Type
REMARK                         _______ _______ _______ _____ _____    ______ ____
ROOT
ATOM      1  C   UNL     1       5.050   5.505  19.499  0.00  0.00    +0.000 C 
ENDROOT
BRANCH   1  11
ATOM      2  O   UNL     1       0.051   2.287  18.930  0.00  0.00    +0.000 OA
ATOM      3  C   UNL     1       1.261   2.464  18.873  0.00  0.00    +0.000 A 
ATOM      4  N   UNL     1       2.119   1.494  18.369  0.00  0.00    +0.000 N 
ATOM      5  C   UNL     1       3.493   1.637  18.314  0.00  0.00    +0.000 A 
ATOM      6  N   UNL     1       4.159   2.683  18.700  0.00  0.00    +0.000 NA
ATOM      7  C   UNL     1       3.345   3.672  19.155  0.00  0.00    +0.000 A 
ATOM      8  C   UNL     1       1.975   3.654  19.288  0.00  0.00    +0.000 A 
ATOM      9  N   UNL     1       1.502   4.838  19.792  0.00  0.00    +0.000 NA
ATOM     10  C   UNL     1       2.577   5.587  19.922  0.00  0.00    +0.000 A 
ATOM     11  N   UNL     1       3.717   4.934  19.518  0.00  0.00    +0.000 N 
ATOM     12  H   UNL     1       1.671   0.652  18.036  0.00  0.00    +0.000 HD
ENDBRANCH   1  11
BRANCH   1  13
ATOM     13  C   UNL     1       5.594   5.796  18.090  0.00  0.00    +0.000 C 
BRANCH  13  14
ATOM     14  O   UNL     1       4.975   6.963  17.531  0.00  0.00    +0.000 OA
ATOM     15  H   UNL     1       4.033   6.970  17.774  0.00  0.00    +0.000 HD
ENDBRANCH  13  14
BRANCH  13  16
ATOM     16  C   UNL     1       7.113   6.029  18.114  0.00  0.00    +0.000 C 
BRANCH  16  17
ATOM     17  O   UNL     1       7.735   5.630  16.891  0.00  0.00    +0.000 OA
BRANCH  17  18
ATOM     18  C   UNL     1       7.114   4.452  16.328  0.00  0.00    +0.000 C 
BRANCH  18  19
ATOM     19  P   UNL     1       6.639   4.776  14.624  0.00  0.00    +0.000 P 
ATOM     20  O   UNL     1       6.130   3.609  13.847  0.00  0.00    +0.000 OA
BRANCH  19  21
ATOM     21  O   UNL     1       5.588   5.992  14.721  0.00  0.00    +0.000 OA
ATOM     22  H   UNL     1       4.996   5.928  15.495  0.00  0.00    +0.000 HD
ENDBRANCH  19  21
BRANCH  19  23
ATOM     23  O   UNL     1       7.870   5.526  13.929  0.00  0.00    +0.000 OA
ATOM     24  H   UNL     1       7.700   6.488  13.885  0.00  0.00    +0.000 HD
ENDBRANCH  19  23
ENDBRANCH  18  19
ENDBRANCH  17  18
ENDBRANCH  16  17
ENDBRANCH  13  16
ENDBRANCH   1  13
TORSDOF 9
ENDMDL
MODEL 7
REMARK VINA RESULT:      -6.5      3.655      6.485
REMARK  Name = 
REMARK  9 active torsions:
REMARK  status: ('A' for Active; 'I' for Inactive)
REMARK    1  A    between atoms: N_10  and  C_11
REMARK    2  A    between atoms: C_11  and  C_12
REMARK    3  A    between atoms: C_12  and  O_13
REMARK    4  A    between atoms: C_12  and  C_14
REMARK    5  A    between atoms: C_14  and  O_15
REMARK    6  A    between atoms: O_15  and  C_16
REMARK    7  A    between atoms: C_16  and  P_17
REMARK    8  A    between atoms: P_17  and  O_19
REMARK    9  A    between atoms: P_17  and  O_20
REMARK                            x       y       z     vdW  Elec       q    Type
REMARK                         _______ _______ _______ _____ _____    ______ ____
ROOT
ATOM      1  C   UNL     1       4.843   3.544  16.473  0.00  0.00    +0.000 C 
ENDROOT
BRANCH   1  11
ATOM      2  O   UNL     1       7.850   8.538  17.771  0.00  0.00    +0.000 OA
ATOM      3  C   UNL     1       7.567   7.355  17.907  0.00  0.00    +0.000 A 
ATOM      4  N   UNL     1       8.126   6.580  18.915  0.00  0.00    +0.000 N 
ATOM      5  C   UNL     1       7.861   5.234  19.087  0.00  0.00    +0.000 A 
ATOM      6  N   UNL     1       7.054   4.525  18.356  0.00  0.00    +0.000 NA
ATOM      7  C   UNL     1       6.452   5.264  17.388  0.00  0.00    +0.000 A 
ATOM      8  C   UNL     1       6.642   6.595  17.091  0.00  0.00    +0.000 A 
ATOM      9  N   UNL     1       5.862   6.992  16.036  0.00  0.00    +0.000 NA
ATOM     10  C   UNL     1       5.168   5.917  15.723  0.00  0.00    +0.000 A 
ATOM     11  N   UNL     1       5.469   4.851  16.537  0.00  0.00    +0.000 N 
ATOM     12  H   UNL     1       8.757   7.067  19.535  0.00  0.00    +0.000 HD
ENDBRANCH   1  11
BRANCH   1  13
ATOM     13  C   UNL     1       3.697   3.341  17.477  0.00  0.00    +0.000 C 
BRANCH  13  14
ATOM     14  O   UNL     1       2.424   3.573  16.857  0.00  0.00    +0.000 OA
ATOM     15  H   UNL     1       2.176   2.789  16.337  0.00  0.00    +0.000 HD
ENDBRANCH  13  14
BRANCH  13  16
ATOM     16  C   UNL     1       3.695   1.912  18.044  0.00  0.00    +0.000 C 
BRANCH  16  17
ATOM     17  O   UNL     1       2.923   1.813  19.243  0.00  0.00    +0.000 OA
BRANCH  17  18
ATOM     18  C   UNL     1       3.354   2.764  20.242  0.00  0.00    +0.000 C 
BRANCH  18  19
ATOM     19  P   UNL     1       1.923   3.619  20.917  0.00  0.00    +0.000 P 
ATOM     20  O   UNL     1       0.721   3.693  20.036  0.00  0.00    +0.000 OA
BRANCH  19  21
ATOM     21  O   UNL     1       1.642   2.891  22.326  0.00  0.00    +0.000 OA
ATOM     22  H   UNL     1       2.459   2.682  22.819  0.00  0.00    +0.000 HD
ENDBRANCH  19  21
BRANCH  19  23
ATOM     23  O   UNL     1       2.429   5.045  21.436  0.00  0.00    +0.000 OA
ATOM     24  H   UNL     1       2.231   5.737  20.774  0.00  0.00    +0.000 HD
ENDBRANCH  19  23
ENDBRANCH  18  19
ENDBRANCH  17  18
ENDBRANCH  16  17
ENDBRANCH  13  16
ENDBRANCH   1  13
TORSDOF 9
ENDMDL
MODEL 8
REMARK VINA RESULT:      -6.5      2.946      6.058
REMARK  Name = 
REMARK  9 active torsions:
REMARK  status: ('A' for Active; 'I' for Inactive)
REMARK    1  A    between atoms: N_10  and  C_11
REMARK    2  A    between atoms: C_11  and  C_12
REMARK    3  A    between atoms: C_12  and  O_13
REMARK    4  A    between atoms: C_12  and  C_14
REMARK    5  A    between atoms: C_14  and  O_15
REMARK    6  A    between atoms: O_15  and  C_16
REMARK    7  A    between atoms: C_16  and  P_17
REMARK    8  A    between atoms: P_17  and  O_19
REMARK    9  A    between atoms: P_17  and  O_20
REMARK                            x       y       z     vdW  Elec       q    Type
REMARK                         _______ _______ _______ _____ _____    ______ ____
ROOT
ATOM      1  C   UNL     1       5.509   5.167  19.282  0.00  0.00    +0.000 C 
ENDROOT
BRANCH   1  11
ATOM      2  O   UNL     1       7.871   5.450  13.805  0.00  0.00    +0.000 OA
ATOM      3  C   UNL     1       7.138   4.982  14.667  0.00  0.00    +0.000 A 
ATOM      4  N   UNL     1       6.388   3.834  14.445  0.00  0.00    +0.000 N 
ATOM      5  C   UNL     1       5.524   3.288  15.376  0.00  0.00    +0.000 A 
ATOM      6  N   UNL     1       5.313   3.751  16.571  0.00  0.00    +0.000 NA
ATOM      7  C   UNL     1       6.068   4.847  16.839  0.00  0.00    +0.000 A 
ATOM      8  C   UNL     1       6.942   5.506  16.002  0.00  0.00    +0.000 A 
ATOM      9  N   UNL     1       7.520   6.583  16.624  0.00  0.00    +0.000 NA
ATOM     10  C   UNL     1       7.032   6.551  17.847  0.00  0.00    +0.000 A 
ATOM     11  N   UNL     1       6.171   5.497  18.035  0.00  0.00    +0.000 N 
ATOM     12  H   UNL     1       6.509   3.407  13.537  0.00  0.00    +0.000 HD
ENDBRANCH   1  11
BRANCH   1  13
ATOM     13  C   UNL     1       4.064   5.681  19.388  0.00  0.00    +0.000 C 
BRANCH  13  14
ATOM     14  O   UNL     1       3.461   5.790  18.091  0.00  0.00    +0.000 OA
ATOM     15  H   UNL     1       3.885   6.519  17.604  0.00  0.00    +0.000 HD
ENDBRANCH  13  14
BRANCH  13  16
ATOM     16  C   UNL     1       3.195   4.741  20.238  0.00  0.00    +0.000 C 
BRANCH  16  17
ATOM     17  O   UNL     1       1.802   4.909  19.967  0.00  0.00    +0.000 OA
BRANCH  17  18
ATOM     18  C   UNL     1       1.086   3.654  20.021  0.00  0.00    +0.000 C 
BRANCH  18  19
ATOM     19  P   UNL     1       1.423   2.705  18.531  0.00  0.00    +0.000 P 
ATOM     20  O   UNL     1       1.830   3.486  17.327  0.00  0.00    +0.000 OA
BRANCH  19  21
ATOM     21  O   UNL     1       2.513   1.610  18.985  0.00  0.00    +0.000 OA
ATOM     22  H   UNL     1       2.239   1.098  19.770  0.00  0.00    +0.000 HD
ENDBRANCH  19  21
BRANCH  19  23
ATOM     23  O   UNL     1       0.160   1.754  18.285  0.00  0.00    +0.000 OA
ATOM     24  H   UNL     1       0.407   0.818  18.423  0.00  0.00    +0.000 HD
ENDBRANCH  19  23
ENDBRANCH  18  19
ENDBRANCH  17  18
ENDBRANCH  16  17
ENDBRANCH  13  16
ENDBRANCH   1  13
TORSDOF 9
ENDMDL
MODEL 9
REMARK VINA RESULT:      -6.5      1.501      2.195
REMARK  Name = 
REMARK  9 active torsions:
REMARK  status: ('A' for Active; 'I' for Inactive)
REMARK    1  A    between atoms: N_10  and  C_11
REMARK    2  A    between atoms: C_11  and  C_12
REMARK    3  A    between atoms: C_12  and  O_13
REMARK    4  A    between atoms: C_12  and  C_14
REMARK    5  A    between atoms: C_14  and  O_15
REMARK    6  A    between atoms: O_15  and  C_16
REMARK    7  A    between atoms: C_16  and  P_17
REMARK    8  A    between atoms: P_17  and  O_19
REMARK    9  A    between atoms: P_17  and  O_20
REMARK                            x       y       z     vdW  Elec       q    Type
REMARK                         _______ _______ _______ _____ _____    ______ ____
ROOT
ATOM      1  C   UNL     1       4.838   5.841  17.800  0.00  0.00    +0.000 C 
ENDROOT
BRANCH   1  11
ATOM      2  O   UNL     1       0.819   2.506  20.697  0.00  0.00    +0.000 OA
ATOM      3  C   UNL     1       1.687   2.705  19.857  0.00  0.00    +0.000 A 
ATOM      4  N   UNL     1       2.041   1.735  18.927  0.00  0.00    +0.000 N 
ATOM      5  C   UNL     1       3.036   1.903  17.981  0.00  0.00    +0.000 A 
ATOM      6  N   UNL     1       3.751   2.975  17.822  0.00  0.00    +0.000 NA
ATOM      7  C   UNL     1       3.398   3.963  18.685  0.00  0.00    +0.000 A 
ATOM      8  C   UNL     1       2.452   3.923  19.685  0.00  0.00    +0.000 A 
ATOM      9  N   UNL     1       2.381   5.115  20.360  0.00  0.00    +0.000 NA
ATOM     10  C   UNL     1       3.249   5.889  19.741  0.00  0.00    +0.000 A 
ATOM     11  N   UNL     1       3.868   5.245  18.698  0.00  0.00    +0.000 N 
ATOM     12  H   UNL     1       1.517   0.873  18.981  0.00  0.00    +0.000 HD
ENDBRANCH   1  11
BRANCH   1  13
ATOM     13  C   UNL     1       6.303   5.591  18.193  0.00  0.00    +0.000 C 
BRANCH  13  14
ATOM     14  O   UNL     1       6.541   4.196  18.427  0.00  0.00    +0.000 OA
ATOM     15  H   UNL     1       6.676   3.749  17.573  0.00  0.00    +0.000 HD
ENDBRANCH  13  14
BRANCH  13  16
ATOM     16  C   UNL     1       7.267   6.059  17.091  0.00  0.00    +0.000 C 
BRANCH  16  17
ATOM     17  O   UNL     1       7.795   4.963  16.341  0.00  0.00    +0.000 OA
BRANCH  17  18
ATOM     18  C   UNL     1       7.446   5.048  14.942  0.00  0.00    +0.000 C 
BRANCH  18  19
ATOM     19  P   UNL     1       5.999   4.029  14.619  0.00  0.00    +0.000 P 
ATOM     20  O   UNL     1       4.706   4.753  14.448  0.00  0.00    +0.000 OA
BRANCH  19  21
ATOM     21  O   UNL     1       6.409   3.135  13.344  0.00  0.00    +0.000 OA
ATOM     22  H   UNL     1       6.256   3.587  12.492  0.00  0.00    +0.000 HD
ENDBRANCH  19  21
BRANCH  19  23
ATOM     23  O   UNL     1       5.959   2.898  15.751  0.00  0.00    +0.000 OA
ATOM     24  H   UNL     1       5.338   2.187  15.498  0.00  0.00    +0.000 HD
ENDBRANCH  19  23
ENDBRANCH  18  19
ENDBRANCH  17  18
ENDBRANCH  16  17
ENDBRANCH  13  16
ENDBRANCH   1  13
TORSDOF 9
ENDMDL
