MODEL 1
REMARK VINA RESULT:      -7.7      0.000      0.000
REMARK  Name = 
REMARK  10 active torsions:
REMARK  status: ('A' for Active; 'I' for Inactive)
REMARK    1  A    between atoms: C_1  and  O_2
REMARK    2  A    between atoms: O_2  and  C_3
REMARK    3  A    between atoms: C_7  and  N_8
REMARK    4  A    between atoms: N_8  and  C_9
REMARK    5  A    between atoms: C_9  and  C_10
REMARK    6  A    between atoms: C_9  and  C_11
REMARK    7  A    between atoms: C_9  and  C_12
REMARK    8  A    between atoms: N_16  and  C_17
REMARK    9  A    between atoms: C_18  and  C_19
REMARK   10  A    between atoms: C_23  and  C_24
REMARK                            x       y       z     vdW  Elec       q    Type
REMARK                         _______ _______ _______ _____ _____    ______ ____
ROOT
ATOM      1  C   UNL     1       2.449   5.018  19.561  0.00  0.00    +0.000 C 
ATOM      2  C   UNL     1       1.344   4.713  20.611  0.00  0.00    +0.000 C 
ATOM      3  C   UNL     1       1.808   4.764  18.165  0.00  0.00    +0.000 C 
ENDROOT
BRANCH   1   4
ATOM      4  C   UNL     1       3.580   3.996  19.732  0.00  0.00    +0.000 A 
ATOM      5  N   UNL     1       3.469   2.944  20.532  0.00  0.00    +0.000 NA
ATOM      6  N   UNL     1       4.542   2.146  20.298  0.00  0.00    +0.000 NA
ATOM      7  N   UNL     1       5.339   2.682  19.396  0.00  0.00    +0.000 NA
ATOM      8  N   UNL     1       4.799   3.878  19.043  0.00  0.00    +0.000 N 
BRANCH   8   9
ATOM      9  C   UNL     1       5.503   4.724  18.128  0.00  0.00    +0.000 A 
ATOM     10  C   UNL     1       5.216   4.688  16.732  0.00  0.00    +0.000 A 
ATOM     11  C   UNL     1       4.263   3.749  16.032  0.00  0.00    +0.000 C 
ATOM     12  C   UNL     1       5.894   5.575  15.865  0.00  0.00    +0.000 A 
ATOM     13  C   UNL     1       6.801   6.508  16.344  0.00  0.00    +0.000 A 
ATOM     14  C   UNL     1       7.117   6.509  17.690  0.00  0.00    +0.000 A 
ATOM     15  C   UNL     1       6.533   5.583  18.576  0.00  0.00    +0.000 A 
ATOM     16  C   UNL     1       7.234   5.478  19.899  0.00  0.00    +0.000 C 
ENDBRANCH   8   9
ENDBRANCH   1   4
BRANCH   1  17
ATOM     17  N   UNL     1       2.927   6.418  19.610  0.00  0.00    +0.000 N 
ATOM     18  H   UNL     1       3.873   6.521  19.253  0.00  0.00    +0.000 HD
BRANCH  17  23
ATOM     19  C   UNL     1       0.855   9.485  20.159  0.00  0.00    +0.000 A 
ATOM     20  C   UNL     1       0.941  10.071  18.901  0.00  0.00    +0.000 A 
ATOM     21  C   UNL     1       1.676   9.445  17.899  0.00  0.00    +0.000 A 
ATOM     22  C   UNL     1       2.317   8.225  18.148  0.00  0.00    +0.000 A 
ATOM     23  C   UNL     1       2.208   7.590  19.397  0.00  0.00    +0.000 A 
ATOM     24  C   UNL     1       1.492   8.260  20.386  0.00  0.00    +0.000 A 
BRANCH  19  26
ATOM     25  C   UNL     1      -0.021   9.518  22.361  0.00  0.00    +0.000 C 
ATOM     26  O   UNL     1       0.121  10.162  21.099  0.00  0.00    +0.000 OA
ENDBRANCH  19  26
ENDBRANCH  17  23
ENDBRANCH   1  17
TORSDOF 5
ENDMDL
MODEL 2
REMARK VINA RESULT:      -7.6      3.671      7.121
REMARK  Name = 
REMARK  10 active torsions:
REMARK  status: ('A' for Active; 'I' for Inactive)
REMARK    1  A    between atoms: C_1  and  O_2
REMARK    2  A    between atoms: O_2  and  C_3
REMARK    3  A    between atoms: C_7  and  N_8
REMARK    4  A    between atoms: N_8  and  C_9
REMARK    5  A    between atoms: C_9  and  C_10
REMARK    6  A    between atoms: C_9  and  C_11
REMARK    7  A    between atoms: C_9  and  C_12
REMARK    8  A    between atoms: N_16  and  C_17
REMARK    9  A    between atoms: C_18  and  C_19
REMARK   10  A    between atoms: C_23  and  C_24
REMARK                            x       y       z     vdW  Elec       q    Type
REMARK                         _______ _______ _______ _____ _____    ______ ____
ROOT
ATOM      1  C   UNL     1       5.427   4.515  16.553  0.00  0.00    +0.000 C 
ATOM      2  C   UNL     1       5.069   5.911  15.968  0.00  0.00    +0.000 C 
ATOM      3  C   UNL     1       4.078   3.758  16.733  0.00  0.00    +0.000 C 
ENDROOT
BRANCH   1   4
ATOM      4  C   UNL     1       6.026   4.711  17.951  0.00  0.00    +0.000 A 
ATOM      5  N   UNL     1       7.321   4.924  18.143  0.00  0.00    +0.000 NA
ATOM      6  N   UNL     1       7.485   5.256  19.449  0.00  0.00    +0.000 NA
ATOM      7  N   UNL     1       6.332   5.228  20.089  0.00  0.00    +0.000 NA
ATOM      8  N   UNL     1       5.386   4.840  19.195  0.00  0.00    +0.000 N 
BRANCH   8   9
ATOM      9  C   UNL     1       4.039   4.644  19.639  0.00  0.00    +0.000 A 
ATOM     10  C   UNL     1       3.604   3.371  20.111  0.00  0.00    +0.000 A 
ATOM     11  C   UNL     1       4.409   2.093  20.126  0.00  0.00    +0.000 C 
ATOM     12  C   UNL     1       2.282   3.227  20.589  0.00  0.00    +0.000 A 
ATOM     13  C   UNL     1       1.410   4.303  20.649  0.00  0.00    +0.000 A 
ATOM     14  C   UNL     1       1.814   5.525  20.144  0.00  0.00    +0.000 A 
ATOM     15  C   UNL     1       3.092   5.692  19.575  0.00  0.00    +0.000 A 
ATOM     16  C   UNL     1       3.240   6.946  18.764  0.00  0.00    +0.000 C 
ENDBRANCH   8   9
ENDBRANCH   1   4
BRANCH   1  17
ATOM     17  N   UNL     1       6.298   3.717  15.660  0.00  0.00    +0.000 N 
ATOM     18  H   UNL     1       6.364   2.744  15.946  0.00  0.00    +0.000 HD
BRANCH  17  23
ATOM     19  C   UNL     1       5.762   3.385  11.972  0.00  0.00    +0.000 A 
ATOM     20  C   UNL     1       6.739   4.254  11.500  0.00  0.00    +0.000 A 
ATOM     21  C   UNL     1       7.554   4.929  12.403  0.00  0.00    +0.000 A 
ATOM     22  C   UNL     1       7.403   4.727  13.780  0.00  0.00    +0.000 A 
ATOM     23  C   UNL     1       6.454   3.820  14.281  0.00  0.00    +0.000 A 
ATOM     24  C   UNL     1       5.633   3.187  13.351  0.00  0.00    +0.000 A 
BRANCH  19  26
ATOM     25  C   UNL     1       3.640   3.205  10.930  0.00  0.00    +0.000 C 
ATOM     26  O   UNL     1       4.990   2.761  11.025  0.00  0.00    +0.000 OA
ENDBRANCH  19  26
ENDBRANCH  17  23
ENDBRANCH   1  17
TORSDOF 5
ENDMDL
MODEL 3
REMARK VINA RESULT:      -7.4      0.530      1.831
REMARK  Name = 
REMARK  10 active torsions:
REMARK  status: ('A' for Active; 'I' for Inactive)
REMARK    1  A    between atoms: C_1  and  O_2
REMARK    2  A    between atoms: O_2  and  C_3
REMARK    3  A    between atoms: C_7  and  N_8
REMARK    4  A    between atoms: N_8  and  C_9
REMARK    5  A    between atoms: C_9  and  C_10
REMARK    6  A    between atoms: C_9  and  C_11
REMARK    7  A    between atoms: C_9  and  C_12
REMARK    8  A    between atoms: N_16  and  C_17
REMARK    9  A    between atoms: C_18  and  C_19
REMARK   10  A    between atoms: C_23  and  C_24
REMARK                            x       y       z     vdW  Elec       q    Type
REMARK                         _______ _______ _______ _____ _____    ______ ____
ROOT
ATOM      1  C   UNL     1       2.414   4.893  19.627  0.00  0.00    +0.000 C 
ATOM      2  C   UNL     1       1.303   4.719  20.701  0.00  0.00    +0.000 C 
ATOM      3  C   UNL     1       1.746   4.585  18.255  0.00  0.00    +0.000 C 
ENDROOT
BRANCH   1   4
ATOM      4  C   UNL     1       3.488   3.822  19.858  0.00  0.00    +0.000 A 
ATOM      5  N   UNL     1       3.390   2.916  20.821  0.00  0.00    +0.000 NA
ATOM      6  N   UNL     1       4.380   2.010  20.623  0.00  0.00    +0.000 NA
ATOM      7  N   UNL     1       5.117   2.338  19.580  0.00  0.00    +0.000 NA
ATOM      8  N   UNL     1       4.622   3.505  19.091  0.00  0.00    +0.000 N 
BRANCH   8   9
ATOM      9  C   UNL     1       5.284   4.144  17.994  0.00  0.00    +0.000 A 
ATOM     10  C   UNL     1       6.336   5.080  18.222  0.00  0.00    +0.000 A 
ATOM     11  C   UNL     1       6.818   5.585  19.561  0.00  0.00    +0.000 C 
ATOM     12  C   UNL     1       7.001   5.652  17.115  0.00  0.00    +0.000 A 
ATOM     13  C   UNL     1       6.685   5.295  15.813  0.00  0.00    +0.000 A 
ATOM     14  C   UNL     1       5.632   4.427  15.590  0.00  0.00    +0.000 A 
ATOM     15  C   UNL     1       4.883   3.902  16.661  0.00  0.00    +0.000 A 
ATOM     16  C   UNL     1       3.580   3.281  16.247  0.00  0.00    +0.000 C 
ENDBRANCH   8   9
ENDBRANCH   1   4
BRANCH   1  17
ATOM     17  N   UNL     1       2.969   6.264  19.582  0.00  0.00    +0.000 N 
ATOM     18  H   UNL     1       3.898   6.297  19.170  0.00  0.00    +0.000 HD
BRANCH  17  23
ATOM     19  C   UNL     1       0.989   9.401  20.071  0.00  0.00    +0.000 A 
ATOM     20  C   UNL     1       1.153   9.995  18.825  0.00  0.00    +0.000 A 
ATOM     21  C   UNL     1       1.908   9.351  17.850  0.00  0.00    +0.000 A 
ATOM     22  C   UNL     1       2.492   8.106  18.114  0.00  0.00    +0.000 A 
ATOM     23  C   UNL     1       2.303   7.464  19.349  0.00  0.00    +0.000 A 
ATOM     24  C   UNL     1       1.569   8.151  20.313  0.00  0.00    +0.000 A 
BRANCH  19  26
ATOM     25  C   UNL     1      -0.223   9.351  22.107  0.00  0.00    +0.000 C 
ATOM     26  O   UNL     1       0.238  10.096  20.985  0.00  0.00    +0.000 OA
ENDBRANCH  19  26
ENDBRANCH  17  23
ENDBRANCH   1  17
TORSDOF 5
ENDMDL
MODEL 4
REMARK VINA RESULT:      -7.4      3.781      7.273
REMARK  Name = 
REMARK  10 active torsions:
REMARK  status: ('A' for Active; 'I' for Inactive)
REMARK    1  A    between atoms: C_1  and  O_2
REMARK    2  A    between atoms: O_2  and  C_3
REMARK    3  A    between atoms: C_7  and  N_8
REMARK    4  A    between atoms: N_8  and  C_9
REMARK    5  A    between atoms: C_9  and  C_10
REMARK    6  A    between atoms: C_9  and  C_11
REMARK    7  A    between atoms: C_9  and  C_12
REMARK    8  A    between atoms: N_16  and  C_17
REMARK    9  A    between atoms: C_18  and  C_19
REMARK   10  A    between atoms: C_23  and  C_24
REMARK                            x       y       z     vdW  Elec       q    Type
REMARK                         _______ _______ _______ _____ _____    ______ ____
ROOT
ATOM      1  C   UNL     1       5.816   5.275  16.417  0.00  0.00    +0.000 C 
ATOM      2  C   UNL     1       5.039   6.609  16.227  0.00  0.00    +0.000 C 
ATOM      3  C   UNL     1       4.813   4.134  16.075  0.00  0.00    +0.000 C 
ENDROOT
BRANCH   1   4
ATOM      4  C   UNL     1       6.179   5.129  17.899  0.00  0.00    +0.000 A 
ATOM      5  N   UNL     1       7.388   5.412  18.364  0.00  0.00    +0.000 NA
ATOM      6  N   UNL     1       7.317   5.377  19.719  0.00  0.00    +0.000 NA
ATOM      7  N   UNL     1       6.104   5.050  20.118  0.00  0.00    +0.000 NA
ATOM      8  N   UNL     1       5.359   4.834  19.003  0.00  0.00    +0.000 N 
BRANCH   8   9
ATOM      9  C   UNL     1       4.008   4.381  19.137  0.00  0.00    +0.000 A 
ATOM     10  C   UNL     1       2.920   5.300  19.070  0.00  0.00    +0.000 A 
ATOM     11  C   UNL     1       3.017   6.803  18.956  0.00  0.00    +0.000 C 
ATOM     12  C   UNL     1       1.597   4.811  19.154  0.00  0.00    +0.000 A 
ATOM     13  C   UNL     1       1.329   3.454  19.258  0.00  0.00    +0.000 A 
ATOM     14  C   UNL     1       2.384   2.567  19.374  0.00  0.00    +0.000 A 
ATOM     15  C   UNL     1       3.718   3.020  19.386  0.00  0.00    +0.000 A 
ATOM     16  C   UNL     1       4.704   1.999  19.872  0.00  0.00    +0.000 C 
ENDBRANCH   8   9
ENDBRANCH   1   4
BRANCH   1  17
ATOM     17  N   UNL     1       6.989   5.153  15.522  0.00  0.00    +0.000 N 
ATOM     18  H   UNL     1       7.824   4.844  16.012  0.00  0.00    +0.000 HD
BRANCH  17  23
ATOM     19  C   UNL     1       6.243   3.368  12.320  0.00  0.00    +0.000 A 
ATOM     20  C   UNL     1       7.051   4.083  11.443  0.00  0.00    +0.000 A 
ATOM     21  C   UNL     1       7.825   5.134  11.923  0.00  0.00    +0.000 A 
ATOM     22  C   UNL     1       7.804   5.466  13.283  0.00  0.00    +0.000 A 
ATOM     23  C   UNL     1       7.031   4.730  14.197  0.00  0.00    +0.000 A 
ATOM     24  C   UNL     1       6.242   3.706  13.677  0.00  0.00    +0.000 A 
BRANCH  19  26
ATOM     25  C   UNL     1       6.240   1.311  11.143  0.00  0.00    +0.000 C 
ATOM     26  O   UNL     1       5.501   2.351  11.775  0.00  0.00    +0.000 OA
ENDBRANCH  19  26
ENDBRANCH  17  23
ENDBRANCH   1  17
TORSDOF 5
ENDMDL
MODEL 5
REMARK VINA RESULT:      -7.0      0.835      1.520
REMARK  Name = 
REMARK  10 active torsions:
REMARK  status: ('A' for Active; 'I' for Inactive)
REMARK    1  A    between atoms: C_1  and  O_2
REMARK    2  A    between atoms: O_2  and  C_3
REMARK    3  A    between atoms: C_7  and  N_8
REMARK    4  A    between atoms: N_8  and  C_9
REMARK    5  A    between atoms: C_9  and  C_10
REMARK    6  A    between atoms: C_9  and  C_11
REMARK    7  A    between atoms: C_9  and  C_12
REMARK    8  A    between atoms: N_16  and  C_17
REMARK    9  A    between atoms: C_18  and  C_19
REMARK   10  A    between atoms: C_23  and  C_24
REMARK                            x       y       z     vdW  Elec       q    Type
REMARK                         _______ _______ _______ _____ _____    ______ ____
ROOT
ATOM      1  C   UNL     1       2.411   5.062  19.531  0.00  0.00    +0.000 C 
ATOM      2  C   UNL     1       1.211   4.633  20.422  0.00  0.00    +0.000 C 
ATOM      3  C   UNL     1       1.923   4.950  18.057  0.00  0.00    +0.000 C 
ENDROOT
BRANCH   1   4
ATOM      4  C   UNL     1       3.542   4.041  19.711  0.00  0.00    +0.000 A 
ATOM      5  N   UNL     1       3.435   3.003  20.530  0.00  0.00    +0.000 NA
ATOM      6  N   UNL     1       4.505   2.200  20.302  0.00  0.00    +0.000 NA
ATOM      7  N   UNL     1       5.297   2.720  19.385  0.00  0.00    +0.000 NA
ATOM      8  N   UNL     1       4.756   3.909  19.016  0.00  0.00    +0.000 N 
BRANCH   8   9
ATOM      9  C   UNL     1       5.455   4.740  18.081  0.00  0.00    +0.000 A 
ATOM     10  C   UNL     1       5.174   4.665  16.686  0.00  0.00    +0.000 A 
ATOM     11  C   UNL     1       4.233   3.698  16.008  0.00  0.00    +0.000 C 
ATOM     12  C   UNL     1       5.846   5.536  15.799  0.00  0.00    +0.000 A 
ATOM     13  C   UNL     1       6.741   6.490  16.257  0.00  0.00    +0.000 A 
ATOM     14  C   UNL     1       7.052   6.529  17.604  0.00  0.00    +0.000 A 
ATOM     15  C   UNL     1       6.474   5.620  18.511  0.00  0.00    +0.000 A 
ATOM     16  C   UNL     1       7.172   5.557  19.839  0.00  0.00    +0.000 C 
ENDBRANCH   8   9
ENDBRANCH   1   4
BRANCH   1  17
ATOM     17  N   UNL     1       2.849   6.454  19.776  0.00  0.00    +0.000 N 
ATOM     18  H   UNL     1       3.687   6.699  19.255  0.00  0.00    +0.000 HD
BRANCH  17  23
ATOM     19  C   UNL     1       0.901   9.597  19.204  0.00  0.00    +0.000 A 
ATOM     20  C   UNL     1       0.306   9.750  20.451  0.00  0.00    +0.000 A 
ATOM     21  C   UNL     1       0.559   8.820  21.453  0.00  0.00    +0.000 A 
ATOM     22  C   UNL     1       1.418   7.740  21.216  0.00  0.00    +0.000 A 
ATOM     23  C   UNL     1       2.068   7.587  19.980  0.00  0.00    +0.000 A 
ATOM     24  C   UNL     1       1.765   8.518  18.988  0.00  0.00    +0.000 A 
BRANCH  19  26
ATOM     25  C   UNL     1      -0.449  11.449  18.601  0.00  0.00    +0.000 C 
ATOM     26  O   UNL     1       0.599  10.547  18.262  0.00  0.00    +0.000 OA
ENDBRANCH  19  26
ENDBRANCH  17  23
ENDBRANCH   1  17
TORSDOF 5
ENDMDL
MODEL 6
REMARK VINA RESULT:      -7.0      3.356      6.854
REMARK  Name = 
REMARK  10 active torsions:
REMARK  status: ('A' for Active; 'I' for Inactive)
REMARK    1  A    between atoms: C_1  and  O_2
REMARK    2  A    between atoms: O_2  and  C_3
REMARK    3  A    between atoms: C_7  and  N_8
REMARK    4  A    between atoms: N_8  and  C_9
REMARK    5  A    between atoms: C_9  and  C_10
REMARK    6  A    between atoms: C_9  and  C_11
REMARK    7  A    between atoms: C_9  and  C_12
REMARK    8  A    between atoms: N_16  and  C_17
REMARK    9  A    between atoms: C_18  and  C_19
REMARK   10  A    between atoms: C_23  and  C_24
REMARK                            x       y       z     vdW  Elec       q    Type
REMARK                         _______ _______ _______ _____ _____    ______ ____
ROOT
ATOM      1  C   UNL     1       5.809   4.864  18.412  0.00  0.00    +0.000 C 
ATOM      2  C   UNL     1       5.453   4.164  19.754  0.00  0.00    +0.000 C 
ATOM      3  C   UNL     1       7.106   5.684  18.678  0.00  0.00    +0.000 C 
ENDROOT
BRANCH   1   4
ATOM      4  C   UNL     1       4.700   5.868  18.077  0.00  0.00    +0.000 A 
ATOM      5  N   UNL     1       4.943   7.008  17.443  0.00  0.00    +0.000 NA
ATOM      6  N   UNL     1       3.743   7.555  17.124  0.00  0.00    +0.000 NA
ATOM      7  N   UNL     1       2.752   6.807  17.568  0.00  0.00    +0.000 NA
ATOM      8  N   UNL     1       3.306   5.753  18.221  0.00  0.00    +0.000 N 
BRANCH   8   9
ATOM      9  C   UNL     1       2.456   4.810  18.882  0.00  0.00    +0.000 A 
ATOM     10  C   UNL     1       2.148   3.556  18.277  0.00  0.00    +0.000 A 
ATOM     11  C   UNL     1       2.558   3.097  16.899  0.00  0.00    +0.000 C 
ATOM     12  C   UNL     1       1.348   2.628  18.982  0.00  0.00    +0.000 A 
ATOM     13  C   UNL     1       0.889   2.890  20.264  0.00  0.00    +0.000 A 
ATOM     14  C   UNL     1       1.145   4.125  20.830  0.00  0.00    +0.000 A 
ATOM     15  C   UNL     1       1.862   5.114  20.129  0.00  0.00    +0.000 A 
ATOM     16  C   UNL     1       1.743   6.489  20.719  0.00  0.00    +0.000 C 
ENDBRANCH   8   9
ENDBRANCH   1   4
BRANCH   1  17
ATOM     17  N   UNL     1       6.073   3.910  17.311  0.00  0.00    +0.000 N 
ATOM     18  H   UNL     1       5.585   3.028  17.432  0.00  0.00    +0.000 HD
BRANCH  17  23
ATOM     19  C   UNL     1       7.505   5.081  14.059  0.00  0.00    +0.000 A 
ATOM     20  C   UNL     1       6.617   4.487  13.169  0.00  0.00    +0.000 A 
ATOM     21  C   UNL     1       5.566   3.718  13.656  0.00  0.00    +0.000 A 
ATOM     22  C   UNL     1       5.392   3.549  15.035  0.00  0.00    +0.000 A 
ATOM     23  C   UNL     1       6.248   4.175  15.956  0.00  0.00    +0.000 A 
ATOM     24  C   UNL     1       7.310   4.911  15.433  0.00  0.00    +0.000 A 
BRANCH  19  26
ATOM     25  C   UNL     1       8.377   6.144  12.128  0.00  0.00    +0.000 C 
ATOM     26  O   UNL     1       8.522   5.818  13.506  0.00  0.00    +0.000 OA
ENDBRANCH  19  26
ENDBRANCH  17  23
ENDBRANCH   1  17
TORSDOF 5
ENDMDL
MODEL 7
REMARK VINA RESULT:      -6.9      3.631      7.004
REMARK  Name = 
REMARK  10 active torsions:
REMARK  status: ('A' for Active; 'I' for Inactive)
REMARK    1  A    between atoms: C_1  and  O_2
REMARK    2  A    between atoms: O_2  and  C_3
REMARK    3  A    between atoms: C_7  and  N_8
REMARK    4  A    between atoms: N_8  and  C_9
REMARK    5  A    between atoms: C_9  and  C_10
REMARK    6  A    between atoms: C_9  and  C_11
REMARK    7  A    between atoms: C_9  and  C_12
REMARK    8  A    between atoms: N_16  and  C_17
REMARK    9  A    between atoms: C_18  and  C_19
REMARK   10  A    between atoms: C_23  and  C_24
REMARK                            x       y       z     vdW  Elec       q    Type
REMARK                         _______ _______ _______ _____ _____    ______ ____
ROOT
ATOM      1  C   UNL     1       6.702   5.828  16.581  0.00  0.00    +0.000 C 
ATOM      2  C   UNL     1       7.443   7.195  16.599  0.00  0.00    +0.000 C 
ATOM      3  C   UNL     1       5.288   6.105  15.992  0.00  0.00    +0.000 C 
ENDROOT
BRANCH   1   4
ATOM      4  C   UNL     1       6.504   5.362  18.029  0.00  0.00    +0.000 A 
ATOM      5  N   UNL     1       7.486   5.385  18.921  0.00  0.00    +0.000 NA
ATOM      6  N   UNL     1       6.936   5.111  20.132  0.00  0.00    +0.000 NA
ATOM      7  N   UNL     1       5.641   4.888  20.020  0.00  0.00    +0.000 NA
ATOM      8  N   UNL     1       5.329   4.986  18.702  0.00  0.00    +0.000 N 
BRANCH   8   9
ATOM      9  C   UNL     1       3.991   4.708  18.274  0.00  0.00    +0.000 A 
ATOM     10  C   UNL     1       3.658   3.450  17.693  0.00  0.00    +0.000 A 
ATOM     11  C   UNL     1       4.613   2.326  17.368  0.00  0.00    +0.000 C 
ATOM     12  C   UNL     1       2.316   3.192  17.329  0.00  0.00    +0.000 A 
ATOM     13  C   UNL     1       1.310   4.116  17.562  0.00  0.00    +0.000 A 
ATOM     14  C   UNL     1       1.641   5.356  18.078  0.00  0.00    +0.000 A 
ATOM     15  C   UNL     1       2.978   5.689  18.372  0.00  0.00    +0.000 A 
ATOM     16  C   UNL     1       3.210   7.158  18.575  0.00  0.00    +0.000 C 
ENDBRANCH   8   9
ENDBRANCH   1   4
BRANCH   1  17
ATOM     17  N   UNL     1       7.373   4.813  15.738  0.00  0.00    +0.000 N 
ATOM     18  H   UNL     1       7.512   3.931  16.223  0.00  0.00    +0.000 HD
BRANCH  17  23
ATOM     19  C   UNL     1       6.152   3.539  12.438  0.00  0.00    +0.000 A 
ATOM     20  C   UNL     1       6.879   4.351  11.575  0.00  0.00    +0.000 A 
ATOM     21  C   UNL     1       7.756   5.297  12.095  0.00  0.00    +0.000 A 
ATOM     22  C   UNL     1       7.919   5.427  13.479  0.00  0.00    +0.000 A 
ATOM     23  C   UNL     1       7.230   4.588  14.372  0.00  0.00    +0.000 A 
ATOM     24  C   UNL     1       6.335   3.675  13.818  0.00  0.00    +0.000 A 
BRANCH  19  26
ATOM     25  C   UNL     1       4.120   3.177  11.274  0.00  0.00    +0.000 C 
ATOM     26  O   UNL     1       5.301   2.635  11.855  0.00  0.00    +0.000 OA
ENDBRANCH  19  26
ENDBRANCH  17  23
ENDBRANCH   1  17
TORSDOF 5
ENDMDL
MODEL 8
REMARK VINA RESULT:      -6.9      3.542      7.105
REMARK  Name = 
REMARK  10 active torsions:
REMARK  status: ('A' for Active; 'I' for Inactive)
REMARK    1  A    between atoms: C_1  and  O_2
REMARK    2  A    between atoms: O_2  and  C_3
REMARK    3  A    between atoms: C_7  and  N_8
REMARK    4  A    between atoms: N_8  and  C_9
REMARK    5  A    between atoms: C_9  and  C_10
REMARK    6  A    between atoms: C_9  and  C_11
REMARK    7  A    between atoms: C_9  and  C_12
REMARK    8  A    between atoms: N_16  and  C_17
REMARK    9  A    between atoms: C_18  and  C_19
REMARK   10  A    between atoms: C_23  and  C_24
REMARK                            x       y       z     vdW  Elec       q    Type
REMARK                         _______ _______ _______ _____ _____    ______ ____
ROOT
ATOM      1  C   UNL     1       5.086   4.337  16.645  0.00  0.00    +0.000 C 
ATOM      2  C   UNL     1       4.688   5.739  16.102  0.00  0.00    +0.000 C 
ATOM      3  C   UNL     1       3.753   3.580  16.920  0.00  0.00    +0.000 C 
ENDROOT
BRANCH   1   4
ATOM      4  C   UNL     1       5.789   4.519  17.995  0.00  0.00    +0.000 A 
ATOM      5  N   UNL     1       7.085   4.785  18.089  0.00  0.00    +0.000 NA
ATOM      6  N   UNL     1       7.341   5.086  19.387  0.00  0.00    +0.000 NA
ATOM      7  N   UNL     1       6.248   4.986  20.118  0.00  0.00    +0.000 NA
ATOM      8  N   UNL     1       5.249   4.581  19.291  0.00  0.00    +0.000 N 
BRANCH   8   9
ATOM      9  C   UNL     1       3.953   4.310  19.835  0.00  0.00    +0.000 A 
ATOM     10  C   UNL     1       3.613   3.004  20.295  0.00  0.00    +0.000 A 
ATOM     11  C   UNL     1       4.469   1.764  20.197  0.00  0.00    +0.000 C 
ATOM     12  C   UNL     1       2.342   2.785  20.873  0.00  0.00    +0.000 A 
ATOM     13  C   UNL     1       1.434   3.818  21.043  0.00  0.00    +0.000 A 
ATOM     14  C   UNL     1       1.742   5.073  20.552  0.00  0.00    +0.000 A 
ATOM     15  C   UNL     1       2.961   5.316  19.888  0.00  0.00    +0.000 A 
ATOM     16  C   UNL     1       2.988   6.601  19.114  0.00  0.00    +0.000 C 
ENDBRANCH   8   9
ENDBRANCH   1   4
BRANCH   1  17
ATOM     17  N   UNL     1       5.885   3.546  15.681  0.00  0.00    +0.000 N 
ATOM     18  H   UNL     1       5.658   2.556  15.705  0.00  0.00    +0.000 HD
BRANCH  17  23
ATOM     19  C   UNL     1       7.752   5.156  12.867  0.00  0.00    +0.000 A 
ATOM     20  C   UNL     1       7.262   4.423  11.792  0.00  0.00    +0.000 A 
ATOM     21  C   UNL     1       6.327   3.417  12.015  0.00  0.00    +0.000 A 
ATOM     22  C   UNL     1       5.870   3.150  13.311  0.00  0.00    +0.000 A 
ATOM     23  C   UNL     1       6.315   3.906  14.408  0.00  0.00    +0.000 A 
ATOM     24  C   UNL     1       7.276   4.883  14.153  0.00  0.00    +0.000 A 
BRANCH  19  26
ATOM     25  C   UNL     1       8.452   6.858  11.373  0.00  0.00    +0.000 C 
ATOM     26  O   UNL     1       8.678   6.125  12.573  0.00  0.00    +0.000 OA
ENDBRANCH  19  26
ENDBRANCH  17  23
ENDBRANCH   1  17
TORSDOF 5
ENDMDL
MODEL 9
REMARK VINA RESULT:      -6.9      3.394      6.931
REMARK  Name = 
REMARK  10 active torsions:
REMARK  status: ('A' for Active; 'I' for Inactive)
REMARK    1  A    between atoms: C_1  and  O_2
REMARK    2  A    between atoms: O_2  and  C_3
REMARK    3  A    between atoms: C_7  and  N_8
REMARK    4  A    between atoms: N_8  and  C_9
REMARK    5  A    between atoms: C_9  and  C_10
REMARK    6  A    between atoms: C_9  and  C_11
REMARK    7  A    between atoms: C_9  and  C_12
REMARK    8  A    between atoms: N_16  and  C_17
REMARK    9  A    between atoms: C_18  and  C_19
REMARK   10  A    between atoms: C_23  and  C_24
REMARK                            x       y       z     vdW  Elec       q    Type
REMARK                         _______ _______ _______ _____ _____    ______ ____
ROOT
ATOM      1  C   UNL     1       5.820   4.783  18.153  0.00  0.00    +0.000 C 
ATOM      2  C   UNL     1       5.585   4.123  19.541  0.00  0.00    +0.000 C 
ATOM      3  C   UNL     1       7.171   5.549  18.256  0.00  0.00    +0.000 C 
ENDROOT
BRANCH   1   4
ATOM      4  C   UNL     1       4.724   5.830  17.919  0.00  0.00    +0.000 A 
ATOM      5  N   UNL     1       4.963   6.982  17.306  0.00  0.00    +0.000 NA
ATOM      6  N   UNL     1       3.762   7.574  17.081  0.00  0.00    +0.000 NA
ATOM      7  N   UNL     1       2.778   6.841  17.562  0.00  0.00    +0.000 NA
ATOM      8  N   UNL     1       3.339   5.750  18.146  0.00  0.00    +0.000 N 
BRANCH   8   9
ATOM      9  C   UNL     1       2.502   4.810  18.829  0.00  0.00    +0.000 A 
ATOM     10  C   UNL     1       2.180   3.555  18.236  0.00  0.00    +0.000 A 
ATOM     11  C   UNL     1       2.560   3.088  16.851  0.00  0.00    +0.000 C 
ATOM     12  C   UNL     1       1.394   2.631  18.962  0.00  0.00    +0.000 A 
ATOM     13  C   UNL     1       0.963   2.899  20.252  0.00  0.00    +0.000 A 
ATOM     14  C   UNL     1       1.232   4.136  20.807  0.00  0.00    +0.000 A 
ATOM     15  C   UNL     1       1.935   5.121  20.086  0.00  0.00    +0.000 A 
ATOM     16  C   UNL     1       1.829   6.498  20.673  0.00  0.00    +0.000 C 
ENDBRANCH   8   9
ENDBRANCH   1   4
BRANCH   1  17
ATOM     17  N   UNL     1       5.920   3.799  17.051  0.00  0.00    +0.000 N 
ATOM     18  H   UNL     1       5.231   3.056  17.127  0.00  0.00    +0.000 HD
BRANCH  17  23
ATOM     19  C   UNL     1       5.768   3.879  13.313  0.00  0.00    +0.000 A 
ATOM     20  C   UNL     1       6.856   4.700  13.038  0.00  0.00    +0.000 A 
ATOM     21  C   UNL     1       7.616   5.209  14.086  0.00  0.00    +0.000 A 
ATOM     22  C   UNL     1       7.300   4.887  15.411  0.00  0.00    +0.000 A 
ATOM     23  C   UNL     1       6.234   4.022  15.714  0.00  0.00    +0.000 A 
ATOM     24  C   UNL     1       5.474   3.559  14.642  0.00  0.00    +0.000 A 
BRANCH  19  26
ATOM     25  C   UNL     1       5.581   2.261  11.591  0.00  0.00    +0.000 C 
ATOM     26  O   UNL     1       5.060   3.421  12.231  0.00  0.00    +0.000 OA
ENDBRANCH  19  26
ENDBRANCH  17  23
ENDBRANCH   1  17
TORSDOF 5
ENDMDL
