MODEL 1
REMARK VINA RESULT:      -6.9      0.000      0.000
REMARK  Name = 
REMARK  13 active torsions:
REMARK  status: ('A' for Active; 'I' for Inactive)
REMARK    1  A    between atoms: C_1  and  O_2
REMARK    2  A    between atoms: O_2  and  C_3
REMARK    3  A    between atoms: C_3  and  C_4
REMARK    4  A    between atoms: C_4  and  O_5
REMARK    5  A    between atoms: O_5  and  C_6
REMARK    6  A    between atoms: C_9  and  C_10
REMARK    7  A    between atoms: C_11  and  C_12
REMARK    8  A    between atoms: C_14  and  O_15
REMARK    9  A    between atoms: O_15  and  C_16
REMARK   10  A    between atoms: C_18  and  O_19
REMARK   11  A    between atoms: O_19  and  C_20
REMARK   12  A    between atoms: C_21  and  C_22
REMARK   13  A    between atoms: C_23  and  N_24
REMARK                            x       y       z     vdW  Elec       q    Type
REMARK                         _______ _______ _______ _____ _____    ______ ____
ROOT
ATOM      1  C   UNL     1      -0.259  10.290  18.557  0.00  0.00    +0.000 A 
ATOM      2  C   UNL     1      -0.962  10.367  17.347  0.00  0.00    +0.000 A 
ATOM      3  C   UNL     1      -2.146  11.095  17.261  0.00  0.00    +0.000 A 
ATOM      4  C   UNL     1      -2.646  11.720  18.401  0.00  0.00    +0.000 A 
ATOM      5  C   UNL     1      -1.985  11.623  19.636  0.00  0.00    +0.000 A 
ATOM      6  C   UNL     1      -0.762  10.920  19.727  0.00  0.00    +0.000 A 
ENDROOT
BRANCH   1   8
ATOM      7  C   UNL     1       1.206   8.398  17.972  0.00  0.00    +0.000 C 
ATOM      8  C   UNL     1       1.037   9.586  18.569  0.00  0.00    +0.000 C 
BRANCH   7  12
ATOM      9  C   UNL     1       4.628   5.837  18.415  0.00  0.00    +0.000 A 
ATOM     10  C   UNL     1       4.570   6.827  17.435  0.00  0.00    +0.000 A 
ATOM     11  C   UNL     1       3.461   7.671  17.337  0.00  0.00    +0.000 A 
ATOM     12  C   UNL     1       2.374   7.532  18.208  0.00  0.00    +0.000 A 
ATOM     13  C   UNL     1       2.448   6.555  19.210  0.00  0.00    +0.000 A 
ATOM     14  C   UNL     1       3.563   5.708  19.303  0.00  0.00    +0.000 A 
BRANCH   9  15
ATOM     15  O   UNL     1       5.661   4.947  18.577  0.00  0.00    +0.000 OA
BRANCH  15  16
ATOM     16  C   UNL     1       6.904   5.364  18.007  0.00  0.00    +0.000 C 
BRANCH  16  17
ATOM     17  C   UNL     1       7.266   4.523  16.793  0.00  0.00    +0.000 C 
BRANCH  17  19
ATOM     18  C   UNL     1       6.955   4.906  14.481  0.00  0.00    +0.000 C 
ATOM     19  O   UNL     1       7.477   5.418  15.697  0.00  0.00    +0.000 OA
ENDBRANCH  17  19
ENDBRANCH  16  17
ENDBRANCH  15  16
ENDBRANCH   9  15
ENDBRANCH   7  12
ENDBRANCH   1   8
BRANCH   3  20
ATOM     20  O   UNL     1      -2.719  11.140  16.018  0.00  0.00    +0.000 OA
ATOM     21  C   UNL     1      -2.966   9.890  15.379  0.00  0.00    +0.000 C 
ENDBRANCH   3  20
BRANCH   5  22
ATOM     22  O   UNL     1      -2.474  12.216  20.776  0.00  0.00    +0.000 OA
ATOM     23  C   UNL     1      -2.324  13.631  20.878  0.00  0.00    +0.000 C 
ENDBRANCH   5  22
BRANCH   6  24
ATOM     24  C   UNL     1      -0.022  10.741  21.006  0.00  0.00    +0.000 C 
ATOM     25  C   UNL     1       0.104   9.596  21.689  0.00  0.00    +0.000 C 
BRANCH  25  26
ATOM     26  N   UNL     1       0.825   9.592  22.944  0.00  0.00    +0.000 N 
ATOM     27  O   UNL     1       2.060   9.494  22.937  0.00  0.00    +0.000 OA
ATOM     28  O   UNL     1       0.129   9.696  23.963  0.00  0.00    +0.000 OA
ENDBRANCH  25  26
ENDBRANCH   6  24
TORSDOF 10
ENDMDL
MODEL 2
REMARK VINA RESULT:      -6.9      3.117      9.194
REMARK  Name = 
REMARK  13 active torsions:
REMARK  status: ('A' for Active; 'I' for Inactive)
REMARK    1  A    between atoms: C_1  and  O_2
REMARK    2  A    between atoms: O_2  and  C_3
REMARK    3  A    between atoms: C_3  and  C_4
REMARK    4  A    between atoms: C_4  and  O_5
REMARK    5  A    between atoms: O_5  and  C_6
REMARK    6  A    between atoms: C_9  and  C_10
REMARK    7  A    between atoms: C_11  and  C_12
REMARK    8  A    between atoms: C_14  and  O_15
REMARK    9  A    between atoms: O_15  and  C_16
REMARK   10  A    between atoms: C_18  and  O_19
REMARK   11  A    between atoms: O_19  and  C_20
REMARK   12  A    between atoms: C_21  and  C_22
REMARK   13  A    between atoms: C_23  and  N_24
REMARK                            x       y       z     vdW  Elec       q    Type
REMARK                         _______ _______ _______ _____ _____    ______ ____
ROOT
ATOM      1  C   UNL     1       3.180   5.658  18.129  0.00  0.00    +0.000 A 
ATOM      2  C   UNL     1       2.175   4.680  18.110  0.00  0.00    +0.000 A 
ATOM      3  C   UNL     1       2.427   3.416  17.583  0.00  0.00    +0.000 A 
ATOM      4  C   UNL     1       3.682   3.141  17.041  0.00  0.00    +0.000 A 
ATOM      5  C   UNL     1       4.692   4.115  17.008  0.00  0.00    +0.000 A 
ATOM      6  C   UNL     1       4.461   5.389  17.575  0.00  0.00    +0.000 A 
ENDROOT
BRANCH   1   8
ATOM      7  C   UNL     1       2.092   7.033  19.858  0.00  0.00    +0.000 C 
ATOM      8  C   UNL     1       2.890   6.946  18.784  0.00  0.00    +0.000 C 
BRANCH   7  12
ATOM      9  C   UNL     1       0.327  10.611  21.454  0.00  0.00    +0.000 A 
ATOM     10  C   UNL     1       0.655   9.525  22.266  0.00  0.00    +0.000 A 
ATOM     11  C   UNL     1       1.262   8.389  21.726  0.00  0.00    +0.000 A 
ATOM     12  C   UNL     1       1.540   8.305  20.357  0.00  0.00    +0.000 A 
ATOM     13  C   UNL     1       1.237   9.408  19.549  0.00  0.00    +0.000 A 
ATOM     14  C   UNL     1       0.624  10.547  20.095  0.00  0.00    +0.000 A 
BRANCH   9  15
ATOM     15  O   UNL     1      -0.290  11.760  21.885  0.00  0.00    +0.000 OA
BRANCH  15  16
ATOM     16  C   UNL     1       0.260  12.968  21.353  0.00  0.00    +0.000 C 
BRANCH  16  17
ATOM     17  C   UNL     1      -0.186  14.179  22.158  0.00  0.00    +0.000 C 
BRANCH  17  19
ATOM     18  C   UNL     1      -1.298  14.749  24.164  0.00  0.00    +0.000 C 
ATOM     19  O   UNL     1      -0.757  13.700  23.378  0.00  0.00    +0.000 OA
ENDBRANCH  17  19
ENDBRANCH  16  17
ENDBRANCH  15  16
ENDBRANCH   9  15
ENDBRANCH   7  12
ENDBRANCH   1   8
BRANCH   3  20
ATOM     20  O   UNL     1       1.389   2.528  17.663  0.00  0.00    +0.000 OA
ATOM     21  C   UNL     1       0.699   2.457  18.908  0.00  0.00    +0.000 C 
ENDBRANCH   3  20
BRANCH   5  22
ATOM     22  O   UNL     1       5.928   3.869  16.459  0.00  0.00    +0.000 OA
ATOM     23  C   UNL     1       6.011   3.877  15.035  0.00  0.00    +0.000 C 
ENDBRANCH   5  22
BRANCH   6  24
ATOM     24  C   UNL     1       5.467   6.485  17.545  0.00  0.00    +0.000 C 
ATOM     25  C   UNL     1       6.740   6.397  17.951  0.00  0.00    +0.000 C 
BRANCH  25  26
ATOM     26  N   UNL     1       7.588   7.569  17.897  0.00  0.00    +0.000 N 
ATOM     27  O   UNL     1       8.492   7.706  18.734  0.00  0.00    +0.000 OA
ATOM     28  O   UNL     1       7.340   8.369  16.985  0.00  0.00    +0.000 OA
ENDBRANCH  25  26
ENDBRANCH   6  24
TORSDOF 10
ENDMDL
MODEL 3
REMARK VINA RESULT:      -6.9      2.963      9.088
REMARK  Name = 
REMARK  13 active torsions:
REMARK  status: ('A' for Active; 'I' for Inactive)
REMARK    1  A    between atoms: C_1  and  O_2
REMARK    2  A    between atoms: O_2  and  C_3
REMARK    3  A    between atoms: C_3  and  C_4
REMARK    4  A    between atoms: C_4  and  O_5
REMARK    5  A    between atoms: O_5  and  C_6
REMARK    6  A    between atoms: C_9  and  C_10
REMARK    7  A    between atoms: C_11  and  C_12
REMARK    8  A    between atoms: C_14  and  O_15
REMARK    9  A    between atoms: O_15  and  C_16
REMARK   10  A    between atoms: C_18  and  O_19
REMARK   11  A    between atoms: O_19  and  C_20
REMARK   12  A    between atoms: C_21  and  C_22
REMARK   13  A    between atoms: C_23  and  N_24
REMARK                            x       y       z     vdW  Elec       q    Type
REMARK                         _______ _______ _______ _____ _____    ______ ____
ROOT
ATOM      1  C   UNL     1       3.310   5.597  18.021  0.00  0.00    +0.000 A 
ATOM      2  C   UNL     1       2.334   4.592  17.986  0.00  0.00    +0.000 A 
ATOM      3  C   UNL     1       2.618   3.348  17.428  0.00  0.00    +0.000 A 
ATOM      4  C   UNL     1       3.875   3.122  16.871  0.00  0.00    +0.000 A 
ATOM      5  C   UNL     1       4.857   4.125  16.854  0.00  0.00    +0.000 A 
ATOM      6  C   UNL     1       4.595   5.378  17.452  0.00  0.00    +0.000 A 
ENDROOT
BRANCH   1   8
ATOM      7  C   UNL     1       2.187   6.901  19.782  0.00  0.00    +0.000 C 
ATOM      8  C   UNL     1       2.988   6.861  18.708  0.00  0.00    +0.000 C 
BRANCH   7  12
ATOM      9  C   UNL     1       0.651  10.660  21.190  0.00  0.00    +0.000 A 
ATOM     10  C   UNL     1       0.939  10.438  19.843  0.00  0.00    +0.000 A 
ATOM     11  C   UNL     1       1.402   9.195  19.408  0.00  0.00    +0.000 A 
ATOM     12  C   UNL     1       1.605   8.147  20.313  0.00  0.00    +0.000 A 
ATOM     13  C   UNL     1       1.287   8.363  21.660  0.00  0.00    +0.000 A 
ATOM     14  C   UNL     1       0.824   9.615  22.094  0.00  0.00    +0.000 A 
BRANCH   9  15
ATOM     15  O   UNL     1       0.213  11.849  21.718  0.00  0.00    +0.000 OA
BRANCH  15  16
ATOM     16  C   UNL     1      -0.808  11.723  22.710  0.00  0.00    +0.000 C 
BRANCH  16  17
ATOM     17  C   UNL     1      -1.761  12.908  22.678  0.00  0.00    +0.000 C 
BRANCH  17  19
ATOM     18  C   UNL     1      -3.048  13.207  20.717  0.00  0.00    +0.000 C 
ATOM     19  O   UNL     1      -1.786  13.404  21.337  0.00  0.00    +0.000 OA
ENDBRANCH  17  19
ENDBRANCH  16  17
ENDBRANCH  15  16
ENDBRANCH   9  15
ENDBRANCH   7  12
ENDBRANCH   1   8
BRANCH   3  20
ATOM     20  O   UNL     1       1.605   2.429  17.494  0.00  0.00    +0.000 OA
ATOM     21  C   UNL     1       1.002   2.229  18.770  0.00  0.00    +0.000 C 
ENDBRANCH   3  20
BRANCH   5  22
ATOM     22  O   UNL     1       6.096   3.927  16.291  0.00  0.00    +0.000 OA
ATOM     23  C   UNL     1       6.155   3.896  14.866  0.00  0.00    +0.000 C 
ENDBRANCH   5  22
BRANCH   6  24
ATOM     24  C   UNL     1       5.569   6.503  17.442  0.00  0.00    +0.000 C 
ATOM     25  C   UNL     1       6.800   6.483  17.967  0.00  0.00    +0.000 C 
BRANCH  25  26
ATOM     26  N   UNL     1       7.617   7.677  17.912  0.00  0.00    +0.000 N 
ATOM     27  O   UNL     1       8.520   7.835  18.746  0.00  0.00    +0.000 OA
ATOM     28  O   UNL     1       7.346   8.471  17.003  0.00  0.00    +0.000 OA
ENDBRANCH  25  26
ENDBRANCH   6  24
TORSDOF 10
ENDMDL
MODEL 4
REMARK VINA RESULT:      -6.8      1.026      1.108
REMARK  Name = 
REMARK  13 active torsions:
REMARK  status: ('A' for Active; 'I' for Inactive)
REMARK    1  A    between atoms: C_1  and  O_2
REMARK    2  A    between atoms: O_2  and  C_3
REMARK    3  A    between atoms: C_3  and  C_4
REMARK    4  A    between atoms: C_4  and  O_5
REMARK    5  A    between atoms: O_5  and  C_6
REMARK    6  A    between atoms: C_9  and  C_10
REMARK    7  A    between atoms: C_11  and  C_12
REMARK    8  A    between atoms: C_14  and  O_15
REMARK    9  A    between atoms: O_15  and  C_16
REMARK   10  A    between atoms: C_18  and  O_19
REMARK   11  A    between atoms: O_19  and  C_20
REMARK   12  A    between atoms: C_21  and  C_22
REMARK   13  A    between atoms: C_23  and  N_24
REMARK                            x       y       z     vdW  Elec       q    Type
REMARK                         _______ _______ _______ _____ _____    ______ ____
ROOT
ATOM      1  C   UNL     1      -0.659   9.966  18.351  0.00  0.00    +0.000 A 
ATOM      2  C   UNL     1      -1.185   9.735  17.072  0.00  0.00    +0.000 A 
ATOM      3  C   UNL     1      -2.228  10.518  16.584  0.00  0.00    +0.000 A 
ATOM      4  C   UNL     1      -2.769  11.514  17.394  0.00  0.00    +0.000 A 
ATOM      5  C   UNL     1      -2.290  11.739  18.694  0.00  0.00    +0.000 A 
ATOM      6  C   UNL     1      -1.206  10.978  19.186  0.00  0.00    +0.000 A 
ENDROOT
BRANCH   1   8
ATOM      7  C   UNL     1       1.516   8.883  17.947  0.00  0.00    +0.000 C 
ATOM      8  C   UNL     1       0.507   9.172  18.781  0.00  0.00    +0.000 C 
BRANCH   7  12
ATOM      9  C   UNL     1       4.489   5.839  18.548  0.00  0.00    +0.000 A 
ATOM     10  C   UNL     1       4.532   6.706  17.457  0.00  0.00    +0.000 A 
ATOM     11  C   UNL     1       3.573   7.711  17.306  0.00  0.00    +0.000 A 
ATOM     12  C   UNL     1       2.538   7.861  18.235  0.00  0.00    +0.000 A 
ATOM     13  C   UNL     1       2.514   7.007  19.346  0.00  0.00    +0.000 A 
ATOM     14  C   UNL     1       3.478   5.997  19.492  0.00  0.00    +0.000 A 
BRANCH   9  15
ATOM     15  O   UNL     1       5.369   4.809  18.773  0.00  0.00    +0.000 OA
BRANCH  15  16
ATOM     16  C   UNL     1       5.957   4.258  17.593  0.00  0.00    +0.000 C 
BRANCH  16  17
ATOM     17  C   UNL     1       7.434   4.611  17.493  0.00  0.00    +0.000 C 
BRANCH  17  19
ATOM     18  C   UNL     1       6.648   4.439  15.270  0.00  0.00    +0.000 C 
ATOM     19  O   UNL     1       7.745   4.772  16.106  0.00  0.00    +0.000 OA
ENDBRANCH  17  19
ENDBRANCH  16  17
ENDBRANCH  15  16
ENDBRANCH   9  15
ENDBRANCH   7  12
ENDBRANCH   1   8
BRANCH   3  20
ATOM     20  O   UNL     1      -2.628  10.234  15.306  0.00  0.00    +0.000 OA
ATOM     21  C   UNL     1      -3.960  10.600  14.954  0.00  0.00    +0.000 C 
ENDBRANCH   3  20
BRANCH   5  22
ATOM     22  O   UNL     1      -2.825  12.704  19.515  0.00  0.00    +0.000 OA
ATOM     23  C   UNL     1      -4.176  12.514  19.933  0.00  0.00    +0.000 C 
ENDBRANCH   5  22
BRANCH   6  24
ATOM     24  C   UNL     1      -0.666  11.130  20.565  0.00  0.00    +0.000 C 
ATOM     25  C   UNL     1      -0.962  10.354  21.616  0.00  0.00    +0.000 C 
BRANCH  25  26
ATOM     26  N   UNL     1      -0.384  10.657  22.909  0.00  0.00    +0.000 N 
ATOM     27  O   UNL     1       0.335   9.815  23.466  0.00  0.00    +0.000 OA
ATOM     28  O   UNL     1      -0.657  11.772  23.370  0.00  0.00    +0.000 OA
ENDBRANCH  25  26
ENDBRANCH   6  24
TORSDOF 10
ENDMDL
MODEL 5
REMARK VINA RESULT:      -6.8      3.203      8.698
REMARK  Name = 
REMARK  13 active torsions:
REMARK  status: ('A' for Active; 'I' for Inactive)
REMARK    1  A    between atoms: C_1  and  O_2
REMARK    2  A    between atoms: O_2  and  C_3
REMARK    3  A    between atoms: C_3  and  C_4
REMARK    4  A    between atoms: C_4  and  O_5
REMARK    5  A    between atoms: O_5  and  C_6
REMARK    6  A    between atoms: C_9  and  C_10
REMARK    7  A    between atoms: C_11  and  C_12
REMARK    8  A    between atoms: C_14  and  O_15
REMARK    9  A    between atoms: O_15  and  C_16
REMARK   10  A    between atoms: C_18  and  O_19
REMARK   11  A    between atoms: O_19  and  C_20
REMARK   12  A    between atoms: C_21  and  C_22
REMARK   13  A    between atoms: C_23  and  N_24
REMARK                            x       y       z     vdW  Elec       q    Type
REMARK                         _______ _______ _______ _____ _____    ______ ____
ROOT
ATOM      1  C   UNL     1       3.443   5.381  18.233  0.00  0.00    +0.000 A 
ATOM      2  C   UNL     1       2.473   4.369  18.230  0.00  0.00    +0.000 A 
ATOM      3  C   UNL     1       2.729   3.144  17.618  0.00  0.00    +0.000 A 
ATOM      4  C   UNL     1       3.950   2.945  16.977  0.00  0.00    +0.000 A 
ATOM      5  C   UNL     1       4.923   3.956  16.928  0.00  0.00    +0.000 A 
ATOM      6  C   UNL     1       4.690   5.189  17.578  0.00  0.00    +0.000 A 
ENDROOT
BRANCH   1   8
ATOM      7  C   UNL     1       2.039   6.773  19.700  0.00  0.00    +0.000 C 
ATOM      8  C   UNL     1       3.157   6.622  18.976  0.00  0.00    +0.000 C 
BRANCH   7  12
ATOM      9  C   UNL     1       0.836  10.682  21.019  0.00  0.00    +0.000 A 
ATOM     10  C   UNL     1       1.014  10.382  19.669  0.00  0.00    +0.000 A 
ATOM     11  C   UNL     1       1.369   9.093  19.266  0.00  0.00    +0.000 A 
ATOM     12  C   UNL     1       1.572   8.076  20.206  0.00  0.00    +0.000 A 
ATOM     13  C   UNL     1       1.364   8.373  21.560  0.00  0.00    +0.000 A 
ATOM     14  C   UNL     1       1.010   9.671  21.961  0.00  0.00    +0.000 A 
BRANCH   9  15
ATOM     15  O   UNL     1       0.510  11.920  21.516  0.00  0.00    +0.000 OA
BRANCH  15  16
ATOM     16  C   UNL     1       0.762  13.007  20.624  0.00  0.00    +0.000 C 
BRANCH  16  17
ATOM     17  C   UNL     1       2.070  13.707  20.959  0.00  0.00    +0.000 C 
BRANCH  17  19
ATOM     18  C   UNL     1       2.426  13.785  18.623  0.00  0.00    +0.000 C 
ATOM     19  O   UNL     1       2.423  14.521  19.837  0.00  0.00    +0.000 OA
ENDBRANCH  17  19
ENDBRANCH  16  17
ENDBRANCH  15  16
ENDBRANCH   9  15
ENDBRANCH   7  12
ENDBRANCH   1   8
BRANCH   3  20
ATOM     20  O   UNL     1       1.729   2.215  17.721  0.00  0.00    +0.000 OA
ATOM     21  C   UNL     1       0.787   2.400  18.774  0.00  0.00    +0.000 C 
ENDBRANCH   3  20
BRANCH   5  22
ATOM     22  O   UNL     1       6.125   3.785  16.282  0.00  0.00    +0.000 OA
ATOM     23  C   UNL     1       6.097   3.819  14.856  0.00  0.00    +0.000 C 
ENDBRANCH   5  22
BRANCH   6  24
ATOM     24  C   UNL     1       5.654   6.322  17.539  0.00  0.00    +0.000 C 
ATOM     25  C   UNL     1       6.927   6.287  17.954  0.00  0.00    +0.000 C 
BRANCH  25  26
ATOM     26  N   UNL     1       7.730   7.490  17.888  0.00  0.00    +0.000 N 
ATOM     27  O   UNL     1       7.567   8.280  16.947  0.00  0.00    +0.000 OA
ATOM     28  O   UNL     1       8.540   7.646  18.811  0.00  0.00    +0.000 OA
ENDBRANCH  25  26
ENDBRANCH   6  24
TORSDOF 10
ENDMDL
MODEL 6
REMARK VINA RESULT:      -6.8      3.108      9.187
REMARK  Name = 
REMARK  13 active torsions:
REMARK  status: ('A' for Active; 'I' for Inactive)
REMARK    1  A    between atoms: C_1  and  O_2
REMARK    2  A    between atoms: O_2  and  C_3
REMARK    3  A    between atoms: C_3  and  C_4
REMARK    4  A    between atoms: C_4  and  O_5
REMARK    5  A    between atoms: O_5  and  C_6
REMARK    6  A    between atoms: C_9  and  C_10
REMARK    7  A    between atoms: C_11  and  C_12
REMARK    8  A    between atoms: C_14  and  O_15
REMARK    9  A    between atoms: O_15  and  C_16
REMARK   10  A    between atoms: C_18  and  O_19
REMARK   11  A    between atoms: O_19  and  C_20
REMARK   12  A    between atoms: C_21  and  C_22
REMARK   13  A    between atoms: C_23  and  N_24
REMARK                            x       y       z     vdW  Elec       q    Type
REMARK                         _______ _______ _______ _____ _____    ______ ____
ROOT
ATOM      1  C   UNL     1       3.115   5.662  18.086  0.00  0.00    +0.000 A 
ATOM      2  C   UNL     1       2.088   4.707  18.076  0.00  0.00    +0.000 A 
ATOM      3  C   UNL     1       2.295   3.451  17.514  0.00  0.00    +0.000 A 
ATOM      4  C   UNL     1       3.526   3.160  16.928  0.00  0.00    +0.000 A 
ATOM      5  C   UNL     1       4.557   4.112  16.886  0.00  0.00    +0.000 A 
ATOM      6  C   UNL     1       4.373   5.377  17.488  0.00  0.00    +0.000 A 
ENDROOT
BRANCH   1   8
ATOM      7  C   UNL     1       1.992   7.050  19.782  0.00  0.00    +0.000 C 
ATOM      8  C   UNL     1       2.874   6.941  18.779  0.00  0.00    +0.000 C 
BRANCH   7  12
ATOM      9  C   UNL     1       0.726  10.931  21.123  0.00  0.00    +0.000 A 
ATOM     10  C   UNL     1       0.898  10.638  19.771  0.00  0.00    +0.000 A 
ATOM     11  C   UNL     1       1.274   9.357  19.361  0.00  0.00    +0.000 A 
ATOM     12  C   UNL     1       1.504   8.342  20.296  0.00  0.00    +0.000 A 
ATOM     13  C   UNL     1       1.303   8.631  21.652  0.00  0.00    +0.000 A 
ATOM     14  C   UNL     1       0.927   9.920  22.060  0.00  0.00    +0.000 A 
BRANCH   9  15
ATOM     15  O   UNL     1       0.380  12.161  21.627  0.00  0.00    +0.000 OA
BRANCH  15  16
ATOM     16  C   UNL     1      -1.027  12.403  21.701  0.00  0.00    +0.000 C 
BRANCH  16  17
ATOM     17  C   UNL     1      -1.321  13.831  22.132  0.00  0.00    +0.000 C 
BRANCH  17  19
ATOM     18  C   UNL     1      -1.415  14.821  24.277  0.00  0.00    +0.000 C 
ATOM     19  O   UNL     1      -0.638  14.057  23.368  0.00  0.00    +0.000 OA
ENDBRANCH  17  19
ENDBRANCH  16  17
ENDBRANCH  15  16
ENDBRANCH   9  15
ENDBRANCH   7  12
ENDBRANCH   1   8
BRANCH   3  20
ATOM     20  O   UNL     1       1.239   2.584  17.604  0.00  0.00    +0.000 OA
ATOM     21  C   UNL     1       0.881   2.145  18.912  0.00  0.00    +0.000 C 
ENDBRANCH   3  20
BRANCH   5  22
ATOM     22  O   UNL     1       5.771   3.851  16.295  0.00  0.00    +0.000 OA
ATOM     23  C   UNL     1       5.848   4.035  14.882  0.00  0.00    +0.000 C 
ENDBRANCH   5  22
BRANCH   6  24
ATOM     24  C   UNL     1       5.402   6.451  17.453  0.00  0.00    +0.000 C 
ATOM     25  C   UNL     1       6.657   6.355  17.911  0.00  0.00    +0.000 C 
BRANCH  25  26
ATOM     26  N   UNL     1       7.531   7.507  17.842  0.00  0.00    +0.000 N 
ATOM     27  O   UNL     1       8.446   7.626  18.668  0.00  0.00    +0.000 OA
ATOM     28  O   UNL     1       7.291   8.307  16.929  0.00  0.00    +0.000 OA
ENDBRANCH  25  26
ENDBRANCH   6  24
TORSDOF 10
ENDMDL
MODEL 7
REMARK VINA RESULT:      -6.7      2.738      9.011
REMARK  Name = 
REMARK  13 active torsions:
REMARK  status: ('A' for Active; 'I' for Inactive)
REMARK    1  A    between atoms: C_1  and  O_2
REMARK    2  A    between atoms: O_2  and  C_3
REMARK    3  A    between atoms: C_3  and  C_4
REMARK    4  A    between atoms: C_4  and  O_5
REMARK    5  A    between atoms: O_5  and  C_6
REMARK    6  A    between atoms: C_9  and  C_10
REMARK    7  A    between atoms: C_11  and  C_12
REMARK    8  A    between atoms: C_14  and  O_15
REMARK    9  A    between atoms: O_15  and  C_16
REMARK   10  A    between atoms: C_18  and  O_19
REMARK   11  A    between atoms: O_19  and  C_20
REMARK   12  A    between atoms: C_21  and  C_22
REMARK   13  A    between atoms: C_23  and  N_24
REMARK                            x       y       z     vdW  Elec       q    Type
REMARK                         _______ _______ _______ _____ _____    ______ ____
ROOT
ATOM      1  C   UNL     1       3.206   5.698  18.024  0.00  0.00    +0.000 A 
ATOM      2  C   UNL     1       2.220   4.703  17.961  0.00  0.00    +0.000 A 
ATOM      3  C   UNL     1       2.528   3.429  17.492  0.00  0.00    +0.000 A 
ATOM      4  C   UNL     1       3.823   3.160  17.051  0.00  0.00    +0.000 A 
ATOM      5  C   UNL     1       4.818   4.150  17.062  0.00  0.00    +0.000 A 
ATOM      6  C   UNL     1       4.528   5.435  17.573  0.00  0.00    +0.000 A 
ENDROOT
BRANCH   1   8
ATOM      7  C   UNL     1       2.212   7.093  19.793  0.00  0.00    +0.000 C 
ATOM      8  C   UNL     1       2.850   7.000  18.618  0.00  0.00    +0.000 C 
BRANCH   7  12
ATOM      9  C   UNL     1       0.219  10.571  21.342  0.00  0.00    +0.000 A 
ATOM     10  C   UNL     1       0.616   9.520  22.168  0.00  0.00    +0.000 A 
ATOM     11  C   UNL     1       1.296   8.418  21.643  0.00  0.00    +0.000 A 
ATOM     12  C   UNL     1       1.579   8.333  20.275  0.00  0.00    +0.000 A 
ATOM     13  C   UNL     1       1.204   9.404  19.453  0.00  0.00    +0.000 A 
ATOM     14  C   UNL     1       0.519  10.508  19.984  0.00  0.00    +0.000 A 
BRANCH   9  15
ATOM     15  O   UNL     1      -0.471  11.683  21.757  0.00  0.00    +0.000 OA
BRANCH  15  16
ATOM     16  C   UNL     1      -0.426  12.787  20.850  0.00  0.00    +0.000 C 
BRANCH  16  17
ATOM     17  C   UNL     1      -1.785  13.458  20.726  0.00  0.00    +0.000 C 
BRANCH  17  19
ATOM     18  C   UNL     1      -2.741  12.027  19.105  0.00  0.00    +0.000 C 
ATOM     19  O   UNL     1      -2.749  12.434  20.465  0.00  0.00    +0.000 OA
ENDBRANCH  17  19
ENDBRANCH  16  17
ENDBRANCH  15  16
ENDBRANCH   9  15
ENDBRANCH   7  12
ENDBRANCH   1   8
BRANCH   3  20
ATOM     20  O   UNL     1       1.500   2.527  17.522  0.00  0.00    +0.000 OA
ATOM     21  C   UNL     1       0.797   2.396  18.756  0.00  0.00    +0.000 C 
ENDBRANCH   3  20
BRANCH   5  22
ATOM     22  O   UNL     1       6.095   3.909  16.612  0.00  0.00    +0.000 OA
ATOM     23  C   UNL     1       6.260   3.754  15.203  0.00  0.00    +0.000 C 
ENDBRANCH   5  22
BRANCH   6  24
ATOM     24  C   UNL     1       5.518   6.547  17.584  0.00  0.00    +0.000 C 
ATOM     25  C   UNL     1       6.837   6.424  17.773  0.00  0.00    +0.000 C 
BRANCH  25  26
ATOM     26  N   UNL     1       7.666   7.611  17.796  0.00  0.00    +0.000 N 
ATOM     27  O   UNL     1       7.533   8.464  16.908  0.00  0.00    +0.000 OA
ATOM     28  O   UNL     1       8.467   7.688  18.737  0.00  0.00    +0.000 OA
ENDBRANCH  25  26
ENDBRANCH   6  24
TORSDOF 10
ENDMDL
MODEL 8
REMARK VINA RESULT:      -6.7      3.403      8.827
REMARK  Name = 
REMARK  13 active torsions:
REMARK  status: ('A' for Active; 'I' for Inactive)
REMARK    1  A    between atoms: C_1  and  O_2
REMARK    2  A    between atoms: O_2  and  C_3
REMARK    3  A    between atoms: C_3  and  C_4
REMARK    4  A    between atoms: C_4  and  O_5
REMARK    5  A    between atoms: O_5  and  C_6
REMARK    6  A    between atoms: C_9  and  C_10
REMARK    7  A    between atoms: C_11  and  C_12
REMARK    8  A    between atoms: C_14  and  O_15
REMARK    9  A    between atoms: O_15  and  C_16
REMARK   10  A    between atoms: C_18  and  O_19
REMARK   11  A    between atoms: O_19  and  C_20
REMARK   12  A    between atoms: C_21  and  C_22
REMARK   13  A    between atoms: C_23  and  N_24
REMARK                            x       y       z     vdW  Elec       q    Type
REMARK                         _______ _______ _______ _____ _____    ______ ____
ROOT
ATOM      1  C   UNL     1       3.225   5.891  17.925  0.00  0.00    +0.000 A 
ATOM      2  C   UNL     1       2.131   5.015  17.938  0.00  0.00    +0.000 A 
ATOM      3  C   UNL     1       2.268   3.704  17.488  0.00  0.00    +0.000 A 
ATOM      4  C   UNL     1       3.498   3.279  16.991  0.00  0.00    +0.000 A 
ATOM      5  C   UNL     1       4.599   4.148  16.926  0.00  0.00    +0.000 A 
ATOM      6  C   UNL     1       4.484   5.469  17.416  0.00  0.00    +0.000 A 
ENDROOT
BRANCH   1   8
ATOM      7  C   UNL     1       1.866   7.866  18.488  0.00  0.00    +0.000 C 
ATOM      8  C   UNL     1       3.050   7.237  18.500  0.00  0.00    +0.000 C 
BRANCH   7  12
ATOM      9  C   UNL     1       1.171  12.012  19.378  0.00  0.00    +0.000 A 
ATOM     10  C   UNL     1       0.696  10.991  20.201  0.00  0.00    +0.000 A 
ATOM     11  C   UNL     1       0.969   9.653  19.908  0.00  0.00    +0.000 A 
ATOM     12  C   UNL     1       1.709   9.303  18.774  0.00  0.00    +0.000 A 
ATOM     13  C   UNL     1       2.209  10.331  17.964  0.00  0.00    +0.000 A 
ATOM     14  C   UNL     1       1.931  11.674  18.261  0.00  0.00    +0.000 A 
BRANCH   9  15
ATOM     15  O   UNL     1       0.939  13.352  19.568  0.00  0.00    +0.000 OA
BRANCH  15  16
ATOM     16  C   UNL     1       1.977  14.046  20.263  0.00  0.00    +0.000 C 
BRANCH  16  17
ATOM     17  C   UNL     1       1.469  14.641  21.568  0.00  0.00    +0.000 C 
BRANCH  17  19
ATOM     18  C   UNL     1       3.826  14.693  21.749  0.00  0.00    +0.000 C 
ATOM     19  O   UNL     1       2.591  14.779  22.443  0.00  0.00    +0.000 OA
ENDBRANCH  17  19
ENDBRANCH  16  17
ENDBRANCH  15  16
ENDBRANCH   9  15
ENDBRANCH   7  12
ENDBRANCH   1   8
BRANCH   3  20
ATOM     20  O   UNL     1       1.146   2.926  17.593  0.00  0.00    +0.000 OA
ATOM     21  C   UNL     1       0.833   2.425  18.890  0.00  0.00    +0.000 C 
ENDBRANCH   3  20
BRANCH   5  22
ATOM     22  O   UNL     1       5.815   3.753  16.420  0.00  0.00    +0.000 OA
ATOM     23  C   UNL     1       5.973   3.823  15.004  0.00  0.00    +0.000 C 
ENDBRANCH   5  22
BRANCH   6  24
ATOM     24  C   UNL     1       5.592   6.460  17.348  0.00  0.00    +0.000 C 
ATOM     25  C   UNL     1       6.743   6.401  18.028  0.00  0.00    +0.000 C 
BRANCH  25  26
ATOM     26  N   UNL     1       7.710   7.469  17.885  0.00  0.00    +0.000 N 
ATOM     27  O   UNL     1       8.585   7.618  18.750  0.00  0.00    +0.000 OA
ATOM     28  O   UNL     1       7.588   8.171  16.873  0.00  0.00    +0.000 OA
ENDBRANCH  25  26
ENDBRANCH   6  24
TORSDOF 10
ENDMDL
MODEL 9
REMARK VINA RESULT:      -6.7      2.835      9.001
REMARK  Name = 
REMARK  13 active torsions:
REMARK  status: ('A' for Active; 'I' for Inactive)
REMARK    1  A    between atoms: C_1  and  O_2
REMARK    2  A    between atoms: O_2  and  C_3
REMARK    3  A    between atoms: C_3  and  C_4
REMARK    4  A    between atoms: C_4  and  O_5
REMARK    5  A    between atoms: O_5  and  C_6
REMARK    6  A    between atoms: C_9  and  C_10
REMARK    7  A    between atoms: C_11  and  C_12
REMARK    8  A    between atoms: C_14  and  O_15
REMARK    9  A    between atoms: O_15  and  C_16
REMARK   10  A    between atoms: C_18  and  O_19
REMARK   11  A    between atoms: O_19  and  C_20
REMARK   12  A    between atoms: C_21  and  C_22
REMARK   13  A    between atoms: C_23  and  N_24
REMARK                            x       y       z     vdW  Elec       q    Type
REMARK                         _______ _______ _______ _____ _____    ______ ____
ROOT
ATOM      1  C   UNL     1       3.631   5.821  17.839  0.00  0.00    +0.000 A 
ATOM      2  C   UNL     1       4.604   6.233  16.917  0.00  0.00    +0.000 A 
ATOM      3  C   UNL     1       5.220   5.310  16.077  0.00  0.00    +0.000 A 
ATOM      4  C   UNL     1       4.884   3.962  16.183  0.00  0.00    +0.000 A 
ATOM      5  C   UNL     1       3.945   3.515  17.127  0.00  0.00    +0.000 A 
ATOM      6  C   UNL     1       3.284   4.447  17.958  0.00  0.00    +0.000 A 
ENDROOT
BRANCH   1   8
ATOM      7  C   UNL     1       2.157   7.779  18.073  0.00  0.00    +0.000 C 
ATOM      8  C   UNL     1       2.942   6.852  18.637  0.00  0.00    +0.000 C 
BRANCH   7  12
ATOM      9  C   UNL     1       0.631  11.171  20.226  0.00  0.00    +0.000 A 
ATOM     10  C   UNL     1       0.750   9.914  20.818  0.00  0.00    +0.000 A 
ATOM     11  C   UNL     1       1.284   8.838  20.107  0.00  0.00    +0.000 A 
ATOM     12  C   UNL     1       1.696   8.989  18.778  0.00  0.00    +0.000 A 
ATOM     13  C   UNL     1       1.603  10.259  18.194  0.00  0.00    +0.000 A 
ATOM     14  C   UNL     1       1.063  11.338  18.913  0.00  0.00    +0.000 A 
BRANCH   9  15
ATOM     15  O   UNL     1       0.100  12.283  20.833  0.00  0.00    +0.000 OA
BRANCH  15  16
ATOM     16  C   UNL     1      -1.207  12.098  21.381  0.00  0.00    +0.000 C 
BRANCH  16  17
ATOM     17  C   UNL     1      -1.197  12.242  22.896  0.00  0.00    +0.000 C 
BRANCH  17  19
ATOM     18  C   UNL     1      -3.517  12.543  23.237  0.00  0.00    +0.000 C 
ATOM     19  O   UNL     1      -2.410  11.668  23.390  0.00  0.00    +0.000 OA
ENDBRANCH  17  19
ENDBRANCH  16  17
ENDBRANCH  15  16
ENDBRANCH   9  15
ENDBRANCH   7  12
ENDBRANCH   1   8
BRANCH   3  20
ATOM     20  O   UNL     1       6.117   5.833  15.185  0.00  0.00    +0.000 OA
ATOM     21  C   UNL     1       6.906   4.903  14.448  0.00  0.00    +0.000 C 
ENDBRANCH   3  20
BRANCH   5  22
ATOM     22  O   UNL     1       3.616   2.187  17.260  0.00  0.00    +0.000 OA
ATOM     23  C   UNL     1       4.299   1.457  18.279  0.00  0.00    +0.000 C 
ENDBRANCH   5  22
BRANCH   6  24
ATOM     24  C   UNL     1       2.306   4.050  19.007  0.00  0.00    +0.000 C 
ATOM     25  C   UNL     1       2.604   3.623  20.241  0.00  0.00    +0.000 C 
BRANCH  25  26
ATOM     26  N   UNL     1       1.536   3.233  21.136  0.00  0.00    +0.000 N 
ATOM     27  O   UNL     1       1.790   3.024  22.331  0.00  0.00    +0.000 OA
ATOM     28  O   UNL     1       0.413   3.139  20.624  0.00  0.00    +0.000 OA
ENDBRANCH  25  26
ENDBRANCH   6  24
TORSDOF 10
ENDMDL
