MODEL 1
REMARK VINA RESULT:      -8.0      0.000      0.000
REMARK  Name = 
REMARK  7 active torsions:
REMARK  status: ('A' for Active; 'I' for Inactive)
REMARK    1  A    between atoms: C_1  and  O_2
REMARK    2  A    between atoms: O_2  and  C_3
REMARK    3  A    between atoms: C_8  and  C_9
REMARK    4  A    between atoms: C_12  and  C_13
REMARK    5  A    between atoms: C_19  and  C_20
REMARK    6  A    between atoms: C_20  and  N_21
REMARK    7  A    between atoms: C_22  and  C_23
REMARK                            x       y       z     vdW  Elec       q    Type
REMARK                         _______ _______ _______ _____ _____    ______ ____
ROOT
ATOM      1  C   UNL     1       1.469   8.887  18.953  0.00  0.00    +0.000 A 
ATOM      2  C   UNL     1       1.496   7.577  19.370  0.00  0.00    +0.000 A 
ATOM      3  N   UNL     1       2.504   6.968  18.660  0.00  0.00    +0.000 N 
ATOM      4  C   UNL     1       2.941   5.638  18.670  0.00  0.00    +0.000 A 
ATOM      5  C   UNL     1       3.956   5.259  17.853  0.00  0.00    +0.000 A 
ATOM      6  C   UNL     1       4.542   6.390  17.027  0.00  0.00    +0.000 A 
ATOM      7  C   UNL     1       5.717   6.109  16.104  0.00  0.00    +0.000 C 
ATOM      8  N   UNL     1       4.116   7.623  17.027  0.00  0.00    +0.000 NA
ATOM      9  C   UNL     1       3.071   7.931  17.847  0.00  0.00    +0.000 A 
ATOM     10  N   UNL     1       2.454   9.088  18.002  0.00  0.00    +0.000 NA
ENDROOT
BRANCH   1  16
ATOM     11  C   UNL     1       0.395  10.491  20.625  0.00  0.00    +0.000 A 
ATOM     12  C   UNL     1      -0.599  11.454  20.875  0.00  0.00    +0.000 A 
ATOM     13  C   UNL     1      -1.513  11.822  19.888  0.00  0.00    +0.000 A 
ATOM     14  C   UNL     1      -1.419  11.261  18.623  0.00  0.00    +0.000 A 
ATOM     15  C   UNL     1      -0.413  10.332  18.348  0.00  0.00    +0.000 A 
ATOM     16  C   UNL     1       0.503   9.919  19.336  0.00  0.00    +0.000 A 
BRANCH  11  18
ATOM     17  C   UNL     1       0.805   9.323  22.644  0.00  0.00    +0.000 C 
ATOM     18  O   UNL     1       1.308  10.146  21.593  0.00  0.00    +0.000 OA
ENDBRANCH  11  18
ENDBRANCH   1  16
BRANCH   4  19
ATOM     19  C   UNL     1       2.308   4.658  19.564  0.00  0.00    +0.000 A 
ATOM     20  C   UNL     1       2.751   4.534  20.887  0.00  0.00    +0.000 A 
ATOM     21  C   UNL     1       2.204   3.556  21.716  0.00  0.00    +0.000 A 
ATOM     22  C   UNL     1       1.209   2.708  21.231  0.00  0.00    +0.000 A 
ATOM     23  C   UNL     1       0.752   2.839  19.919  0.00  0.00    +0.000 A 
ATOM     24  C   UNL     1       1.298   3.813  19.084  0.00  0.00    +0.000 A 
ENDBRANCH   4  19
BRANCH   5  25
ATOM     25  C   UNL     1       4.541   3.871  17.784  0.00  0.00    +0.000 C 
BRANCH  25  26
ATOM     26  N   UNL     1       5.618   3.653  18.743  0.00  0.00    +0.000 NA
ATOM     27  H   UNL     1       6.403   3.204  18.273  0.00  0.00    +0.000 HD
ATOM     28  H   UNL     1       5.302   2.980  19.443  0.00  0.00    +0.000 HD
ENDBRANCH  25  26
ENDBRANCH   5  25
TORSDOF 5
ENDMDL
MODEL 2
REMARK VINA RESULT:      -7.9      1.061      1.842
REMARK  Name = 
REMARK  7 active torsions:
REMARK  status: ('A' for Active; 'I' for Inactive)
REMARK    1  A    between atoms: C_1  and  O_2
REMARK    2  A    between atoms: O_2  and  C_3
REMARK    3  A    between atoms: C_8  and  C_9
REMARK    4  A    between atoms: C_12  and  C_13
REMARK    5  A    between atoms: C_19  and  C_20
REMARK    6  A    between atoms: C_20  and  N_21
REMARK    7  A    between atoms: C_22  and  C_23
REMARK                            x       y       z     vdW  Elec       q    Type
REMARK                         _______ _______ _______ _____ _____    ______ ____
ROOT
ATOM      1  C   UNL     1       1.504   8.910  18.975  0.00  0.00    +0.000 A 
ATOM      2  C   UNL     1       1.523   7.597  19.385  0.00  0.00    +0.000 A 
ATOM      3  N   UNL     1       2.506   6.979  18.646  0.00  0.00    +0.000 N 
ATOM      4  C   UNL     1       2.925   5.644  18.638  0.00  0.00    +0.000 A 
ATOM      5  C   UNL     1       3.914   5.256  17.795  0.00  0.00    +0.000 A 
ATOM      6  C   UNL     1       4.496   6.384  16.962  0.00  0.00    +0.000 A 
ATOM      7  C   UNL     1       5.645   6.093  16.010  0.00  0.00    +0.000 C 
ATOM      8  N   UNL     1       4.087   7.622  16.980  0.00  0.00    +0.000 NA
ATOM      9  C   UNL     1       3.066   7.940  17.826  0.00  0.00    +0.000 A 
ATOM     10  N   UNL     1       2.469   9.104  18.002  0.00  0.00    +0.000 NA
ENDROOT
BRANCH   1  16
ATOM     11  C   UNL     1      -0.551  10.387  18.631  0.00  0.00    +0.000 A 
ATOM     12  C   UNL     1      -1.365  11.422  19.126  0.00  0.00    +0.000 A 
ATOM     13  C   UNL     1      -1.070  12.060  20.329  0.00  0.00    +0.000 A 
ATOM     14  C   UNL     1       0.022  11.645  21.077  0.00  0.00    +0.000 A 
ATOM     15  C   UNL     1       0.818  10.593  20.617  0.00  0.00    +0.000 A 
ATOM     16  C   UNL     1       0.561   9.952  19.388  0.00  0.00    +0.000 A 
BRANCH  11  18
ATOM     17  C   UNL     1      -2.128  10.065  16.893  0.00  0.00    +0.000 C 
ATOM     18  O   UNL     1      -0.856   9.745  17.454  0.00  0.00    +0.000 OA
ENDBRANCH  11  18
ENDBRANCH   1  16
BRANCH   4  19
ATOM     19  C   UNL     1       2.300   4.667  19.542  0.00  0.00    +0.000 A 
ATOM     20  C   UNL     1       2.759   4.544  20.860  0.00  0.00    +0.000 A 
ATOM     21  C   UNL     1       2.219   3.568  21.697  0.00  0.00    +0.000 A 
ATOM     22  C   UNL     1       1.216   2.722  21.225  0.00  0.00    +0.000 A 
ATOM     23  C   UNL     1       0.744   2.852  19.919  0.00  0.00    +0.000 A 
ATOM     24  C   UNL     1       1.283   3.824  19.075  0.00  0.00    +0.000 A 
ENDBRANCH   4  19
BRANCH   5  25
ATOM     25  C   UNL     1       4.479   3.861  17.704  0.00  0.00    +0.000 C 
BRANCH  25  26
ATOM     26  N   UNL     1       5.581   3.625  18.629  0.00  0.00    +0.000 NA
ATOM     27  H   UNL     1       5.871   4.511  19.043  0.00  0.00    +0.000 HD
ATOM     28  H   UNL     1       6.389   3.298  18.100  0.00  0.00    +0.000 HD
ENDBRANCH  25  26
ENDBRANCH   5  25
TORSDOF 5
ENDMDL
MODEL 3
REMARK VINA RESULT:      -7.5      1.690      3.934
REMARK  Name = 
REMARK  7 active torsions:
REMARK  status: ('A' for Active; 'I' for Inactive)
REMARK    1  A    between atoms: C_1  and  O_2
REMARK    2  A    between atoms: O_2  and  C_3
REMARK    3  A    between atoms: C_8  and  C_9
REMARK    4  A    between atoms: C_12  and  C_13
REMARK    5  A    between atoms: C_19  and  C_20
REMARK    6  A    between atoms: C_20  and  N_21
REMARK    7  A    between atoms: C_22  and  C_23
REMARK                            x       y       z     vdW  Elec       q    Type
REMARK                         _______ _______ _______ _____ _____    ______ ____
ROOT
ATOM      1  C   UNL     1       1.681   7.752  20.001  0.00  0.00    +0.000 A 
ATOM      2  C   UNL     1       2.702   7.199  19.265  0.00  0.00    +0.000 A 
ATOM      3  N   UNL     1       2.805   5.889  19.673  0.00  0.00    +0.000 N 
ATOM      4  C   UNL     1       3.696   4.886  19.275  0.00  0.00    +0.000 A 
ATOM      5  C   UNL     1       3.619   3.657  19.843  0.00  0.00    +0.000 A 
ATOM      6  C   UNL     1       2.496   3.510  20.853  0.00  0.00    +0.000 A 
ATOM      7  C   UNL     1       2.271   2.166  21.529  0.00  0.00    +0.000 C 
ATOM      8  N   UNL     1       1.679   4.460  21.216  0.00  0.00    +0.000 NA
ATOM      9  C   UNL     1       1.831   5.682  20.631  0.00  0.00    +0.000 A 
ATOM     10  N   UNL     1       1.152   6.793  20.848  0.00  0.00    +0.000 NA
ENDROOT
BRANCH   1  16
ATOM     11  C   UNL     1       0.968   9.908  21.169  0.00  0.00    +0.000 A 
ATOM     12  C   UNL     1       0.533  11.240  21.040  0.00  0.00    +0.000 A 
ATOM     13  C   UNL     1       0.332  11.815  19.787  0.00  0.00    +0.000 A 
ATOM     14  C   UNL     1       0.602  11.080  18.642  0.00  0.00    +0.000 A 
ATOM     15  C   UNL     1       1.071   9.769  18.754  0.00  0.00    +0.000 A 
ATOM     16  C   UNL     1       1.252   9.152  20.008  0.00  0.00    +0.000 A 
BRANCH  11  18
ATOM     17  C   UNL     1       0.118   9.495  23.341  0.00  0.00    +0.000 C 
ATOM     18  O   UNL     1       1.185   9.349  22.406  0.00  0.00    +0.000 OA
ENDBRANCH  11  18
ENDBRANCH   1  16
BRANCH   4  19
ATOM     19  C   UNL     1       4.707   5.161  18.243  0.00  0.00    +0.000 A 
ATOM     20  C   UNL     1       4.396   4.956  16.892  0.00  0.00    +0.000 A 
ATOM     21  C   UNL     1       5.374   5.144  15.916  0.00  0.00    +0.000 A 
ATOM     22  C   UNL     1       6.658   5.546  16.285  0.00  0.00    +0.000 A 
ATOM     23  C   UNL     1       6.967   5.768  17.627  0.00  0.00    +0.000 A 
ATOM     24  C   UNL     1       5.994   5.577  18.608  0.00  0.00    +0.000 A 
ENDBRANCH   4  19
BRANCH   5  25
ATOM     25  C   UNL     1       4.495   2.482  19.488  0.00  0.00    +0.000 C 
BRANCH  25  26
ATOM     26  N   UNL     1       3.949   1.661  18.413  0.00  0.00    +0.000 NA
ATOM     27  H   UNL     1       3.065   2.061  18.098  0.00  0.00    +0.000 HD
ATOM     28  H   UNL     1       3.710   0.744  18.791  0.00  0.00    +0.000 HD
ENDBRANCH  25  26
ENDBRANCH   5  25
TORSDOF 5
ENDMDL
MODEL 4
REMARK VINA RESULT:      -7.5      1.337      1.542
REMARK  Name = 
REMARK  7 active torsions:
REMARK  status: ('A' for Active; 'I' for Inactive)
REMARK    1  A    between atoms: C_1  and  O_2
REMARK    2  A    between atoms: O_2  and  C_3
REMARK    3  A    between atoms: C_8  and  C_9
REMARK    4  A    between atoms: C_12  and  C_13
REMARK    5  A    between atoms: C_19  and  C_20
REMARK    6  A    between atoms: C_20  and  N_21
REMARK    7  A    between atoms: C_22  and  C_23
REMARK                            x       y       z     vdW  Elec       q    Type
REMARK                         _______ _______ _______ _____ _____    ______ ____
ROOT
ATOM      1  C   UNL     1       1.593   8.882  18.099  0.00  0.00    +0.000 A 
ATOM      2  C   UNL     1       1.572   7.622  18.651  0.00  0.00    +0.000 A 
ATOM      3  N   UNL     1       2.686   6.974  18.171  0.00  0.00    +0.000 N 
ATOM      4  C   UNL     1       3.134   5.666  18.388  0.00  0.00    +0.000 A 
ATOM      5  C   UNL     1       4.268   5.236  17.781  0.00  0.00    +0.000 A 
ATOM      6  C   UNL     1       4.961   6.293  16.940  0.00  0.00    +0.000 A 
ATOM      7  C   UNL     1       6.269   5.954  16.243  0.00  0.00    +0.000 C 
ATOM      8  N   UNL     1       4.524   7.507  16.746  0.00  0.00    +0.000 NA
ATOM      9  C   UNL     1       3.360   7.866  17.358  0.00  0.00    +0.000 A 
ATOM     10  N   UNL     1       2.711   9.014  17.294  0.00  0.00    +0.000 NA
ENDROOT
BRANCH   1  16
ATOM     11  C   UNL     1       0.782  11.223  18.719  0.00  0.00    +0.000 A 
ATOM     12  C   UNL     1      -0.299  12.119  18.814  0.00  0.00    +0.000 A 
ATOM     13  C   UNL     1      -1.592  11.729  18.467  0.00  0.00    +0.000 A 
ATOM     14  C   UNL     1      -1.816  10.449  17.981  0.00  0.00    +0.000 A 
ATOM     15  C   UNL     1      -0.746   9.561  17.845  0.00  0.00    +0.000 A 
ATOM     16  C   UNL     1       0.565   9.919  18.219  0.00  0.00    +0.000 A 
BRANCH  11  18
ATOM     17  C   UNL     1       2.550  12.751  18.331  0.00  0.00    +0.000 C 
ATOM     18  O   UNL     1       2.059  11.616  19.042  0.00  0.00    +0.000 OA
ENDBRANCH  11  18
ENDBRANCH   1  16
BRANCH   4  19
ATOM     19  C   UNL     1       2.382   4.764  19.273  0.00  0.00    +0.000 A 
ATOM     20  C   UNL     1       2.665   4.738  20.645  0.00  0.00    +0.000 A 
ATOM     21  C   UNL     1       2.007   3.832  21.475  0.00  0.00    +0.000 A 
ATOM     22  C   UNL     1       1.060   2.959  20.941  0.00  0.00    +0.000 A 
ATOM     23  C   UNL     1       0.762   2.993  19.578  0.00  0.00    +0.000 A 
ATOM     24  C   UNL     1       1.420   3.894  18.742  0.00  0.00    +0.000 A 
ENDBRANCH   4  19
BRANCH   5  25
ATOM     25  C   UNL     1       4.875   3.866  17.949  0.00  0.00    +0.000 C 
BRANCH  25  26
ATOM     26  N   UNL     1       5.818   3.787  19.059  0.00  0.00    +0.000 NA
ATOM     27  H   UNL     1       5.834   4.679  19.552  0.00  0.00    +0.000 HD
ATOM     28  H   UNL     1       6.759   3.669  18.682  0.00  0.00    +0.000 HD
ENDBRANCH  25  26
ENDBRANCH   5  25
TORSDOF 5
ENDMDL
MODEL 5
REMARK VINA RESULT:      -7.4      1.020      2.024
REMARK  Name = 
REMARK  7 active torsions:
REMARK  status: ('A' for Active; 'I' for Inactive)
REMARK    1  A    between atoms: C_1  and  O_2
REMARK    2  A    between atoms: O_2  and  C_3
REMARK    3  A    between atoms: C_8  and  C_9
REMARK    4  A    between atoms: C_12  and  C_13
REMARK    5  A    between atoms: C_19  and  C_20
REMARK    6  A    between atoms: C_20  and  N_21
REMARK    7  A    between atoms: C_22  and  C_23
REMARK                            x       y       z     vdW  Elec       q    Type
REMARK                         _______ _______ _______ _____ _____    ______ ____
ROOT
ATOM      1  C   UNL     1       1.365   8.777  19.650  0.00  0.00    +0.000 A 
ATOM      2  C   UNL     1       1.459   7.432  19.925  0.00  0.00    +0.000 A 
ATOM      3  N   UNL     1       2.373   6.921  19.032  0.00  0.00    +0.000 N 
ATOM      4  C   UNL     1       2.820   5.608  18.850  0.00  0.00    +0.000 A 
ATOM      5  C   UNL     1       3.724   5.336  17.877  0.00  0.00    +0.000 A 
ATOM      6  C   UNL     1       4.188   6.557  17.103  0.00  0.00    +0.000 A 
ATOM      7  C   UNL     1       5.236   6.397  16.013  0.00  0.00    +0.000 C 
ATOM      8  N   UNL     1       3.753   7.774  17.283  0.00  0.00    +0.000 NA
ATOM      9  C   UNL     1       2.820   7.974  18.257  0.00  0.00    +0.000 A 
ATOM     10  N   UNL     1       2.217   9.095  18.607  0.00  0.00    +0.000 NA
ENDROOT
BRANCH   1  16
ATOM     11  C   UNL     1      -0.356  10.661  19.543  0.00  0.00    +0.000 A 
ATOM     12  C   UNL     1      -1.177  11.561  20.247  0.00  0.00    +0.000 A 
ATOM     13  C   UNL     1      -1.179  11.596  21.640  0.00  0.00    +0.000 A 
ATOM     14  C   UNL     1      -0.392  10.703  22.351  0.00  0.00    +0.000 A 
ATOM     15  C   UNL     1       0.400   9.777  21.666  0.00  0.00    +0.000 A 
ATOM     16  C   UNL     1       0.446   9.742  20.258  0.00  0.00    +0.000 A 
BRANCH  11  18
ATOM     17  C   UNL     1      -1.521  10.001  17.588  0.00  0.00    +0.000 C 
ATOM     18  O   UNL     1      -0.370  10.613  18.168  0.00  0.00    +0.000 OA
ENDBRANCH  11  18
ENDBRANCH   1  16
BRANCH   4  19
ATOM     19  C   UNL     1       2.317   4.529  19.713  0.00  0.00    +0.000 A 
ATOM     20  C   UNL     1       1.297   3.686  19.252  0.00  0.00    +0.000 A 
ATOM     21  C   UNL     1       0.766   2.710  20.094  0.00  0.00    +0.000 A 
ATOM     22  C   UNL     1       1.259   2.565  21.390  0.00  0.00    +0.000 A 
ATOM     23  C   UNL     1       2.287   3.390  21.848  0.00  0.00    +0.000 A 
ATOM     24  C   UNL     1       2.819   4.371  21.012  0.00  0.00    +0.000 A 
ENDBRANCH   4  19
BRANCH   5  25
ATOM     25  C   UNL     1       4.309   3.976  17.591  0.00  0.00    +0.000 C 
BRANCH  25  26
ATOM     26  N   UNL     1       5.471   3.665  18.417  0.00  0.00    +0.000 NA
ATOM     27  H   UNL     1       5.770   4.506  18.910  0.00  0.00    +0.000 HD
ATOM     28  H   UNL     1       6.250   3.418  17.807  0.00  0.00    +0.000 HD
ENDBRANCH  25  26
ENDBRANCH   5  25
TORSDOF 5
ENDMDL
MODEL 6
REMARK VINA RESULT:      -7.3      0.613      1.134
REMARK  Name = 
REMARK  7 active torsions:
REMARK  status: ('A' for Active; 'I' for Inactive)
REMARK    1  A    between atoms: C_1  and  O_2
REMARK    2  A    between atoms: O_2  and  C_3
REMARK    3  A    between atoms: C_8  and  C_9
REMARK    4  A    between atoms: C_12  and  C_13
REMARK    5  A    between atoms: C_19  and  C_20
REMARK    6  A    between atoms: C_20  and  N_21
REMARK    7  A    between atoms: C_22  and  C_23
REMARK                            x       y       z     vdW  Elec       q    Type
REMARK                         _______ _______ _______ _____ _____    ______ ____
ROOT
ATOM      1  C   UNL     1       1.483   8.773  18.619  0.00  0.00    +0.000 A 
ATOM      2  C   UNL     1       1.545   7.481  19.086  0.00  0.00    +0.000 A 
ATOM      3  N   UNL     1       2.663   6.919  18.514  0.00  0.00    +0.000 N 
ATOM      4  C   UNL     1       3.178   5.622  18.622  0.00  0.00    +0.000 A 
ATOM      5  C   UNL     1       4.299   5.287  17.937  0.00  0.00    +0.000 A 
ATOM      6  C   UNL     1       4.903   6.428  17.138  0.00  0.00    +0.000 A 
ATOM      7  C   UNL     1       6.189   6.198  16.361  0.00  0.00    +0.000 C 
ATOM      8  N   UNL     1       4.403   7.629  17.045  0.00  0.00    +0.000 NA
ATOM      9  C   UNL     1       3.255   7.893  17.733  0.00  0.00    +0.000 A 
ATOM     10  N   UNL     1       2.554   9.010  17.775  0.00  0.00    +0.000 NA
ENDROOT
BRANCH   1  16
ATOM     11  C   UNL     1       0.216  10.456  20.063  0.00  0.00    +0.000 A 
ATOM     12  C   UNL     1      -0.867  11.347  20.174  0.00  0.00    +0.000 A 
ATOM     13  C   UNL     1      -1.777  11.511  19.130  0.00  0.00    +0.000 A 
ATOM     14  C   UNL     1      -1.592  10.817  17.943  0.00  0.00    +0.000 A 
ATOM     15  C   UNL     1      -0.499   9.958  17.804  0.00  0.00    +0.000 A 
ATOM     16  C   UNL     1       0.417   9.749  18.855  0.00  0.00    +0.000 A 
BRANCH  11  18
ATOM     17  C   UNL     1       0.690   9.506  22.180  0.00  0.00    +0.000 C 
ATOM     18  O   UNL     1       1.124  10.312  21.085  0.00  0.00    +0.000 OA
ENDBRANCH  11  18
ENDBRANCH   1  16
BRANCH   4  19
ATOM     19  C   UNL     1       2.511   4.630  19.477  0.00  0.00    +0.000 A 
ATOM     20  C   UNL     1       1.509   3.809  18.942  0.00  0.00    +0.000 A 
ATOM     21  C   UNL     1       0.823   2.919  19.767  0.00  0.00    +0.000 A 
ATOM     22  C   UNL     1       1.141   2.839  21.122  0.00  0.00    +0.000 A 
ATOM     23  C   UNL     1       2.149   3.641  21.656  0.00  0.00    +0.000 A 
ATOM     24  C   UNL     1       2.836   4.537  20.837  0.00  0.00    +0.000 A 
ENDBRANCH   4  19
BRANCH   5  25
ATOM     25  C   UNL     1       4.974   3.939  17.984  0.00  0.00    +0.000 C 
BRANCH  25  26
ATOM     26  N   UNL     1       4.574   3.057  16.893  0.00  0.00    +0.000 NA
ATOM     27  H   UNL     1       3.853   3.515  16.336  0.00  0.00    +0.000 HD
ATOM     28  H   UNL     1       4.127   2.230  17.288  0.00  0.00    +0.000 HD
ENDBRANCH  25  26
ENDBRANCH   5  25
TORSDOF 5
ENDMDL
MODEL 7
REMARK VINA RESULT:      -7.3      1.094      1.488
REMARK  Name = 
REMARK  7 active torsions:
REMARK  status: ('A' for Active; 'I' for Inactive)
REMARK    1  A    between atoms: C_1  and  O_2
REMARK    2  A    between atoms: O_2  and  C_3
REMARK    3  A    between atoms: C_8  and  C_9
REMARK    4  A    between atoms: C_12  and  C_13
REMARK    5  A    between atoms: C_19  and  C_20
REMARK    6  A    between atoms: C_20  and  N_21
REMARK    7  A    between atoms: C_22  and  C_23
REMARK                            x       y       z     vdW  Elec       q    Type
REMARK                         _______ _______ _______ _____ _____    ______ ____
ROOT
ATOM      1  C   UNL     1       1.444   8.836  18.202  0.00  0.00    +0.000 A 
ATOM      2  C   UNL     1       1.485   7.562  18.718  0.00  0.00    +0.000 A 
ATOM      3  N   UNL     1       2.633   6.985  18.227  0.00  0.00    +0.000 N 
ATOM      4  C   UNL     1       3.146   5.695  18.409  0.00  0.00    +0.000 A 
ATOM      5  C   UNL     1       4.303   5.341  17.798  0.00  0.00    +0.000 A 
ATOM      6  C   UNL     1       4.945   6.456  16.992  0.00  0.00    +0.000 A 
ATOM      7  C   UNL     1       6.272   6.204  16.294  0.00  0.00    +0.000 C 
ATOM      8  N   UNL     1       4.448   7.651  16.829  0.00  0.00    +0.000 NA
ATOM      9  C   UNL     1       3.264   7.933  17.444  0.00  0.00    +0.000 A 
ATOM     10  N   UNL     1       2.558   9.048  17.409  0.00  0.00    +0.000 NA
ENDROOT
BRANCH   1  16
ATOM     11  C   UNL     1       0.399  10.943  19.197  0.00  0.00    +0.000 A 
ATOM     12  C   UNL     1      -0.720  11.793  19.268  0.00  0.00    +0.000 A 
ATOM     13  C   UNL     1      -1.882  11.519  18.549  0.00  0.00    +0.000 A 
ATOM     14  C   UNL     1      -1.928  10.412  17.715  0.00  0.00    +0.000 A 
ATOM     15  C   UNL     1      -0.811   9.579  17.604  0.00  0.00    +0.000 A 
ATOM     16  C   UNL     1       0.364   9.815  18.345  0.00  0.00    +0.000 A 
BRANCH  11  18
ATOM     17  C   UNL     1       1.565  12.481  20.571  0.00  0.00    +0.000 C 
ATOM     18  O   UNL     1       1.551  11.227  19.891  0.00  0.00    +0.000 OA
ENDBRANCH  11  18
ENDBRANCH   1  16
BRANCH   4  19
ATOM     19  C   UNL     1       2.436   4.731  19.263  0.00  0.00    +0.000 A 
ATOM     20  C   UNL     1       1.460   3.894  18.706  0.00  0.00    +0.000 A 
ATOM     21  C   UNL     1       0.734   3.031  19.525  0.00  0.00    +0.000 A 
ATOM     22  C   UNL     1       0.986   2.994  20.896  0.00  0.00    +0.000 A 
ATOM     23  C   UNL     1       1.969   3.813  21.452  0.00  0.00    +0.000 A 
ATOM     24  C   UNL     1       2.696   4.682  20.639  0.00  0.00    +0.000 A 
ENDBRANCH   4  19
BRANCH   5  25
ATOM     25  C   UNL     1       4.978   3.999  17.930  0.00  0.00    +0.000 C 
BRANCH  25  26
ATOM     26  N   UNL     1       5.961   3.954  19.007  0.00  0.00    +0.000 NA
ATOM     27  H   UNL     1       5.541   4.316  19.863  0.00  0.00    +0.000 HD
ATOM     28  H   UNL     1       6.720   4.598  18.785  0.00  0.00    +0.000 HD
ENDBRANCH  25  26
ENDBRANCH   5  25
TORSDOF 5
ENDMDL
MODEL 8
REMARK VINA RESULT:      -6.6      1.825      4.209
REMARK  Name = 
REMARK  7 active torsions:
REMARK  status: ('A' for Active; 'I' for Inactive)
REMARK    1  A    between atoms: C_1  and  O_2
REMARK    2  A    between atoms: O_2  and  C_3
REMARK    3  A    between atoms: C_8  and  C_9
REMARK    4  A    between atoms: C_12  and  C_13
REMARK    5  A    between atoms: C_19  and  C_20
REMARK    6  A    between atoms: C_20  and  N_21
REMARK    7  A    between atoms: C_22  and  C_23
REMARK                            x       y       z     vdW  Elec       q    Type
REMARK                         _______ _______ _______ _____ _____    ______ ____
ROOT
ATOM      1  C   UNL     1       1.330   7.591  20.435  0.00  0.00    +0.000 A 
ATOM      2  C   UNL     1       2.487   7.256  19.771  0.00  0.00    +0.000 A 
ATOM      3  N   UNL     1       2.555   5.882  19.788  0.00  0.00    +0.000 N 
ATOM      4  C   UNL     1       3.535   5.019  19.284  0.00  0.00    +0.000 A 
ATOM      5  C   UNL     1       3.395   3.680  19.441  0.00  0.00    +0.000 A 
ATOM      6  C   UNL     1       2.111   3.268  20.138  0.00  0.00    +0.000 A 
ATOM      7  C   UNL     1       1.808   1.791  20.335  0.00  0.00    +0.000 C 
ATOM      8  N   UNL     1       1.211   4.088  20.607  0.00  0.00    +0.000 NA
ATOM      9  C   UNL     1       1.428   5.425  20.445  0.00  0.00    +0.000 A 
ATOM     10  N   UNL     1       0.687   6.439  20.851  0.00  0.00    +0.000 NA
ENDROOT
BRANCH   1  16
ATOM     11  C   UNL     1       0.824  10.033  19.881  0.00  0.00    +0.000 A 
ATOM     12  C   UNL     1       0.382  11.287  20.340  0.00  0.00    +0.000 A 
ATOM     13  C   UNL     1       0.025  11.483  21.674  0.00  0.00    +0.000 A 
ATOM     14  C   UNL     1       0.066  10.416  22.559  0.00  0.00    +0.000 A 
ATOM     15  C   UNL     1       0.466   9.155  22.109  0.00  0.00    +0.000 A 
ATOM     16  C   UNL     1       0.863   8.938  20.775  0.00  0.00    +0.000 A 
BRANCH  11  18
ATOM     17  C   UNL     1       2.061  10.789  18.008  0.00  0.00    +0.000 C 
ATOM     18  O   UNL     1       1.155   9.836  18.562  0.00  0.00    +0.000 OA
ENDBRANCH  11  18
ENDBRANCH   1  16
BRANCH   4  19
ATOM     19  C   UNL     1       4.708   5.562  18.583  0.00  0.00    +0.000 A 
ATOM     20  C   UNL     1       4.589   5.994  17.256  0.00  0.00    +0.000 A 
ATOM     21  C   UNL     1       5.714   6.439  16.564  0.00  0.00    +0.000 A 
ATOM     22  C   UNL     1       6.956   6.464  17.197  0.00  0.00    +0.000 A 
ATOM     23  C   UNL     1       7.077   6.051  18.524  0.00  0.00    +0.000 A 
ATOM     24  C   UNL     1       5.956   5.600  19.220  0.00  0.00    +0.000 A 
ENDBRANCH   4  19
BRANCH   5  25
ATOM     25  C   UNL     1       4.358   2.640  18.925  0.00  0.00    +0.000 C 
BRANCH  25  26
ATOM     26  N   UNL     1       5.136   2.002  19.981  0.00  0.00    +0.000 NA
ATOM     27  H   UNL     1       5.287   1.022  19.745  0.00  0.00    +0.000 HD
ATOM     28  H   UNL     1       4.579   1.991  20.836  0.00  0.00    +0.000 HD
ENDBRANCH  25  26
ENDBRANCH   5  25
TORSDOF 5
ENDMDL
MODEL 9
REMARK VINA RESULT:      -6.6      1.763      4.212
REMARK  Name = 
REMARK  7 active torsions:
REMARK  status: ('A' for Active; 'I' for Inactive)
REMARK    1  A    between atoms: C_1  and  O_2
REMARK    2  A    between atoms: O_2  and  C_3
REMARK    3  A    between atoms: C_8  and  C_9
REMARK    4  A    between atoms: C_12  and  C_13
REMARK    5  A    between atoms: C_19  and  C_20
REMARK    6  A    between atoms: C_20  and  N_21
REMARK    7  A    between atoms: C_22  and  C_23
REMARK                            x       y       z     vdW  Elec       q    Type
REMARK                         _______ _______ _______ _____ _____    ______ ____
ROOT
ATOM      1  C   UNL     1       1.475   8.099  19.989  0.00  0.00    +0.000 A 
ATOM      2  C   UNL     1       2.535   7.595  19.271  0.00  0.00    +0.000 A 
ATOM      3  N   UNL     1       2.670   6.281  19.658  0.00  0.00    +0.000 N 
ATOM      4  C   UNL     1       3.604   5.316  19.266  0.00  0.00    +0.000 A 
ATOM      5  C   UNL     1       3.553   4.074  19.808  0.00  0.00    +0.000 A 
ATOM      6  C   UNL     1       2.408   3.870  20.783  0.00  0.00    +0.000 A 
ATOM      7  C   UNL     1       2.210   2.507  21.427  0.00  0.00    +0.000 C 
ATOM      8  N   UNL     1       1.551   4.785  21.141  0.00  0.00    +0.000 NA
ATOM      9  C   UNL     1       1.677   6.023  20.584  0.00  0.00    +0.000 A 
ATOM     10  N   UNL     1       0.957   7.107  20.803  0.00  0.00    +0.000 NA
ENDROOT
BRANCH   1  16
ATOM     11  C   UNL     1       0.377  10.146  18.929  0.00  0.00    +0.000 A 
ATOM     12  C   UNL     1      -0.006  11.493  19.066  0.00  0.00    +0.000 A 
ATOM     13  C   UNL     1       0.259  12.202  20.237  0.00  0.00    +0.000 A 
ATOM     14  C   UNL     1       0.875  11.564  21.302  0.00  0.00    +0.000 A 
ATOM     15  C   UNL     1       1.227  10.216  21.194  0.00  0.00    +0.000 A 
ATOM     16  C   UNL     1       1.000   9.485  20.011  0.00  0.00    +0.000 A 
BRANCH  11  18
ATOM     17  C   UNL     1      -1.199   9.666  17.227  0.00  0.00    +0.000 C 
ATOM     18  O   UNL     1       0.096   9.442  17.782  0.00  0.00    +0.000 OA
ENDBRANCH  11  18
ENDBRANCH   1  16
BRANCH   4  19
ATOM     19  C   UNL     1       4.633   5.644  18.267  0.00  0.00    +0.000 A 
ATOM     20  C   UNL     1       4.316   5.609  16.903  0.00  0.00    +0.000 A 
ATOM     21  C   UNL     1       5.306   5.847  15.951  0.00  0.00    +0.000 A 
ATOM     22  C   UNL     1       6.609   6.130  16.358  0.00  0.00    +0.000 A 
ATOM     23  C   UNL     1       6.926   6.183  17.716  0.00  0.00    +0.000 A 
ATOM     24  C   UNL     1       5.940   5.942  18.672  0.00  0.00    +0.000 A 
ENDBRANCH   4  19
BRANCH   5  25
ATOM     25  C   UNL     1       4.477   2.935  19.455  0.00  0.00    +0.000 C 
BRANCH  25  26
ATOM     26  N   UNL     1       4.024   2.163  18.303  0.00  0.00    +0.000 NA
ATOM     27  H   UNL     1       4.719   2.228  17.560  0.00  0.00    +0.000 HD
ATOM     28  H   UNL     1       3.183   2.600  17.926  0.00  0.00    +0.000 HD
ENDBRANCH  25  26
ENDBRANCH   5  25
TORSDOF 5
ENDMDL
