MODEL 1
REMARK VINA RESULT:      -8.2      0.000      0.000
REMARK  Name = 
REMARK  5 active torsions:
REMARK  status: ('A' for Active; 'I' for Inactive)
REMARK    1  A    between atoms: C_2  and  N_3
REMARK    2  A    between atoms: C_2  and  N_11
REMARK    3  A    between atoms: N_3  and  C_4
REMARK    4  A    between atoms: N_11  and  C_12
REMARK    5  A    between atoms: N_20  and  C_21
REMARK                            x       y       z     vdW  Elec       q    Type
REMARK                         _______ _______ _______ _____ _____    ______ ____
ROOT
ATOM      1  C   UNL     1       5.630   4.587  19.096  0.00  0.00    +0.000 A 
ATOM      2  C   UNL     1       5.322   3.232  19.093  0.00  0.00    +0.000 A 
ATOM      3  C   UNL     1       4.034   2.810  19.443  0.00  0.00    +0.000 A 
ATOM      4  C   UNL     1       3.031   3.714  19.763  0.00  0.00    +0.000 A 
ATOM      5  N   UNL     1       1.808   3.248  20.034  0.00  0.00    +0.000 NA
ATOM      6  C   UNL     1       0.870   4.157  20.311  0.00  0.00    +0.000 A 
ATOM      7  N   UNL     1       1.040   5.480  20.335  0.00  0.00    +0.000 NA
ATOM      8  C   UNL     1       2.273   5.945  20.054  0.00  0.00    +0.000 A 
ATOM      9  N   UNL     1       2.477   7.353  19.985  0.00  0.00    +0.000 N 
ATOM     10  C   UNL     1       3.342   5.078  19.777  0.00  0.00    +0.000 A 
ATOM     11  C   UNL     1       4.661   5.501  19.502  0.00  0.00    +0.000 A 
ATOM     12  H   UNL     1       2.841   7.584  19.065  0.00  0.00    +0.000 HD
ENDROOT
BRANCH   9  13
ATOM     13  C   UNL     1       1.536   8.310  20.429  0.00  0.00    +0.000 A 
ATOM     14  C   UNL     1       1.282   8.479  21.798  0.00  0.00    +0.000 A 
ATOM     15  C   UNL     1       0.314   9.377  22.245  0.00  0.00    +0.000 A 
ATOM     16  C   UNL     1      -0.408  10.131  21.324  0.00  0.00    +0.000 A 
ATOM     17  C   UNL     1      -0.139   9.996  19.962  0.00  0.00    +0.000 A 
ATOM     18 BR   UNL     1      -1.128  11.014  18.713  0.00  0.00    +0.000 Br
ATOM     19  C   UNL     1       0.836   9.103  19.512  0.00  0.00    +0.000 A 
ENDBRANCH   9  13
BRANCH   1  20
ATOM     20  N   UNL     1       6.873   5.115  18.708  0.00  0.00    +0.000 N 
ATOM     21  H   UNL     1       7.602   5.127  19.415  0.00  0.00    +0.000 HD
BRANCH  20  23
ATOM     22  S   UNL     1       7.107   7.375  17.479  0.00  0.00    +0.000 S 
ATOM     23  C   UNL     1       7.270   5.708  17.541  0.00  0.00    +0.000 C 
BRANCH  23  24
ATOM     24  N   UNL     1       7.606   4.864  16.510  0.00  0.00    +0.000 N 
ATOM     25  H   UNL     1       8.376   4.244  16.732  0.00  0.00    +0.000 HD
BRANCH  24  26
ATOM     26  C   UNL     1       6.854   4.518  15.371  0.00  0.00    +0.000 A 
ATOM     27  C   UNL     1       5.511   4.140  15.447  0.00  0.00    +0.000 A 
ATOM     28  C   UNL     1       4.806   3.790  14.293  0.00  0.00    +0.000 A 
ATOM     29  C   UNL     1       5.441   3.838  13.055  0.00  0.00    +0.000 A 
ATOM     30 CL   UNL     1       4.581   3.377  11.639  0.00  0.00    +0.000 Cl
ATOM     31  C   UNL     1       6.765   4.261  12.960  0.00  0.00    +0.000 A 
ATOM     32  C   UNL     1       7.467   4.617  14.116  0.00  0.00    +0.000 A 
ENDBRANCH  24  26
ENDBRANCH  23  24
ENDBRANCH  20  23
ENDBRANCH   1  20
TORSDOF 5
ENDMDL
MODEL 2
REMARK VINA RESULT:      -8.0      0.942      1.305
REMARK  Name = 
REMARK  5 active torsions:
REMARK  status: ('A' for Active; 'I' for Inactive)
REMARK    1  A    between atoms: C_2  and  N_3
REMARK    2  A    between atoms: C_2  and  N_11
REMARK    3  A    between atoms: N_3  and  C_4
REMARK    4  A    between atoms: N_11  and  C_12
REMARK    5  A    between atoms: N_20  and  C_21
REMARK                            x       y       z     vdW  Elec       q    Type
REMARK                         _______ _______ _______ _____ _____    ______ ____
ROOT
ATOM      1  C   UNL     1       5.733   4.651  19.199  0.00  0.00    +0.000 A 
ATOM      2  C   UNL     1       5.449   3.298  19.351  0.00  0.00    +0.000 A 
ATOM      3  C   UNL     1       4.151   2.893  19.682  0.00  0.00    +0.000 A 
ATOM      4  C   UNL     1       3.116   3.805  19.832  0.00  0.00    +0.000 A 
ATOM      5  N   UNL     1       1.888   3.347  20.094  0.00  0.00    +0.000 NA
ATOM      6  C   UNL     1       0.920   4.262  20.204  0.00  0.00    +0.000 A 
ATOM      7  N   UNL     1       1.066   5.581  20.069  0.00  0.00    +0.000 NA
ATOM      8  C   UNL     1       2.304   6.036  19.798  0.00  0.00    +0.000 A 
ATOM      9  N   UNL     1       2.488   7.429  19.562  0.00  0.00    +0.000 N 
ATOM     10  C   UNL     1       3.402   5.168  19.690  0.00  0.00    +0.000 A 
ATOM     11  C   UNL     1       4.727   5.584  19.434  0.00  0.00    +0.000 A 
ATOM     12  H   UNL     1       2.898   7.552  18.641  0.00  0.00    +0.000 HD
ENDROOT
BRANCH   9  13
ATOM     13  C   UNL     1       1.507   8.412  19.831  0.00  0.00    +0.000 A 
ATOM     14  C   UNL     1       1.020   9.233  18.805  0.00  0.00    +0.000 A 
ATOM     15  C   UNL     1       0.098  10.245  19.068  0.00  0.00    +0.000 A 
ATOM     16  C   UNL     1      -0.361  10.441  20.369  0.00  0.00    +0.000 A 
ATOM     17  C   UNL     1       0.092   9.607  21.391  0.00  0.00    +0.000 A 
ATOM     18 BR   UNL     1      -0.526   9.882  23.157  0.00  0.00    +0.000 Br
ATOM     19  C   UNL     1       1.009   8.588  21.127  0.00  0.00    +0.000 A 
ENDBRANCH   9  13
BRANCH   1  20
ATOM     20  N   UNL     1       6.986   5.155  18.814  0.00  0.00    +0.000 N 
ATOM     21  H   UNL     1       7.694   5.214  19.539  0.00  0.00    +0.000 HD
BRANCH  20  23
ATOM     22  S   UNL     1       7.365   7.345  17.495  0.00  0.00    +0.000 S 
ATOM     23  C   UNL     1       7.416   5.674  17.624  0.00  0.00    +0.000 C 
BRANCH  23  24
ATOM     24  N   UNL     1       7.691   4.769  16.626  0.00  0.00    +0.000 N 
ATOM     25  H   UNL     1       8.398   4.090  16.881  0.00  0.00    +0.000 HD
BRANCH  24  26
ATOM     26  C   UNL     1       6.927   4.454  15.485  0.00  0.00    +0.000 A 
ATOM     27  C   UNL     1       5.626   3.954  15.569  0.00  0.00    +0.000 A 
ATOM     28  C   UNL     1       4.910   3.640  14.413  0.00  0.00    +0.000 A 
ATOM     29  C   UNL     1       5.489   3.847  13.164  0.00  0.00    +0.000 A 
ATOM     30 CL   UNL     1       4.619   3.432  11.741  0.00  0.00    +0.000 Cl
ATOM     31  C   UNL     1       6.768   4.392  13.065  0.00  0.00    +0.000 A 
ATOM     32  C   UNL     1       7.481   4.712  14.225  0.00  0.00    +0.000 A 
ENDBRANCH  24  26
ENDBRANCH  23  24
ENDBRANCH  20  23
ENDBRANCH   1  20
TORSDOF 5
ENDMDL
MODEL 3
REMARK VINA RESULT:      -7.9      3.537      5.911
REMARK  Name = 
REMARK  5 active torsions:
REMARK  status: ('A' for Active; 'I' for Inactive)
REMARK    1  A    between atoms: C_2  and  N_3
REMARK    2  A    between atoms: C_2  and  N_11
REMARK    3  A    between atoms: N_3  and  C_4
REMARK    4  A    between atoms: N_11  and  C_12
REMARK    5  A    between atoms: N_20  and  C_21
REMARK                            x       y       z     vdW  Elec       q    Type
REMARK                         _______ _______ _______ _____ _____    ______ ____
ROOT
ATOM      1  C   UNL     1       1.577   8.288  19.940  0.00  0.00    +0.000 A 
ATOM      2  C   UNL     1       1.874   8.510  18.600  0.00  0.00    +0.000 A 
ATOM      3  C   UNL     1       1.447   9.690  17.979  0.00  0.00    +0.000 A 
ATOM      4  C   UNL     1       0.758  10.674  18.674  0.00  0.00    +0.000 A 
ATOM      5  N   UNL     1       0.427  11.800  18.035  0.00  0.00    +0.000 NA
ATOM      6  C   UNL     1      -0.211  12.728  18.753  0.00  0.00    +0.000 A 
ATOM      7  N   UNL     1      -0.541  12.637  20.042  0.00  0.00    +0.000 NA
ATOM      8  C   UNL     1      -0.199  11.502  20.683  0.00  0.00    +0.000 A 
ATOM      9  N   UNL     1      -0.456  11.398  22.080  0.00  0.00    +0.000 N 
ATOM     10  C   UNL     1       0.449  10.447  20.020  0.00  0.00    +0.000 A 
ATOM     11  C   UNL     1       0.810   9.224  20.628  0.00  0.00    +0.000 A 
ATOM     12  H   UNL     1       0.421  11.215  22.560  0.00  0.00    +0.000 HD
ENDROOT
BRANCH   9  13
ATOM     13  C   UNL     1      -1.267  12.302  22.804  0.00  0.00    +0.000 A 
ATOM     14  C   UNL     1      -0.789  13.576  23.140  0.00  0.00    +0.000 A 
ATOM     15  C   UNL     1      -1.556  14.455  23.904  0.00  0.00    +0.000 A 
ATOM     16  C   UNL     1      -2.824  14.071  24.334  0.00  0.00    +0.000 A 
ATOM     17  C   UNL     1      -3.322  12.819  23.976  0.00  0.00    +0.000 A 
ATOM     18 BR   UNL     1      -5.040  12.296  24.570  0.00  0.00    +0.000 Br
ATOM     19  C   UNL     1      -2.559  11.941  23.204  0.00  0.00    +0.000 A 
ENDBRANCH   9  13
BRANCH   1  20
ATOM     20  N   UNL     1       2.007   7.166  20.668  0.00  0.00    +0.000 N 
ATOM     21  H   UNL     1       2.114   7.289  21.670  0.00  0.00    +0.000 HD
BRANCH  20  23
ATOM     22  S   UNL     1       1.298   4.687  20.511  0.00  0.00    +0.000 S 
ATOM     23  C   UNL     1       2.399   5.924  20.252  0.00  0.00    +0.000 C 
BRANCH  23  24
ATOM     24  N   UNL     1       3.698   5.806  19.816  0.00  0.00    +0.000 N 
ATOM     25  H   UNL     1       4.367   5.698  20.570  0.00  0.00    +0.000 HD
BRANCH  24  26
ATOM     26  C   UNL     1       4.173   5.489  18.529  0.00  0.00    +0.000 A 
ATOM     27  C   UNL     1       4.608   6.464  17.630  0.00  0.00    +0.000 A 
ATOM     28  C   UNL     1       5.057   6.106  16.357  0.00  0.00    +0.000 A 
ATOM     29  C   UNL     1       5.089   4.765  15.988  0.00  0.00    +0.000 A 
ATOM     30 CL   UNL     1       5.612   4.326  14.410  0.00  0.00    +0.000 Cl
ATOM     31  C   UNL     1       4.704   3.778  16.894  0.00  0.00    +0.000 A 
ATOM     32  C   UNL     1       4.262   4.139  18.170  0.00  0.00    +0.000 A 
ENDBRANCH  24  26
ENDBRANCH  23  24
ENDBRANCH  20  23
ENDBRANCH   1  20
TORSDOF 5
ENDMDL
MODEL 4
REMARK VINA RESULT:      -7.9      3.555      5.923
REMARK  Name = 
REMARK  5 active torsions:
REMARK  status: ('A' for Active; 'I' for Inactive)
REMARK    1  A    between atoms: C_2  and  N_3
REMARK    2  A    between atoms: C_2  and  N_11
REMARK    3  A    between atoms: N_3  and  C_4
REMARK    4  A    between atoms: N_11  and  C_12
REMARK    5  A    between atoms: N_20  and  C_21
REMARK                            x       y       z     vdW  Elec       q    Type
REMARK                         _______ _______ _______ _____ _____    ______ ____
ROOT
ATOM      1  C   UNL     1       1.537   8.225  19.993  0.00  0.00    +0.000 A 
ATOM      2  C   UNL     1       1.910   8.497  18.681  0.00  0.00    +0.000 A 
ATOM      3  C   UNL     1       1.545   9.713  18.091  0.00  0.00    +0.000 A 
ATOM      4  C   UNL     1       0.845  10.684  18.793  0.00  0.00    +0.000 A 
ATOM      5  N   UNL     1       0.576  11.846  18.189  0.00  0.00    +0.000 NA
ATOM      6  C   UNL     1      -0.077  12.759  18.913  0.00  0.00    +0.000 A 
ATOM      7  N   UNL     1      -0.476  12.621  20.178  0.00  0.00    +0.000 NA
ATOM      8  C   UNL     1      -0.196  11.451  20.784  0.00  0.00    +0.000 A 
ATOM      9  N   UNL     1      -0.529  11.293  22.161  0.00  0.00    +0.000 N 
ATOM     10  C   UNL     1       0.460  10.409  20.110  0.00  0.00    +0.000 A 
ATOM     11  C   UNL     1       0.758   9.152  20.681  0.00  0.00    +0.000 A 
ATOM     12  H   UNL     1       0.317  11.067  22.676  0.00  0.00    +0.000 HD
ENDROOT
BRANCH   9  13
ATOM     13  C   UNL     1      -1.355  12.187  22.881  0.00  0.00    +0.000 A 
ATOM     14  C   UNL     1      -2.663  11.825  23.229  0.00  0.00    +0.000 A 
ATOM     15  C   UNL     1      -3.507  12.719  23.887  0.00  0.00    +0.000 A 
ATOM     16  C   UNL     1      -3.044  13.992  24.216  0.00  0.00    +0.000 A 
ATOM     17  C   UNL     1      -1.733  14.349  23.904  0.00  0.00    +0.000 A 
ATOM     18 BR   UNL     1      -1.111  16.080  24.345  0.00  0.00    +0.000 Br
ATOM     19  C   UNL     1      -0.884  13.452  23.254  0.00  0.00    +0.000 A 
ENDBRANCH   9  13
BRANCH   1  20
ATOM     20  N   UNL     1       1.901   7.062  20.691  0.00  0.00    +0.000 N 
ATOM     21  H   UNL     1       1.900   7.122  21.705  0.00  0.00    +0.000 HD
BRANCH  20  23
ATOM     22  S   UNL     1       1.302   4.559  20.463  0.00  0.00    +0.000 S 
ATOM     23  C   UNL     1       2.349   5.850  20.243  0.00  0.00    +0.000 C 
BRANCH  23  24
ATOM     24  N   UNL     1       3.653   5.802  19.811  0.00  0.00    +0.000 N 
ATOM     25  H   UNL     1       4.326   5.766  20.567  0.00  0.00    +0.000 HD
BRANCH  24  26
ATOM     26  C   UNL     1       4.149   5.468  18.536  0.00  0.00    +0.000 A 
ATOM     27  C   UNL     1       4.639   6.428  17.648  0.00  0.00    +0.000 A 
ATOM     28  C   UNL     1       5.108   6.054  16.386  0.00  0.00    +0.000 A 
ATOM     29  C   UNL     1       5.105   4.712  16.019  0.00  0.00    +0.000 A 
ATOM     30 CL   UNL     1       5.653   4.255  14.454  0.00  0.00    +0.000 Cl
ATOM     31  C   UNL     1       4.666   3.739  16.915  0.00  0.00    +0.000 A 
ATOM     32  C   UNL     1       4.203   4.115  18.180  0.00  0.00    +0.000 A 
ENDBRANCH  24  26
ENDBRANCH  23  24
ENDBRANCH  20  23
ENDBRANCH   1  20
TORSDOF 5
ENDMDL
MODEL 5
REMARK VINA RESULT:      -7.7      2.910      4.832
REMARK  Name = 
REMARK  5 active torsions:
REMARK  status: ('A' for Active; 'I' for Inactive)
REMARK    1  A    between atoms: C_2  and  N_3
REMARK    2  A    between atoms: C_2  and  N_11
REMARK    3  A    between atoms: N_3  and  C_4
REMARK    4  A    between atoms: N_11  and  C_12
REMARK    5  A    between atoms: N_20  and  C_21
REMARK                            x       y       z     vdW  Elec       q    Type
REMARK                         _______ _______ _______ _____ _____    ______ ____
ROOT
ATOM      1  C   UNL     1       2.409   6.636  19.770  0.00  0.00    +0.000 A 
ATOM      2  C   UNL     1       2.868   6.749  18.463  0.00  0.00    +0.000 A 
ATOM      3  C   UNL     1       2.640   7.928  17.744  0.00  0.00    +0.000 A 
ATOM      4  C   UNL     1       1.994   9.017  18.313  0.00  0.00    +0.000 A 
ATOM      5  N   UNL     1       1.857  10.133  17.590  0.00  0.00    +0.000 NA
ATOM      6  C   UNL     1       1.251  11.162  18.188  0.00  0.00    +0.000 A 
ATOM      7  N   UNL     1       0.779  11.179  19.436  0.00  0.00    +0.000 NA
ATOM      8  C   UNL     1       0.926  10.054  20.162  0.00  0.00    +0.000 A 
ATOM      9  N   UNL     1       0.512  10.057  21.526  0.00  0.00    +0.000 N 
ATOM     10  C   UNL     1       1.521   8.901  19.625  0.00  0.00    +0.000 A 
ATOM     11  C   UNL     1       1.680   7.685  20.324  0.00  0.00    +0.000 A 
ATOM     12  H   UNL     1       1.308   9.813  22.107  0.00  0.00    +0.000 HD
ENDROOT
BRANCH   9  13
ATOM     13  C   UNL     1      -0.267  11.081  22.112  0.00  0.00    +0.000 A 
ATOM     14  C   UNL     1      -1.365  10.764  22.925  0.00  0.00    +0.000 A 
ATOM     15  C   UNL     1      -2.176  11.763  23.461  0.00  0.00    +0.000 A 
ATOM     16  C   UNL     1      -1.891  13.101  23.197  0.00  0.00    +0.000 A 
ATOM     17  C   UNL     1      -0.782  13.428  22.417  0.00  0.00    +0.000 A 
ATOM     18 BR   UNL     1      -0.403  15.244  22.053  0.00  0.00    +0.000 Br
ATOM     19  C   UNL     1       0.038  12.428  21.887  0.00  0.00    +0.000 A 
ENDBRANCH   9  13
BRANCH   1  20
ATOM     20  N   UNL     1       2.634   5.520  20.592  0.00  0.00    +0.000 N 
ATOM     21  H   UNL     1       2.930   5.709  21.545  0.00  0.00    +0.000 HD
BRANCH  20  23
ATOM     22  S   UNL     1       1.171   3.391  20.662  0.00  0.00    +0.000 S 
ATOM     23  C   UNL     1       2.608   4.181  20.313  0.00  0.00    +0.000 C 
BRANCH  23  24
ATOM     24  N   UNL     1       3.800   3.613  19.929  0.00  0.00    +0.000 N 
ATOM     25  H   UNL     1       4.001   2.740  20.403  0.00  0.00    +0.000 HD
BRANCH  24  26
ATOM     26  C   UNL     1       4.576   3.878  18.785  0.00  0.00    +0.000 A 
ATOM     27  C   UNL     1       4.174   3.498  17.502  0.00  0.00    +0.000 A 
ATOM     28  C   UNL     1       4.983   3.767  16.396  0.00  0.00    +0.000 A 
ATOM     29  C   UNL     1       6.190   4.438  16.570  0.00  0.00    +0.000 A 
ATOM     30 CL   UNL     1       7.200   4.742  15.212  0.00  0.00    +0.000 Cl
ATOM     31  C   UNL     1       6.579   4.866  17.838  0.00  0.00    +0.000 A 
ATOM     32  C   UNL     1       5.764   4.601  18.943  0.00  0.00    +0.000 A 
ENDBRANCH  24  26
ENDBRANCH  23  24
ENDBRANCH  20  23
ENDBRANCH   1  20
TORSDOF 5
ENDMDL
MODEL 6
REMARK VINA RESULT:      -7.7      4.265      8.484
REMARK  Name = 
REMARK  5 active torsions:
REMARK  status: ('A' for Active; 'I' for Inactive)
REMARK    1  A    between atoms: C_2  and  N_3
REMARK    2  A    between atoms: C_2  and  N_11
REMARK    3  A    between atoms: N_3  and  C_4
REMARK    4  A    between atoms: N_11  and  C_12
REMARK    5  A    between atoms: N_20  and  C_21
REMARK                            x       y       z     vdW  Elec       q    Type
REMARK                         _______ _______ _______ _____ _____    ______ ____
ROOT
ATOM      1  C   UNL     1       2.054   7.289  19.677  0.00  0.00    +0.000 A 
ATOM      2  C   UNL     1       1.517   6.425  20.624  0.00  0.00    +0.000 A 
ATOM      3  C   UNL     1       1.800   5.056  20.558  0.00  0.00    +0.000 A 
ATOM      4  C   UNL     1       2.638   4.530  19.585  0.00  0.00    +0.000 A 
ATOM      5  N   UNL     1       2.910   3.221  19.610  0.00  0.00    +0.000 NA
ATOM      6  C   UNL     1       3.741   2.766  18.669  0.00  0.00    +0.000 A 
ATOM      7  N   UNL     1       4.326   3.494  17.717  0.00  0.00    +0.000 NA
ATOM      8  C   UNL     1       4.053   4.813  17.700  0.00  0.00    +0.000 A 
ATOM      9  N   UNL     1       4.723   5.641  16.753  0.00  0.00    +0.000 N 
ATOM     10  C   UNL     1       3.171   5.396  18.623  0.00  0.00    +0.000 A 
ATOM     11  C   UNL     1       2.824   6.765  18.641  0.00  0.00    +0.000 A 
ATOM     12  H   UNL     1       5.224   6.369  17.255  0.00  0.00    +0.000 HD
ENDROOT
BRANCH   9  13
ATOM     13  C   UNL     1       5.475   5.146  15.663  0.00  0.00    +0.000 A 
ATOM     14  C   UNL     1       6.869   5.287  15.636  0.00  0.00    +0.000 A 
ATOM     15  C   UNL     1       7.615   4.856  14.540  0.00  0.00    +0.000 A 
ATOM     16  C   UNL     1       6.972   4.265  13.455  0.00  0.00    +0.000 A 
ATOM     17  C   UNL     1       5.589   4.089  13.487  0.00  0.00    +0.000 A 
ATOM     18 BR   UNL     1       4.718   3.295  12.008  0.00  0.00    +0.000 Br
ATOM     19  C   UNL     1       4.841   4.512  14.588  0.00  0.00    +0.000 A 
ENDBRANCH   9  13
BRANCH   1  20
ATOM     20  N   UNL     1       1.877   8.683  19.689  0.00  0.00    +0.000 N 
ATOM     21  H   UNL     1       2.721   9.247  19.723  0.00  0.00    +0.000 HD
BRANCH  20  23
ATOM     22  S   UNL     1       0.001   9.531  21.250  0.00  0.00    +0.000 S 
ATOM     23  C   UNL     1       0.741   9.442  19.748  0.00  0.00    +0.000 C 
BRANCH  23  24
ATOM     24  N   UNL     1       0.255   9.910  18.550  0.00  0.00    +0.000 N 
ATOM     25  H   UNL     1       0.837   9.665  17.757  0.00  0.00    +0.000 HD
BRANCH  24  26
ATOM     26  C   UNL     1      -1.041  10.363  18.240  0.00  0.00    +0.000 A 
ATOM     27  C   UNL     1      -1.654  11.411  18.930  0.00  0.00    +0.000 A 
ATOM     28  C   UNL     1      -2.948  11.818  18.599  0.00  0.00    +0.000 A 
ATOM     29  C   UNL     1      -3.625  11.188  17.559  0.00  0.00    +0.000 A 
ATOM     30 CL   UNL     1      -5.230  11.669  17.172  0.00  0.00    +0.000 Cl
ATOM     31  C   UNL     1      -3.006  10.175  16.829  0.00  0.00    +0.000 A 
ATOM     32  C   UNL     1      -1.708   9.774  17.159  0.00  0.00    +0.000 A 
ENDBRANCH  24  26
ENDBRANCH  23  24
ENDBRANCH  20  23
ENDBRANCH   1  20
TORSDOF 5
ENDMDL
MODEL 7
REMARK VINA RESULT:      -7.7      4.209      8.346
REMARK  Name = 
REMARK  5 active torsions:
REMARK  status: ('A' for Active; 'I' for Inactive)
REMARK    1  A    between atoms: C_2  and  N_3
REMARK    2  A    between atoms: C_2  and  N_11
REMARK    3  A    between atoms: N_3  and  C_4
REMARK    4  A    between atoms: N_11  and  C_12
REMARK    5  A    between atoms: N_20  and  C_21
REMARK                            x       y       z     vdW  Elec       q    Type
REMARK                         _______ _______ _______ _____ _____    ______ ____
ROOT
ATOM      1  C   UNL     1       2.097   6.392  20.108  0.00  0.00    +0.000 A 
ATOM      2  C   UNL     1       1.395   5.396  20.777  0.00  0.00    +0.000 A 
ATOM      3  C   UNL     1       1.515   4.063  20.365  0.00  0.00    +0.000 A 
ATOM      4  C   UNL     1       2.350   3.694  19.320  0.00  0.00    +0.000 A 
ATOM      5  N   UNL     1       2.460   2.398  19.013  0.00  0.00    +0.000 NA
ATOM      6  C   UNL     1       3.295   2.089  18.016  0.00  0.00    +0.000 A 
ATOM      7  N   UNL     1       4.029   2.950  17.310  0.00  0.00    +0.000 NA
ATOM      8  C   UNL     1       3.918   4.255  17.628  0.00  0.00    +0.000 A 
ATOM      9  N   UNL     1       4.747   5.199  16.956  0.00  0.00    +0.000 N 
ATOM     10  C   UNL     1       3.049   4.696  18.638  0.00  0.00    +0.000 A 
ATOM     11  C   UNL     1       2.869   6.050  19.001  0.00  0.00    +0.000 A 
ATOM     12  H   UNL     1       5.296   5.700  17.648  0.00  0.00    +0.000 HD
ENDROOT
BRANCH   9  13
ATOM     13  C   UNL     1       5.509   4.900  15.802  0.00  0.00    +0.000 A 
ATOM     14  C   UNL     1       6.873   5.219  15.747  0.00  0.00    +0.000 A 
ATOM     15  C   UNL     1       7.621   4.985  14.594  0.00  0.00    +0.000 A 
ATOM     16  C   UNL     1       7.011   4.414  13.478  0.00  0.00    +0.000 A 
ATOM     17  C   UNL     1       5.663   4.062  13.535  0.00  0.00    +0.000 A 
ATOM     18 BR   UNL     1       4.837   3.297  12.017  0.00  0.00    +0.000 Br
ATOM     19  C   UNL     1       4.915   4.288  14.693  0.00  0.00    +0.000 A 
ENDBRANCH   9  13
BRANCH   1  20
ATOM     20  N   UNL     1       2.088   7.747  20.477  0.00  0.00    +0.000 N 
ATOM     21  H   UNL     1       2.922   8.097  20.940  0.00  0.00    +0.000 HD
BRANCH  20  23
ATOM     22  S   UNL     1       0.015   8.717  21.676  0.00  0.00    +0.000 S 
ATOM     23  C   UNL     1       1.102   8.691  20.400  0.00  0.00    +0.000 C 
BRANCH  23  24
ATOM     24  N   UNL     1       1.023   9.398  19.223  0.00  0.00    +0.000 N 
ATOM     25  H   UNL     1       0.899   8.809  18.407  0.00  0.00    +0.000 HD
BRANCH  24  26
ATOM     26  C   UNL     1       0.759  10.767  19.031  0.00  0.00    +0.000 A 
ATOM     27  C   UNL     1       1.766  11.691  18.741  0.00  0.00    +0.000 A 
ATOM     28  C   UNL     1       1.462  13.043  18.574  0.00  0.00    +0.000 A 
ATOM     29  C   UNL     1       0.142  13.472  18.677  0.00  0.00    +0.000 A 
ATOM     30 CL   UNL     1      -0.228  15.142  18.502  0.00  0.00    +0.000 Cl
ATOM     31  C   UNL     1      -0.878  12.554  18.917  0.00  0.00    +0.000 A 
ATOM     32  C   UNL     1      -0.572  11.199  19.077  0.00  0.00    +0.000 A 
ENDBRANCH  24  26
ENDBRANCH  23  24
ENDBRANCH  20  23
ENDBRANCH   1  20
TORSDOF 5
ENDMDL
MODEL 8
REMARK VINA RESULT:      -7.7      7.358     10.284
REMARK  Name = 
REMARK  5 active torsions:
REMARK  status: ('A' for Active; 'I' for Inactive)
REMARK    1  A    between atoms: C_2  and  N_3
REMARK    2  A    between atoms: C_2  and  N_11
REMARK    3  A    between atoms: N_3  and  C_4
REMARK    4  A    between atoms: N_11  and  C_12
REMARK    5  A    between atoms: N_20  and  C_21
REMARK                            x       y       z     vdW  Elec       q    Type
REMARK                         _______ _______ _______ _____ _____    ______ ____
ROOT
ATOM      1  C   UNL     1      -0.745  10.659  18.276  0.00  0.00    +0.000 A 
ATOM      2  C   UNL     1       0.188   9.629  18.313  0.00  0.00    +0.000 A 
ATOM      3  C   UNL     1       0.721   9.215  19.539  0.00  0.00    +0.000 A 
ATOM      4  C   UNL     1       0.317   9.783  20.740  0.00  0.00    +0.000 A 
ATOM      5  N   UNL     1       0.824   9.304  21.880  0.00  0.00    +0.000 NA
ATOM      6  C   UNL     1       0.386   9.864  23.010  0.00  0.00    +0.000 A 
ATOM      7  N   UNL     1      -0.511  10.847  23.105  0.00  0.00    +0.000 NA
ATOM      8  C   UNL     1      -1.024  11.321  21.952  0.00  0.00    +0.000 A 
ATOM      9  N   UNL     1      -2.046  12.312  22.012  0.00  0.00    +0.000 N 
ATOM     10  C   UNL     1      -0.614  10.827  20.704  0.00  0.00    +0.000 A 
ATOM     11  C   UNL     1      -1.093  11.299  19.462  0.00  0.00    +0.000 A 
ATOM     12  H   UNL     1      -2.867  11.961  21.526  0.00  0.00    +0.000 HD
ENDROOT
BRANCH   9  13
ATOM     13  C   UNL     1      -2.397  13.016  23.187  0.00  0.00    +0.000 A 
ATOM     14  C   UNL     1      -3.579  12.710  23.876  0.00  0.00    +0.000 A 
ATOM     15  C   UNL     1      -3.966  13.436  25.001  0.00  0.00    +0.000 A 
ATOM     16  C   UNL     1      -3.163  14.477  25.461  0.00  0.00    +0.000 A 
ATOM     17  C   UNL     1      -1.968  14.767  24.804  0.00  0.00    +0.000 A 
ATOM     18 BR   UNL     1      -0.885  16.187  25.425  0.00  0.00    +0.000 Br
ATOM     19  C   UNL     1      -1.575  14.035  23.681  0.00  0.00    +0.000 A 
ENDBRANCH   9  13
BRANCH   1  20
ATOM     20  N   UNL     1      -1.378  11.108  17.106  0.00  0.00    +0.000 N 
ATOM     21  H   UNL     1      -0.807  11.638  16.454  0.00  0.00    +0.000 HD
BRANCH  20  23
ATOM     22  S   UNL     1      -3.004   9.971  15.451  0.00  0.00    +0.000 S 
ATOM     23  C   UNL     1      -2.685  11.032  16.708  0.00  0.00    +0.000 C 
BRANCH  23  24
ATOM     24  N   UNL     1      -3.550  11.940  17.273  0.00  0.00    +0.000 N 
ATOM     25  H   UNL     1      -3.584  12.824  16.779  0.00  0.00    +0.000 HD
BRANCH  24  26
ATOM     26  C   UNL     1      -4.594  11.712  18.189  0.00  0.00    +0.000 A 
ATOM     27  C   UNL     1      -5.637  10.820  17.929  0.00  0.00    +0.000 A 
ATOM     28  C   UNL     1      -6.662  10.636  18.859  0.00  0.00    +0.000 A 
ATOM     29  C   UNL     1      -6.634  11.332  20.064  0.00  0.00    +0.000 A 
ATOM     30 CL   UNL     1      -7.912  11.128  21.196  0.00  0.00    +0.000 Cl
ATOM     31  C   UNL     1      -5.573  12.187  20.357  0.00  0.00    +0.000 A 
ATOM     32  C   UNL     1      -4.545  12.365  19.426  0.00  0.00    +0.000 A 
ENDBRANCH  24  26
ENDBRANCH  23  24
ENDBRANCH  20  23
ENDBRANCH   1  20
TORSDOF 5
ENDMDL
MODEL 9
REMARK VINA RESULT:      -7.7      3.359      5.612
REMARK  Name = 
REMARK  5 active torsions:
REMARK  status: ('A' for Active; 'I' for Inactive)
REMARK    1  A    between atoms: C_2  and  N_3
REMARK    2  A    between atoms: C_2  and  N_11
REMARK    3  A    between atoms: N_3  and  C_4
REMARK    4  A    between atoms: N_11  and  C_12
REMARK    5  A    between atoms: N_20  and  C_21
REMARK                            x       y       z     vdW  Elec       q    Type
REMARK                         _______ _______ _______ _____ _____    ______ ____
ROOT
ATOM      1  C   UNL     1       1.748   7.629  20.055  0.00  0.00    +0.000 A 
ATOM      2  C   UNL     1       2.251   7.839  18.775  0.00  0.00    +0.000 A 
ATOM      3  C   UNL     1       2.046   9.069  18.139  0.00  0.00    +0.000 A 
ATOM      4  C   UNL     1       1.379  10.113  18.765  0.00  0.00    +0.000 A 
ATOM      5  N   UNL     1       1.266  11.280  18.124  0.00  0.00    +0.000 NA
ATOM      6  C   UNL     1       0.639  12.262  18.777  0.00  0.00    +0.000 A 
ATOM      7  N   UNL     1       0.126  12.187  20.005  0.00  0.00    +0.000 NA
ATOM      8  C   UNL     1       0.249  11.011  20.650  0.00  0.00    +0.000 A 
ATOM      9  N   UNL     1      -0.209  10.913  21.996  0.00  0.00    +0.000 N 
ATOM     10  C   UNL     1       0.864   9.901  20.049  0.00  0.00    +0.000 A 
ATOM     11  C   UNL     1       1.000   8.635  20.661  0.00  0.00    +0.000 A 
ATOM     12  H   UNL     1       0.567  10.625  22.584  0.00  0.00    +0.000 HD
ENDROOT
BRANCH   9  13
ATOM     13  C   UNL     1      -1.009  11.892  22.631  0.00  0.00    +0.000 A 
ATOM     14  C   UNL     1      -2.275  11.561  23.133  0.00  0.00    +0.000 A 
ATOM     15  C   UNL     1      -3.097  12.529  23.707  0.00  0.00    +0.000 A 
ATOM     16  C   UNL     1      -2.654  13.847  23.797  0.00  0.00    +0.000 A 
ATOM     17  C   UNL     1      -1.383  14.179  23.332  0.00  0.00    +0.000 A 
ATOM     18 BR   UNL     1      -0.789  15.971  23.447  0.00  0.00    +0.000 Br
ATOM     19  C   UNL     1      -0.554  13.209  22.764  0.00  0.00    +0.000 A 
ENDBRANCH   9  13
BRANCH   1  20
ATOM     20  N   UNL     1       1.948   6.455  20.798  0.00  0.00    +0.000 N 
ATOM     21  H   UNL     1       1.857   6.535  21.807  0.00  0.00    +0.000 HD
BRANCH  20  23
ATOM     22  S   UNL     1       1.120   4.047  20.360  0.00  0.00    +0.000 S 
ATOM     23  C   UNL     1       2.334   5.202  20.408  0.00  0.00    +0.000 C 
BRANCH  23  24
ATOM     24  N   UNL     1       3.685   4.998  20.255  0.00  0.00    +0.000 N 
ATOM     25  H   UNL     1       4.129   4.604  21.076  0.00  0.00    +0.000 HD
BRANCH  24  26
ATOM     26  C   UNL     1       4.440   4.942  19.068  0.00  0.00    +0.000 A 
ATOM     27  C   UNL     1       3.868   4.640  17.830  0.00  0.00    +0.000 A 
ATOM     28  C   UNL     1       4.656   4.579  16.679  0.00  0.00    +0.000 A 
ATOM     29  C   UNL     1       6.020   4.842  16.762  0.00  0.00    +0.000 A 
ATOM     30 CL   UNL     1       6.996   4.737  15.351  0.00  0.00    +0.000 Cl
ATOM     31  C   UNL     1       6.595   5.193  17.982  0.00  0.00    +0.000 A 
ATOM     32  C   UNL     1       5.801   5.260  19.132  0.00  0.00    +0.000 A 
ENDBRANCH  24  26
ENDBRANCH  23  24
ENDBRANCH  20  23
ENDBRANCH   1  20
TORSDOF 5
ENDMDL
