MODEL 1
REMARK VINA RESULT:      -8.3      0.000      0.000
REMARK  Name = 
REMARK  8 active torsions:
REMARK  status: ('A' for Active; 'I' for Inactive)
REMARK    1  A    between atoms: C_1  and  O_2
REMARK    2  A    between atoms: O_2  and  C_3
REMARK    3  A    between atoms: C_8  and  N_9
REMARK    4  A    between atoms: C_10  and  C_12
REMARK    5  A    between atoms: C_12  and  O_13
REMARK    6  A    between atoms: O_13  and  C_14
REMARK    7  A    between atoms: C_14  and  C_16
REMARK    8  A    between atoms: C_25  and  O_26
REMARK                            x       y       z     vdW  Elec       q    Type
REMARK                         _______ _______ _______ _____ _____    ______ ____
ROOT
ATOM      1  O   UNL     1       2.666   2.470  20.947  0.00  0.00    +0.000 OA
ENDROOT
BRANCH   1   2
ATOM      2  C   UNL     1       3.952   2.349  20.568  0.00  0.00    +0.000 C 
ATOM      3  O   UNL     1       4.842   1.849  21.239  0.00  0.00    +0.000 OA
BRANCH   2   4
ATOM      4  C   UNL     1       4.193   2.999  19.254  0.00  0.00    +0.000 A 
ATOM      5  C   UNL     1       5.213   3.965  19.241  0.00  0.00    +0.000 A 
ATOM      6  C   UNL     1       5.478   4.722  18.096  0.00  0.00    +0.000 A 
ATOM      7  C   UNL     1       6.389   5.786  18.139  0.00  0.00    +0.000 A 
ATOM      8  C   UNL     1       6.643   6.544  16.999  0.00  0.00    +0.000 A 
ATOM      9  C   UNL     1       6.037   6.206  15.792  0.00  0.00    +0.000 A 
ATOM     10  C   UNL     1       5.123   5.151  15.737  0.00  0.00    +0.000 A 
ATOM     11  C   UNL     1       4.793   4.432  16.897  0.00  0.00    +0.000 A 
ATOM     12  C   UNL     1       3.775   3.463  16.907  0.00  0.00    +0.000 A 
ATOM     13  C   UNL     1       3.444   2.791  18.088  0.00  0.00    +0.000 A 
BRANCH  13  14
ATOM     14  O   UNL     1       2.356   1.960  18.074  0.00  0.00    +0.000 OA
ATOM     15  H   UNL     1       2.489   1.238  18.715  0.00  0.00    +0.000 HD
ENDBRANCH  13  14
ENDBRANCH   2   4
ENDBRANCH   1   2
BRANCH   1  16
ATOM     16  C   UNL     1       2.322   3.708  21.557  0.00  0.00    +0.000 C 
BRANCH  16  18
ATOM     17  N   UNL     1       2.592   5.903  20.486  0.00  0.00    +0.000 N 
ATOM     18  C   UNL     1       1.883   4.713  20.496  0.00  0.00    +0.000 C 
ATOM     19  O   UNL     1       0.966   4.413  19.731  0.00  0.00    +0.000 OA
ATOM     20  H   UNL     1       3.462   5.928  21.018  0.00  0.00    +0.000 HD
BRANCH  17  26
ATOM     21  C   UNL     1       1.569   8.121  20.339  0.00  0.00    +0.000 A 
ATOM     22  C   UNL     1       1.237   9.253  19.573  0.00  0.00    +0.000 A 
ATOM     23  C   UNL     1       1.615   9.345  18.234  0.00  0.00    +0.000 A 
ATOM     24  C   UNL     1       2.305   8.302  17.637  0.00  0.00    +0.000 A 
ATOM     25  C   UNL     1       2.623   7.163  18.381  0.00  0.00    +0.000 A 
ATOM     26  C   UNL     1       2.272   7.062  19.737  0.00  0.00    +0.000 A 
BRANCH  21  28
ATOM     27  C   UNL     1       0.787   9.208  22.287  0.00  0.00    +0.000 C 
ATOM     28  O   UNL     1       1.251   8.001  21.675  0.00  0.00    +0.000 OA
ENDBRANCH  21  28
ENDBRANCH  17  26
ENDBRANCH  16  18
ENDBRANCH   1  16
TORSDOF 7
ENDMDL
MODEL 2
REMARK VINA RESULT:      -7.6      1.202      2.078
REMARK  Name = 
REMARK  8 active torsions:
REMARK  status: ('A' for Active; 'I' for Inactive)
REMARK    1  A    between atoms: C_1  and  O_2
REMARK    2  A    between atoms: O_2  and  C_3
REMARK    3  A    between atoms: C_8  and  N_9
REMARK    4  A    between atoms: C_10  and  C_12
REMARK    5  A    between atoms: C_12  and  O_13
REMARK    6  A    between atoms: O_13  and  C_14
REMARK    7  A    between atoms: C_14  and  C_16
REMARK    8  A    between atoms: C_25  and  O_26
REMARK                            x       y       z     vdW  Elec       q    Type
REMARK                         _______ _______ _______ _____ _____    ______ ____
ROOT
ATOM      1  O   UNL     1       3.259   2.957  20.910  0.00  0.00    +0.000 OA
ENDROOT
BRANCH   1   2
ATOM      2  C   UNL     1       3.050   2.544  19.647  0.00  0.00    +0.000 C 
ATOM      3  O   UNL     1       2.328   1.616  19.316  0.00  0.00    +0.000 OA
BRANCH   2   4
ATOM      4  C   UNL     1       3.895   3.297  18.683  0.00  0.00    +0.000 A 
ATOM      5  C   UNL     1       5.000   3.957  19.244  0.00  0.00    +0.000 A 
ATOM      6  C   UNL     1       5.822   4.781  18.468  0.00  0.00    +0.000 A 
ATOM      7  C   UNL     1       6.825   5.555  19.066  0.00  0.00    +0.000 A 
ATOM      8  C   UNL     1       7.634   6.382  18.290  0.00  0.00    +0.000 A 
ATOM      9  C   UNL     1       7.489   6.395  16.906  0.00  0.00    +0.000 A 
ATOM     10  C   UNL     1       6.489   5.632  16.299  0.00  0.00    +0.000 A 
ATOM     11  C   UNL     1       5.610   4.859  17.075  0.00  0.00    +0.000 A 
ATOM     12  C   UNL     1       4.507   4.195  16.511  0.00  0.00    +0.000 A 
ATOM     13  C   UNL     1       3.628   3.465  17.318  0.00  0.00    +0.000 A 
BRANCH  13  14
ATOM     14  O   UNL     1       2.497   2.954  16.740  0.00  0.00    +0.000 OA
ATOM     15  H   UNL     1       2.387   2.024  17.007  0.00  0.00    +0.000 HD
ENDBRANCH  13  14
ENDBRANCH   2   4
ENDBRANCH   1   2
BRANCH   1  16
ATOM     16  C   UNL     1       2.105   3.415  21.604  0.00  0.00    +0.000 C 
BRANCH  16  18
ATOM     17  N   UNL     1       2.154   5.807  21.044  0.00  0.00    +0.000 N 
ATOM     18  C   UNL     1       1.489   4.603  20.873  0.00  0.00    +0.000 C 
ATOM     19  O   UNL     1       0.482   4.428  20.187  0.00  0.00    +0.000 OA
ATOM     20  H   UNL     1       3.091   5.765  21.448  0.00  0.00    +0.000 HD
BRANCH  17  26
ATOM     21  C   UNL     1       2.091   7.612  19.392  0.00  0.00    +0.000 A 
ATOM     22  C   UNL     1       1.646   8.891  19.013  0.00  0.00    +0.000 A 
ATOM     23  C   UNL     1       0.801   9.627  19.842  0.00  0.00    +0.000 A 
ATOM     24  C   UNL     1       0.411   9.111  21.067  0.00  0.00    +0.000 A 
ATOM     25  C   UNL     1       0.863   7.850  21.465  0.00  0.00    +0.000 A 
ATOM     26  C   UNL     1       1.695   7.082  20.634  0.00  0.00    +0.000 A 
BRANCH  21  28
ATOM     27  C   UNL     1       3.560   7.541  17.542  0.00  0.00    +0.000 C 
ATOM     28  O   UNL     1       2.895   6.830  18.590  0.00  0.00    +0.000 OA
ENDBRANCH  21  28
ENDBRANCH  17  26
ENDBRANCH  16  18
ENDBRANCH   1  16
TORSDOF 7
ENDMDL
MODEL 3
REMARK VINA RESULT:      -7.4      4.897      6.489
REMARK  Name = 
REMARK  8 active torsions:
REMARK  status: ('A' for Active; 'I' for Inactive)
REMARK    1  A    between atoms: C_1  and  O_2
REMARK    2  A    between atoms: O_2  and  C_3
REMARK    3  A    between atoms: C_8  and  N_9
REMARK    4  A    between atoms: C_10  and  C_12
REMARK    5  A    between atoms: C_12  and  O_13
REMARK    6  A    between atoms: O_13  and  C_14
REMARK    7  A    between atoms: C_14  and  C_16
REMARK    8  A    between atoms: C_25  and  O_26
REMARK                            x       y       z     vdW  Elec       q    Type
REMARK                         _______ _______ _______ _____ _____    ______ ____
ROOT
ATOM      1  O   UNL     1       6.889   6.568  18.321  0.00  0.00    +0.000 OA
ENDROOT
BRANCH   1   2
ATOM      2  C   UNL     1       6.864   5.296  17.885  0.00  0.00    +0.000 C 
ATOM      3  O   UNL     1       7.819   4.686  17.429  0.00  0.00    +0.000 OA
BRANCH   2   4
ATOM      4  C   UNL     1       5.487   4.736  17.925  0.00  0.00    +0.000 A 
ATOM      5  C   UNL     1       4.714   5.128  19.029  0.00  0.00    +0.000 A 
ATOM      6  C   UNL     1       3.437   4.599  19.243  0.00  0.00    +0.000 A 
ATOM      7  C   UNL     1       2.738   4.876  20.425  0.00  0.00    +0.000 A 
ATOM      8  C   UNL     1       1.471   4.339  20.638  0.00  0.00    +0.000 A 
ATOM      9  C   UNL     1       0.867   3.572  19.646  0.00  0.00    +0.000 A 
ATOM     10  C   UNL     1       1.556   3.283  18.466  0.00  0.00    +0.000 A 
ATOM     11  C   UNL     1       2.867   3.748  18.273  0.00  0.00    +0.000 A 
ATOM     12  C   UNL     1       3.638   3.358  17.165  0.00  0.00    +0.000 A 
ATOM     13  C   UNL     1       4.955   3.807  17.022  0.00  0.00    +0.000 A 
BRANCH  13  14
ATOM     14  O   UNL     1       5.706   3.289  16.000  0.00  0.00    +0.000 OA
ATOM     15  H   UNL     1       5.199   3.334  15.169  0.00  0.00    +0.000 HD
ENDBRANCH  13  14
ENDBRANCH   2   4
ENDBRANCH   1   2
BRANCH   1  16
ATOM     16  C   UNL     1       8.154   7.035  18.775  0.00  0.00    +0.000 C 
BRANCH  16  18
ATOM     17  N   UNL     1       9.216   9.220  19.140  0.00  0.00    +0.000 N 
ATOM     18  C   UNL     1       8.375   8.476  18.328  0.00  0.00    +0.000 C 
ATOM     19  O   UNL     1       7.823   8.876  17.303  0.00  0.00    +0.000 OA
ATOM     20  H   UNL     1       9.777   8.706  19.821  0.00  0.00    +0.000 HD
BRANCH  17  26
ATOM     21  C   UNL     1       9.232  11.433  20.183  0.00  0.00    +0.000 A 
ATOM     22  C   UNL     1       9.434  12.821  20.076  0.00  0.00    +0.000 A 
ATOM     23  C   UNL     1       9.857  13.390  18.876  0.00  0.00    +0.000 A 
ATOM     24  C   UNL     1      10.059  12.589  17.764  0.00  0.00    +0.000 A 
ATOM     25  C   UNL     1       9.843  11.212  17.851  0.00  0.00    +0.000 A 
ATOM     26  C   UNL     1       9.439  10.616  19.058  0.00  0.00    +0.000 A 
BRANCH  21  28
ATOM     27  C   UNL     1       8.385  11.715  22.372  0.00  0.00    +0.000 C 
ATOM     28  O   UNL     1       8.852  10.821  21.358  0.00  0.00    +0.000 OA
ENDBRANCH  21  28
ENDBRANCH  17  26
ENDBRANCH  16  18
ENDBRANCH   1  16
TORSDOF 7
ENDMDL
MODEL 4
REMARK VINA RESULT:      -7.2      1.296      2.272
REMARK  Name = 
REMARK  8 active torsions:
REMARK  status: ('A' for Active; 'I' for Inactive)
REMARK    1  A    between atoms: C_1  and  O_2
REMARK    2  A    between atoms: O_2  and  C_3
REMARK    3  A    between atoms: C_8  and  N_9
REMARK    4  A    between atoms: C_10  and  C_12
REMARK    5  A    between atoms: C_12  and  O_13
REMARK    6  A    between atoms: O_13  and  C_14
REMARK    7  A    between atoms: C_14  and  C_16
REMARK    8  A    between atoms: C_25  and  O_26
REMARK                            x       y       z     vdW  Elec       q    Type
REMARK                         _______ _______ _______ _____ _____    ______ ____
ROOT
ATOM      1  O   UNL     1       2.679   2.928  20.051  0.00  0.00    +0.000 OA
ENDROOT
BRANCH   1   2
ATOM      2  C   UNL     1       3.912   2.649  19.589  0.00  0.00    +0.000 C 
ATOM      3  O   UNL     1       4.547   1.636  19.835  0.00  0.00    +0.000 OA
BRANCH   2   4
ATOM      4  C   UNL     1       4.467   3.786  18.809  0.00  0.00    +0.000 A 
ATOM      5  C   UNL     1       5.737   4.227  19.215  0.00  0.00    +0.000 A 
ATOM      6  C   UNL     1       6.334   5.350  18.632  0.00  0.00    +0.000 A 
ATOM      7  C   UNL     1       7.527   5.872  19.148  0.00  0.00    +0.000 A 
ATOM      8  C   UNL     1       8.113   6.997  18.571  0.00  0.00    +0.000 A 
ATOM      9  C   UNL     1       7.545   7.569  17.437  0.00  0.00    +0.000 A 
ATOM     10  C   UNL     1       6.352   7.061  16.916  0.00  0.00    +0.000 A 
ATOM     11  C   UNL     1       5.706   5.981  17.537  0.00  0.00    +0.000 A 
ATOM     12  C   UNL     1       4.436   5.538  17.127  0.00  0.00    +0.000 A 
ATOM     13  C   UNL     1       3.801   4.484  17.793  0.00  0.00    +0.000 A 
BRANCH  13  14
ATOM     14  O   UNL     1       2.512   4.184  17.442  0.00  0.00    +0.000 OA
ATOM     15  H   UNL     1       2.354   4.458  16.521  0.00  0.00    +0.000 HD
ENDBRANCH  13  14
ENDBRANCH   2   4
ENDBRANCH   1   2
BRANCH   1  16
ATOM     16  C   UNL     1       2.620   3.887  21.099  0.00  0.00    +0.000 C 
BRANCH  16  18
ATOM     17  N   UNL     1       2.150   6.292  20.914  0.00  0.00    +0.000 N 
ATOM     18  C   UNL     1       1.656   5.010  20.730  0.00  0.00    +0.000 C 
ATOM     19  O   UNL     1       0.541   4.723  20.294  0.00  0.00    +0.000 OA
ATOM     20  H   UNL     1       3.155   6.384  21.065  0.00  0.00    +0.000 HD
BRANCH  17  26
ATOM     21  C   UNL     1       1.618   8.381  19.755  0.00  0.00    +0.000 A 
ATOM     22  C   UNL     1       0.890   9.583  19.699  0.00  0.00    +0.000 A 
ATOM     23  C   UNL     1      -0.050   9.894  20.680  0.00  0.00    +0.000 A 
ATOM     24  C   UNL     1      -0.258   9.026  21.740  0.00  0.00    +0.000 A 
ATOM     25  C   UNL     1       0.473   7.838  21.819  0.00  0.00    +0.000 A 
ATOM     26  C   UNL     1       1.408   7.495  20.827  0.00  0.00    +0.000 A 
BRANCH  21  28
ATOM     27  C   UNL     1       2.268   8.548  17.489  0.00  0.00    +0.000 C 
ATOM     28  O   UNL     1       2.529   8.012  18.789  0.00  0.00    +0.000 OA
ENDBRANCH  21  28
ENDBRANCH  17  26
ENDBRANCH  16  18
ENDBRANCH   1  16
TORSDOF 7
ENDMDL
MODEL 5
REMARK VINA RESULT:      -7.2      4.060      6.509
REMARK  Name = 
REMARK  8 active torsions:
REMARK  status: ('A' for Active; 'I' for Inactive)
REMARK    1  A    between atoms: C_1  and  O_2
REMARK    2  A    between atoms: O_2  and  C_3
REMARK    3  A    between atoms: C_8  and  N_9
REMARK    4  A    between atoms: C_10  and  C_12
REMARK    5  A    between atoms: C_12  and  O_13
REMARK    6  A    between atoms: O_13  and  C_14
REMARK    7  A    between atoms: C_14  and  C_16
REMARK    8  A    between atoms: C_25  and  O_26
REMARK                            x       y       z     vdW  Elec       q    Type
REMARK                         _______ _______ _______ _____ _____    ______ ____
ROOT
ATOM      1  O   UNL     1       1.864   9.557  19.221  0.00  0.00    +0.000 OA
ENDROOT
BRANCH   1   2
ATOM      2  C   UNL     1       2.169   8.586  18.341  0.00  0.00    +0.000 C 
ATOM      3  O   UNL     1       2.402   8.756  17.154  0.00  0.00    +0.000 OA
BRANCH   2   4
ATOM      4  C   UNL     1       2.089   7.241  18.968  0.00  0.00    +0.000 A 
ATOM      5  C   UNL     1       2.272   6.159  18.091  0.00  0.00    +0.000 A 
ATOM      6  C   UNL     1       2.125   4.840  18.530  0.00  0.00    +0.000 A 
ATOM      7  C   UNL     1       2.156   3.777  17.617  0.00  0.00    +0.000 A 
ATOM      8  C   UNL     1       1.999   2.464  18.057  0.00  0.00    +0.000 A 
ATOM      9  C   UNL     1       1.872   2.199  19.417  0.00  0.00    +0.000 A 
ATOM     10  C   UNL     1       1.834   3.250  20.336  0.00  0.00    +0.000 A 
ATOM     11  C   UNL     1       1.907   4.583  19.899  0.00  0.00    +0.000 A 
ATOM     12  C   UNL     1       1.727   5.664  20.779  0.00  0.00    +0.000 A 
ATOM     13  C   UNL     1       1.766   6.980  20.306  0.00  0.00    +0.000 A 
BRANCH  13  14
ATOM     14  O   UNL     1       1.449   7.988  21.177  0.00  0.00    +0.000 OA
ATOM     15  H   UNL     1       0.791   8.577  20.767  0.00  0.00    +0.000 HD
ENDBRANCH  13  14
ENDBRANCH   2   4
ENDBRANCH   1   2
BRANCH   1  16
ATOM     16  C   UNL     1       1.207  10.694  18.675  0.00  0.00    +0.000 C 
BRANCH  16  18
ATOM     17  N   UNL     1      -1.038  11.226  17.830  0.00  0.00    +0.000 N 
ATOM     18  C   UNL     1      -0.306  10.526  18.775  0.00  0.00    +0.000 C 
ATOM     19  O   UNL     1      -0.771   9.793  19.648  0.00  0.00    +0.000 OA
ATOM     20  H   UNL     1      -0.524  11.609  17.036  0.00  0.00    +0.000 HD
BRANCH  17  26
ATOM     21  C   UNL     1      -3.177  11.123  16.644  0.00  0.00    +0.000 A 
ATOM     22  C   UNL     1      -4.570  11.316  16.641  0.00  0.00    +0.000 A 
ATOM     23  C   UNL     1      -5.233  11.748  17.788  0.00  0.00    +0.000 A 
ATOM     24  C   UNL     1      -4.516  12.016  18.942  0.00  0.00    +0.000 A 
ATOM     25  C   UNL     1      -3.129  11.848  18.954  0.00  0.00    +0.000 A 
ATOM     26  C   UNL     1      -2.445  11.391  17.815  0.00  0.00    +0.000 A 
BRANCH  21  28
ATOM     27  C   UNL     1      -3.305  10.181  14.480  0.00  0.00    +0.000 C 
ATOM     28  O   UNL     1      -2.482  10.660  15.547  0.00  0.00    +0.000 OA
ENDBRANCH  21  28
ENDBRANCH  17  26
ENDBRANCH  16  18
ENDBRANCH   1  16
TORSDOF 7
ENDMDL
MODEL 6
REMARK VINA RESULT:      -7.2      1.752      5.636
REMARK  Name = 
REMARK  8 active torsions:
REMARK  status: ('A' for Active; 'I' for Inactive)
REMARK    1  A    between atoms: C_1  and  O_2
REMARK    2  A    between atoms: O_2  and  C_3
REMARK    3  A    between atoms: C_8  and  N_9
REMARK    4  A    between atoms: C_10  and  C_12
REMARK    5  A    between atoms: C_12  and  O_13
REMARK    6  A    between atoms: O_13  and  C_14
REMARK    7  A    between atoms: C_14  and  C_16
REMARK    8  A    between atoms: C_25  and  O_26
REMARK                            x       y       z     vdW  Elec       q    Type
REMARK                         _______ _______ _______ _____ _____    ______ ____
ROOT
ATOM      1  O   UNL     1       3.202   4.186  20.747  0.00  0.00    +0.000 OA
ENDROOT
BRANCH   1   2
ATOM      2  C   UNL     1       1.954   4.658  20.576  0.00  0.00    +0.000 C 
ATOM      3  O   UNL     1       0.926   4.058  20.851  0.00  0.00    +0.000 OA
BRANCH   2   4
ATOM      4  C   UNL     1       1.963   5.984  19.902  0.00  0.00    +0.000 A 
ATOM      5  C   UNL     1       1.567   7.066  20.703  0.00  0.00    +0.000 A 
ATOM      6  C   UNL     1       1.437   8.352  20.169  0.00  0.00    +0.000 A 
ATOM      7  C   UNL     1       0.894   9.391  20.936  0.00  0.00    +0.000 A 
ATOM      8  C   UNL     1       0.756  10.669  20.398  0.00  0.00    +0.000 A 
ATOM      9  C   UNL     1       1.217  10.932  19.111  0.00  0.00    +0.000 A 
ATOM     10  C   UNL     1       1.755   9.903  18.334  0.00  0.00    +0.000 A 
ATOM     11  C   UNL     1       1.823   8.592  18.834  0.00  0.00    +0.000 A 
ATOM     12  C   UNL     1       2.223   7.510  18.031  0.00  0.00    +0.000 A 
ATOM     13  C   UNL     1       2.242   6.210  18.548  0.00  0.00    +0.000 A 
BRANCH  13  14
ATOM     14  O   UNL     1       2.506   5.179  17.687  0.00  0.00    +0.000 OA
ATOM     15  H   UNL     1       1.680   4.704  17.485  0.00  0.00    +0.000 HD
ENDBRANCH  13  14
ENDBRANCH   2   4
ENDBRANCH   1   2
BRANCH   1  16
ATOM     16  C   UNL     1       3.403   2.833  20.359  0.00  0.00    +0.000 C 
BRANCH  16  18
ATOM     17  N   UNL     1       5.000   3.769  18.743  0.00  0.00    +0.000 N 
ATOM     18  C   UNL     1       4.069   2.772  18.988  0.00  0.00    +0.000 C 
ATOM     19  O   UNL     1       3.762   1.866  18.213  0.00  0.00    +0.000 OA
ATOM     20  H   UNL     1       5.318   4.313  19.546  0.00  0.00    +0.000 HD
BRANCH  17  26
ATOM     21  C   UNL     1       6.936   4.536  17.458  0.00  0.00    +0.000 A 
ATOM     22  C   UNL     1       7.524   4.833  16.216  0.00  0.00    +0.000 A 
ATOM     23  C   UNL     1       6.824   4.630  15.028  0.00  0.00    +0.000 A 
ATOM     24  C   UNL     1       5.523   4.154  15.064  0.00  0.00    +0.000 A 
ATOM     25  C   UNL     1       4.920   3.874  16.293  0.00  0.00    +0.000 A 
ATOM     26  C   UNL     1       5.618   4.049  17.500  0.00  0.00    +0.000 A 
BRANCH  21  28
ATOM     27  C   UNL     1       7.827   6.040  19.050  0.00  0.00    +0.000 C 
ATOM     28  O   UNL     1       7.602   4.683  18.656  0.00  0.00    +0.000 OA
ENDBRANCH  21  28
ENDBRANCH  17  26
ENDBRANCH  16  18
ENDBRANCH   1  16
TORSDOF 7
ENDMDL
MODEL 7
REMARK VINA RESULT:      -7.2      5.141      7.170
REMARK  Name = 
REMARK  8 active torsions:
REMARK  status: ('A' for Active; 'I' for Inactive)
REMARK    1  A    between atoms: C_1  and  O_2
REMARK    2  A    between atoms: O_2  and  C_3
REMARK    3  A    between atoms: C_8  and  N_9
REMARK    4  A    between atoms: C_10  and  C_12
REMARK    5  A    between atoms: C_12  and  O_13
REMARK    6  A    between atoms: O_13  and  C_14
REMARK    7  A    between atoms: C_14  and  C_16
REMARK    8  A    between atoms: C_25  and  O_26
REMARK                            x       y       z     vdW  Elec       q    Type
REMARK                         _______ _______ _______ _____ _____    ______ ____
ROOT
ATOM      1  O   UNL     1       6.837   7.187  17.791  0.00  0.00    +0.000 OA
ENDROOT
BRANCH   1   2
ATOM      2  C   UNL     1       5.811   6.631  17.120  0.00  0.00    +0.000 C 
ATOM      3  O   UNL     1       5.421   6.972  16.015  0.00  0.00    +0.000 OA
BRANCH   2   4
ATOM      4  C   UNL     1       5.125   5.598  17.940  0.00  0.00    +0.000 A 
ATOM      5  C   UNL     1       3.812   5.912  18.323  0.00  0.00    +0.000 A 
ATOM      6  C   UNL     1       3.086   5.073  19.176  0.00  0.00    +0.000 A 
ATOM      7  C   UNL     1       1.839   5.470  19.675  0.00  0.00    +0.000 A 
ATOM      8  C   UNL     1       1.124   4.637  20.533  0.00  0.00    +0.000 A 
ATOM      9  C   UNL     1       1.622   3.376  20.848  0.00  0.00    +0.000 A 
ATOM     10  C   UNL     1       2.866   2.971  20.361  0.00  0.00    +0.000 A 
ATOM     11  C   UNL     1       3.636   3.834  19.564  0.00  0.00    +0.000 A 
ATOM     12  C   UNL     1       4.950   3.516  19.178  0.00  0.00    +0.000 A 
ATOM     13  C   UNL     1       5.705   4.414  18.417  0.00  0.00    +0.000 A 
BRANCH  13  14
ATOM     14  O   UNL     1       7.021   4.116  18.185  0.00  0.00    +0.000 OA
ATOM     15  H   UNL     1       7.583   4.826  18.544  0.00  0.00    +0.000 HD
ENDBRANCH  13  14
ENDBRANCH   2   4
ENDBRANCH   1   2
BRANCH   1  16
ATOM     16  C   UNL     1       7.152   8.525  17.427  0.00  0.00    +0.000 C 
BRANCH  16  18
ATOM     17  N   UNL     1       8.602  10.381  18.127  0.00  0.00    +0.000 N 
ATOM     18  C   UNL     1       8.344   9.024  18.237  0.00  0.00    +0.000 C 
ATOM     19  O   UNL     1       8.976   8.224  18.926  0.00  0.00    +0.000 OA
ATOM     20  H   UNL     1       7.873  10.959  17.707  0.00  0.00    +0.000 HD
BRANCH  17  26
ATOM     21  C   UNL     1       9.845  11.376  19.986  0.00  0.00    +0.000 A 
ATOM     22  C   UNL     1      10.975  12.071  20.452  0.00  0.00    +0.000 A 
ATOM     23  C   UNL     1      12.002  12.429  19.581  0.00  0.00    +0.000 A 
ATOM     24  C   UNL     1      11.906  12.121  18.234  0.00  0.00    +0.000 A 
ATOM     25  C   UNL     1      10.780  11.449  17.754  0.00  0.00    +0.000 A 
ATOM     26  C   UNL     1       9.744  11.059  18.620  0.00  0.00    +0.000 A 
BRANCH  21  28
ATOM     27  C   UNL     1       8.658  11.761  21.994  0.00  0.00    +0.000 C 
ATOM     28  O   UNL     1       8.822  10.967  20.815  0.00  0.00    +0.000 OA
ENDBRANCH  21  28
ENDBRANCH  17  26
ENDBRANCH  16  18
ENDBRANCH   1  16
TORSDOF 7
ENDMDL
MODEL 8
REMARK VINA RESULT:      -7.1      1.749      4.970
REMARK  Name = 
REMARK  8 active torsions:
REMARK  status: ('A' for Active; 'I' for Inactive)
REMARK    1  A    between atoms: C_1  and  O_2
REMARK    2  A    between atoms: O_2  and  C_3
REMARK    3  A    between atoms: C_8  and  N_9
REMARK    4  A    between atoms: C_10  and  C_12
REMARK    5  A    between atoms: C_12  and  O_13
REMARK    6  A    between atoms: O_13  and  C_14
REMARK    7  A    between atoms: C_14  and  C_16
REMARK    8  A    between atoms: C_25  and  O_26
REMARK                            x       y       z     vdW  Elec       q    Type
REMARK                         _______ _______ _______ _____ _____    ______ ____
ROOT
ATOM      1  O   UNL     1       2.620   2.012  20.661  0.00  0.00    +0.000 OA
ENDROOT
BRANCH   1   2
ATOM      2  C   UNL     1       1.798   3.004  21.048  0.00  0.00    +0.000 C 
ATOM      3  O   UNL     1       1.050   2.967  22.013  0.00  0.00    +0.000 OA
BRANCH   2   4
ATOM      4  C   UNL     1       1.828   4.138  20.087  0.00  0.00    +0.000 A 
ATOM      5  C   UNL     1       1.938   5.412  20.666  0.00  0.00    +0.000 A 
ATOM      6  C   UNL     1       1.879   6.570  19.885  0.00  0.00    +0.000 A 
ATOM      7  C   UNL     1       1.833   7.835  20.486  0.00  0.00    +0.000 A 
ATOM      8  C   UNL     1       1.764   8.986  19.705  0.00  0.00    +0.000 A 
ATOM      9  C   UNL     1       1.803   8.885  18.317  0.00  0.00    +0.000 A 
ATOM     10  C   UNL     1       1.842   7.629  17.706  0.00  0.00    +0.000 A 
ATOM     11  C   UNL     1       1.827   6.458  18.480  0.00  0.00    +0.000 A 
ATOM     12  C   UNL     1       1.720   5.183  17.897  0.00  0.00    +0.000 A 
ATOM     13  C   UNL     1       1.668   4.037  18.698  0.00  0.00    +0.000 A 
BRANCH  13  14
ATOM     14  O   UNL     1       1.426   2.836  18.089  0.00  0.00    +0.000 OA
ATOM     15  H   UNL     1       0.468   2.658  18.088  0.00  0.00    +0.000 HD
ENDBRANCH  13  14
ENDBRANCH   2   4
ENDBRANCH   1   2
BRANCH   1  16
ATOM     16  C   UNL     1       4.005   2.338  20.638  0.00  0.00    +0.000 C 
BRANCH  16  18
ATOM     17  N   UNL     1       5.257   3.601  18.943  0.00  0.00    +0.000 N 
ATOM     18  C   UNL     1       4.489   2.476  19.198  0.00  0.00    +0.000 C 
ATOM     19  O   UNL     1       4.192   1.604  18.381  0.00  0.00    +0.000 OA
ATOM     20  H   UNL     1       5.611   4.114  19.751  0.00  0.00    +0.000 HD
BRANCH  17  26
ATOM     21  C   UNL     1       6.943   4.633  17.501  0.00  0.00    +0.000 A 
ATOM     22  C   UNL     1       7.327   5.106  16.233  0.00  0.00    +0.000 A 
ATOM     23  C   UNL     1       6.470   4.993  15.139  0.00  0.00    +0.000 A 
ATOM     24  C   UNL     1       5.214   4.430  15.300  0.00  0.00    +0.000 A 
ATOM     25  C   UNL     1       4.812   3.975  16.558  0.00  0.00    +0.000 A 
ATOM     26  C   UNL     1       5.670   4.059  17.668  0.00  0.00    +0.000 A 
BRANCH  21  28
ATOM     27  C   UNL     1       8.029   6.010  19.087  0.00  0.00    +0.000 C 
ATOM     28  O   UNL     1       7.770   4.689  18.602  0.00  0.00    +0.000 OA
ENDBRANCH  21  28
ENDBRANCH  17  26
ENDBRANCH  16  18
ENDBRANCH   1  16
TORSDOF 7
ENDMDL
MODEL 9
REMARK VINA RESULT:      -7.0      5.211      6.999
REMARK  Name = 
REMARK  8 active torsions:
REMARK  status: ('A' for Active; 'I' for Inactive)
REMARK    1  A    between atoms: C_1  and  O_2
REMARK    2  A    between atoms: O_2  and  C_3
REMARK    3  A    between atoms: C_8  and  N_9
REMARK    4  A    between atoms: C_10  and  C_12
REMARK    5  A    between atoms: C_12  and  O_13
REMARK    6  A    between atoms: O_13  and  C_14
REMARK    7  A    between atoms: C_14  and  C_16
REMARK    8  A    between atoms: C_25  and  O_26
REMARK                            x       y       z     vdW  Elec       q    Type
REMARK                         _______ _______ _______ _____ _____    ______ ____
ROOT
ATOM      1  O   UNL     1       6.906   7.032  18.245  0.00  0.00    +0.000 OA
ENDROOT
BRANCH   1   2
ATOM      2  C   UNL     1       6.943   5.737  18.609  0.00  0.00    +0.000 C 
ATOM      3  O   UNL     1       7.939   5.132  18.972  0.00  0.00    +0.000 OA
BRANCH   2   4
ATOM      4  C   UNL     1       5.621   5.084  18.417  0.00  0.00    +0.000 A 
ATOM      5  C   UNL     1       4.668   5.356  19.411  0.00  0.00    +0.000 A 
ATOM      6  C   UNL     1       3.418   4.729  19.406  0.00  0.00    +0.000 A 
ATOM      7  C   UNL     1       2.536   4.889  20.483  0.00  0.00    +0.000 A 
ATOM      8  C   UNL     1       1.296   4.254  20.479  0.00  0.00    +0.000 A 
ATOM      9  C   UNL     1       0.902   3.508  19.373  0.00  0.00    +0.000 A 
ATOM     10  C   UNL     1       1.775   3.337  18.295  0.00  0.00    +0.000 A 
ATOM     11  C   UNL     1       3.061   3.900  18.322  0.00  0.00    +0.000 A 
ATOM     12  C   UNL     1       4.012   3.629  17.324  0.00  0.00    +0.000 A 
ATOM     13  C   UNL     1       5.298   4.175  17.401  0.00  0.00    +0.000 A 
BRANCH  13  14
ATOM     14  O   UNL     1       6.226   3.770  16.479  0.00  0.00    +0.000 OA
ATOM     15  H   UNL     1       6.254   4.409  15.743  0.00  0.00    +0.000 HD
ENDBRANCH  13  14
ENDBRANCH   2   4
ENDBRANCH   1   2
BRANCH   1  16
ATOM     16  C   UNL     1       8.141   7.576  17.793  0.00  0.00    +0.000 C 
BRANCH  16  18
ATOM     17  N   UNL     1       9.250   9.352  19.077  0.00  0.00    +0.000 N 
ATOM     18  C   UNL     1       8.240   9.048  18.178  0.00  0.00    +0.000 C 
ATOM     19  O   UNL     1       7.456   9.853  17.675  0.00  0.00    +0.000 OA
ATOM     20  H   UNL     1       9.960   8.637  19.237  0.00  0.00    +0.000 HD
BRANCH  17  26
ATOM     21  C   UNL     1      10.127  11.637  19.089  0.00  0.00    +0.000 A 
ATOM     22  C   UNL     1      10.328  12.853  19.766  0.00  0.00    +0.000 A 
ATOM     23  C   UNL     1       9.837  13.041  21.057  0.00  0.00    +0.000 A 
ATOM     24  C   UNL     1       9.162  12.014  21.697  0.00  0.00    +0.000 A 
ATOM     25  C   UNL     1       8.973  10.794  21.044  0.00  0.00    +0.000 A 
ATOM     26  C   UNL     1       9.440  10.593  19.734  0.00  0.00    +0.000 A 
BRANCH  21  28
ATOM     27  C   UNL     1      11.281  12.508  17.220  0.00  0.00    +0.000 C 
ATOM     28  O   UNL     1      10.560  11.418  17.799  0.00  0.00    +0.000 OA
ENDBRANCH  21  28
ENDBRANCH  17  26
ENDBRANCH  16  18
ENDBRANCH   1  16
TORSDOF 7
ENDMDL
