MODEL 1
REMARK VINA RESULT:      -9.2      0.000      0.000
REMARK  Name = 
REMARK  3 active torsions:
REMARK  status: ('A' for Active; 'I' for Inactive)
REMARK    1  A    between atoms: N_9  and  C_10
REMARK    2  A    between atoms: C_10  and  C_11
REMARK    3  A    between atoms: C_17  and  C_18
REMARK                            x       y       z     vdW  Elec       q    Type
REMARK                         _______ _______ _______ _____ _____    ______ ____
ROOT
ATOM      1  C   UNL     1       3.694   3.136  18.387  0.00  0.00    +0.000 A 
ATOM      2  N   UNL     1       3.896   2.106  19.191  0.00  0.00    +0.000 NA
ATOM      3  N   UNL     1       3.369   2.415  20.422  0.00  0.00    +0.000 NA
ATOM      4  C   UNL     1       2.873   3.628  20.348  0.00  0.00    +0.000 A 
ATOM      5  C   UNL     1       2.171   4.422  21.272  0.00  0.00    +0.000 A 
ATOM      6  C   UNL     1       1.831   5.669  20.929  0.00  0.00    +0.000 A 
ATOM      7  C   UNL     1       2.255   6.172  19.582  0.00  0.00    +0.000 A 
ATOM      8  N   UNL     1       2.832   5.436  18.670  0.00  0.00    +0.000 NA
ATOM      9  N   UNL     1       3.103   4.157  19.094  0.00  0.00    +0.000 N 
ENDROOT
BRANCH   7  10
ATOM     10  C   UNL     1       1.942   7.610  19.307  0.00  0.00    +0.000 A 
ATOM     11  C   UNL     1       1.337   8.420  20.280  0.00  0.00    +0.000 A 
ATOM     12  C   UNL     1       0.980   9.736  19.982  0.00  0.00    +0.000 A 
ATOM     13  C   UNL     1       1.248  10.261  18.722  0.00  0.00    +0.000 A 
ATOM     14  C   UNL     1       1.895   9.480  17.765  0.00  0.00    +0.000 A 
ATOM     15  C   UNL     1       2.247   8.159  18.057  0.00  0.00    +0.000 A 
ENDBRANCH   7  10
BRANCH   1  16
ATOM     16  C   UNL     1       4.052   3.216  16.954  0.00  0.00    +0.000 C 
BRANCH  16  25
ATOM     17  O   UNL     1       8.228   5.607  12.628  0.00  0.00    +0.000 OA
ATOM     18  C   UNL     1       7.527   5.229  13.562  0.00  0.00    +0.000 A 
ATOM     19  C   UNL     1       6.276   4.438  13.294  0.00  0.00    +0.000 A 
ATOM     20  C   UNL     1       5.480   4.000  14.286  0.00  0.00    +0.000 A 
ATOM     21  C   UNL     1       5.900   4.323  15.592  0.00  0.00    +0.000 A 
ATOM     22  C   UNL     1       7.025   5.052  15.894  0.00  0.00    +0.000 A 
ATOM     23  C   UNL     1       7.113   5.184  17.286  0.00  0.00    +0.000 A 
ATOM     24  C   UNL     1       6.027   4.508  17.809  0.00  0.00    +0.000 A 
ATOM     25  N   UNL     1       5.288   3.972  16.766  0.00  0.00    +0.000 N 
ATOM     26  N   UNL     1       7.830   5.507  14.877  0.00  0.00    +0.000 N 
ATOM     27  H   UNL     1       8.664   6.038  15.078  0.00  0.00    +0.000 HD
ENDBRANCH  16  25
ENDBRANCH   1  16
TORSDOF 3
ENDMDL
MODEL 2
REMARK VINA RESULT:      -8.5      4.472      8.349
REMARK  Name = 
REMARK  3 active torsions:
REMARK  status: ('A' for Active; 'I' for Inactive)
REMARK    1  A    between atoms: N_9  and  C_10
REMARK    2  A    between atoms: C_10  and  C_11
REMARK    3  A    between atoms: C_17  and  C_18
REMARK                            x       y       z     vdW  Elec       q    Type
REMARK                         _______ _______ _______ _____ _____    ______ ____
ROOT
ATOM      1  C   UNL     1       1.159   9.187  19.680  0.00  0.00    +0.000 A 
ATOM      2  N   UNL     1       0.411   9.105  20.767  0.00  0.00    +0.000 NA
ATOM      3  N   UNL     1       0.652   7.890  21.362  0.00  0.00    +0.000 NA
ATOM      4  C   UNL     1       1.525   7.251  20.618  0.00  0.00    +0.000 A 
ATOM      5  C   UNL     1       2.168   6.010  20.770  0.00  0.00    +0.000 A 
ATOM      6  C   UNL     1       2.986   5.581  19.802  0.00  0.00    +0.000 A 
ATOM      7  C   UNL     1       3.142   6.435  18.579  0.00  0.00    +0.000 A 
ATOM      8  N   UNL     1       2.627   7.627  18.444  0.00  0.00    +0.000 NA
ATOM      9  N   UNL     1       1.838   8.003  19.505  0.00  0.00    +0.000 N 
ENDROOT
BRANCH   7  10
ATOM     10  C   UNL     1       3.980   5.844  17.489  0.00  0.00    +0.000 A 
ATOM     11  C   UNL     1       4.697   6.660  16.599  0.00  0.00    +0.000 A 
ATOM     12  C   UNL     1       5.409   6.095  15.540  0.00  0.00    +0.000 A 
ATOM     13  C   UNL     1       5.435   4.714  15.377  0.00  0.00    +0.000 A 
ATOM     14  C   UNL     1       4.768   3.892  16.285  0.00  0.00    +0.000 A 
ATOM     15  C   UNL     1       4.046   4.454  17.343  0.00  0.00    +0.000 A 
ENDBRANCH   7  10
BRANCH   1  16
ATOM     16  C   UNL     1       1.257  10.344  18.764  0.00  0.00    +0.000 C 
BRANCH  16  25
ATOM     17  O   UNL     1      -4.864  11.148  16.823  0.00  0.00    +0.000 OA
ATOM     18  C   UNL     1      -3.727  11.126  17.286  0.00  0.00    +0.000 A 
ATOM     19  C   UNL     1      -2.779  10.022  16.907  0.00  0.00    +0.000 A 
ATOM     20  C   UNL     1      -1.523   9.961  17.387  0.00  0.00    +0.000 A 
ATOM     21  C   UNL     1      -1.154  11.003  18.261  0.00  0.00    +0.000 A 
ATOM     22  C   UNL     1      -1.982  12.027  18.651  0.00  0.00    +0.000 A 
ATOM     23  C   UNL     1      -1.278  12.862  19.530  0.00  0.00    +0.000 A 
ATOM     24  C   UNL     1      -0.012  12.323  19.645  0.00  0.00    +0.000 A 
ATOM     25  N   UNL     1       0.066  11.186  18.858  0.00  0.00    +0.000 N 
ATOM     26  N   UNL     1      -3.267  12.081  18.166  0.00  0.00    +0.000 N 
ATOM     27  H   UNL     1      -3.889  12.829  18.435  0.00  0.00    +0.000 HD
ENDBRANCH  16  25
ENDBRANCH   1  16
TORSDOF 3
ENDMDL
MODEL 3
REMARK VINA RESULT:      -8.5      2.908      7.372
REMARK  Name = 
REMARK  3 active torsions:
REMARK  status: ('A' for Active; 'I' for Inactive)
REMARK    1  A    between atoms: N_9  and  C_10
REMARK    2  A    between atoms: C_10  and  C_11
REMARK    3  A    between atoms: C_17  and  C_18
REMARK                            x       y       z     vdW  Elec       q    Type
REMARK                         _______ _______ _______ _____ _____    ______ ____
ROOT
ATOM      1  C   UNL     1       4.269   5.566  18.522  0.00  0.00    +0.000 A 
ATOM      2  N   UNL     1       4.682   5.455  19.772  0.00  0.00    +0.000 NA
ATOM      3  N   UNL     1       6.005   5.083  19.755  0.00  0.00    +0.000 NA
ATOM      4  C   UNL     1       6.366   4.959  18.499  0.00  0.00    +0.000 A 
ATOM      5  C   UNL     1       7.599   4.660  17.894  0.00  0.00    +0.000 A 
ATOM      6  C   UNL     1       7.656   4.543  16.563  0.00  0.00    +0.000 A 
ATOM      7  C   UNL     1       6.384   4.697  15.784  0.00  0.00    +0.000 A 
ATOM      8  N   UNL     1       5.242   5.056  16.305  0.00  0.00    +0.000 NA
ATOM      9  N   UNL     1       5.286   5.197  17.672  0.00  0.00    +0.000 N 
ENDROOT
BRANCH   7  10
ATOM     10  C   UNL     1       6.498   4.441  14.314  0.00  0.00    +0.000 A 
ATOM     11  C   UNL     1       5.646   3.533  13.666  0.00  0.00    +0.000 A 
ATOM     12  C   UNL     1       5.817   3.247  12.310  0.00  0.00    +0.000 A 
ATOM     13  C   UNL     1       6.821   3.884  11.586  0.00  0.00    +0.000 A 
ATOM     14  C   UNL     1       7.640   4.825  12.210  0.00  0.00    +0.000 A 
ATOM     15  C   UNL     1       7.476   5.108  13.569  0.00  0.00    +0.000 A 
ENDBRANCH   7  10
BRANCH   1  16
ATOM     16  C   UNL     1       2.927   5.997  18.073  0.00  0.00    +0.000 C 
BRANCH  16  25
ATOM     17  O   UNL     1       0.774  11.965  19.343  0.00  0.00    +0.000 OA
ATOM     18  C   UNL     1       1.123  10.792  19.249  0.00  0.00    +0.000 A 
ATOM     19  C   UNL     1       1.764  10.295  17.981  0.00  0.00    +0.000 A 
ATOM     20  C   UNL     1       2.165   9.019  17.836  0.00  0.00    +0.000 A 
ATOM     21  C   UNL     1       1.954   8.183  18.950  0.00  0.00    +0.000 A 
ATOM     22  C   UNL     1       1.362   8.580  20.126  0.00  0.00    +0.000 A 
ATOM     23  C   UNL     1       1.311   7.481  20.994  0.00  0.00    +0.000 A 
ATOM     24  C   UNL     1       1.894   6.426  20.320  0.00  0.00    +0.000 A 
ATOM     25  N   UNL     1       2.297   6.861  19.067  0.00  0.00    +0.000 N 
ATOM     26  N   UNL     1       0.944   9.881  20.267  0.00  0.00    +0.000 N 
ATOM     27  H   UNL     1       0.515  10.194  21.124  0.00  0.00    +0.000 HD
ENDBRANCH  16  25
ENDBRANCH   1  16
TORSDOF 3
ENDMDL
MODEL 4
REMARK VINA RESULT:      -8.4      3.150      7.488
REMARK  Name = 
REMARK  3 active torsions:
REMARK  status: ('A' for Active; 'I' for Inactive)
REMARK    1  A    between atoms: N_9  and  C_10
REMARK    2  A    between atoms: C_10  and  C_11
REMARK    3  A    between atoms: C_17  and  C_18
REMARK                            x       y       z     vdW  Elec       q    Type
REMARK                         _______ _______ _______ _____ _____    ______ ____
ROOT
ATOM      1  C   UNL     1       4.099   5.406  18.632  0.00  0.00    +0.000 A 
ATOM      2  N   UNL     1       4.550   5.362  19.874  0.00  0.00    +0.000 NA
ATOM      3  N   UNL     1       5.905   5.140  19.830  0.00  0.00    +0.000 NA
ATOM      4  C   UNL     1       6.249   5.037  18.567  0.00  0.00    +0.000 A 
ATOM      5  C   UNL     1       7.494   4.868  17.936  0.00  0.00    +0.000 A 
ATOM      6  C   UNL     1       7.534   4.737  16.606  0.00  0.00    +0.000 A 
ATOM      7  C   UNL     1       6.235   4.734  15.857  0.00  0.00    +0.000 A 
ATOM      8  N   UNL     1       5.073   4.972  16.400  0.00  0.00    +0.000 NA
ATOM      9  N   UNL     1       5.132   5.139  17.763  0.00  0.00    +0.000 N 
ENDROOT
BRANCH   7  10
ATOM     10  C   UNL     1       6.344   4.469  14.387  0.00  0.00    +0.000 A 
ATOM     11  C   UNL     1       5.393   3.684  13.718  0.00  0.00    +0.000 A 
ATOM     12  C   UNL     1       5.552   3.381  12.364  0.00  0.00    +0.000 A 
ATOM     13  C   UNL     1       6.646   3.881  11.664  0.00  0.00    +0.000 A 
ATOM     14  C   UNL     1       7.570   4.703  12.308  0.00  0.00    +0.000 A 
ATOM     15  C   UNL     1       7.418   5.002  13.665  0.00  0.00    +0.000 A 
ENDBRANCH   7  10
BRANCH   1  16
ATOM     16  C   UNL     1       2.708   5.677  18.210  0.00  0.00    +0.000 C 
BRANCH  16  25
ATOM     17  O   UNL     1       0.421  10.261  22.163  0.00  0.00    +0.000 OA
ATOM     18  C   UNL     1       0.883   9.512  21.306  0.00  0.00    +0.000 A 
ATOM     19  C   UNL     1       1.054   8.046  21.599  0.00  0.00    +0.000 A 
ATOM     20  C   UNL     1       1.551   7.190  20.688  0.00  0.00    +0.000 A 
ATOM     21  C   UNL     1       1.893   7.753  19.443  0.00  0.00    +0.000 A 
ATOM     22  C   UNL     1       1.771   9.085  19.127  0.00  0.00    +0.000 A 
ATOM     23  C   UNL     1       2.218   9.276  17.813  0.00  0.00    +0.000 A 
ATOM     24  C   UNL     1       2.596   8.032  17.347  0.00  0.00    +0.000 A 
ATOM     25  N   UNL     1       2.387   7.095  18.348  0.00  0.00    +0.000 N 
ATOM     26  N   UNL     1       1.272   9.959  20.063  0.00  0.00    +0.000 N 
ATOM     27  H   UNL     1       1.167  10.939  19.848  0.00  0.00    +0.000 HD
ENDBRANCH  16  25
ENDBRANCH   1  16
TORSDOF 3
ENDMDL
MODEL 5
REMARK VINA RESULT:      -8.4      1.932      2.541
REMARK  Name = 
REMARK  3 active torsions:
REMARK  status: ('A' for Active; 'I' for Inactive)
REMARK    1  A    between atoms: N_9  and  C_10
REMARK    2  A    between atoms: C_10  and  C_11
REMARK    3  A    between atoms: C_17  and  C_18
REMARK                            x       y       z     vdW  Elec       q    Type
REMARK                         _______ _______ _______ _____ _____    ______ ____
ROOT
ATOM      1  C   UNL     1       4.187   3.203  18.598  0.00  0.00    +0.000 A 
ATOM      2  N   UNL     1       4.340   2.181  19.422  0.00  0.00    +0.000 NA
ATOM      3  N   UNL     1       3.627   2.444  20.567  0.00  0.00    +0.000 NA
ATOM      4  C   UNL     1       3.070   3.624  20.425  0.00  0.00    +0.000 A 
ATOM      5  C   UNL     1       2.197   4.363  21.243  0.00  0.00    +0.000 A 
ATOM      6  C   UNL     1       1.828   5.589  20.856  0.00  0.00    +0.000 A 
ATOM      7  C   UNL     1       2.404   6.131  19.582  0.00  0.00    +0.000 A 
ATOM      8  N   UNL     1       3.148   5.442  18.760  0.00  0.00    +0.000 NA
ATOM      9  N   UNL     1       3.439   4.178  19.216  0.00  0.00    +0.000 N 
ENDROOT
BRANCH   7  10
ATOM     10  C   UNL     1       2.041   7.549  19.267  0.00  0.00    +0.000 A 
ATOM     11  C   UNL     1       1.394   8.360  20.213  0.00  0.00    +0.000 A 
ATOM     12  C   UNL     1       0.992   9.653  19.877  0.00  0.00    +0.000 A 
ATOM     13  C   UNL     1       1.256  10.156  18.606  0.00  0.00    +0.000 A 
ATOM     14  C   UNL     1       1.943   9.376  17.677  0.00  0.00    +0.000 A 
ATOM     15  C   UNL     1       2.340   8.077  18.007  0.00  0.00    +0.000 A 
ENDBRANCH   7  10
BRANCH   1  16
ATOM     16  C   UNL     1       4.736   3.320  17.230  0.00  0.00    +0.000 C 
BRANCH  16  25
ATOM     17  O   UNL     1       8.762   8.146  18.768  0.00  0.00    +0.000 OA
ATOM     18  C   UNL     1       7.943   7.329  18.358  0.00  0.00    +0.000 A 
ATOM     19  C   UNL     1       7.878   5.955  18.967  0.00  0.00    +0.000 A 
ATOM     20  C   UNL     1       6.994   5.030  18.552  0.00  0.00    +0.000 A 
ATOM     21  C   UNL     1       6.129   5.435  17.516  0.00  0.00    +0.000 A 
ATOM     22  C   UNL     1       6.153   6.671  16.915  0.00  0.00    +0.000 A 
ATOM     23  C   UNL     1       5.161   6.706  15.925  0.00  0.00    +0.000 A 
ATOM     24  C   UNL     1       4.538   5.474  15.956  0.00  0.00    +0.000 A 
ATOM     25  N   UNL     1       5.128   4.697  16.940  0.00  0.00    +0.000 N 
ATOM     26  N   UNL     1       7.064   7.610  17.335  0.00  0.00    +0.000 N 
ATOM     27  H   UNL     1       7.093   8.526  16.912  0.00  0.00    +0.000 HD
ENDBRANCH  16  25
ENDBRANCH   1  16
TORSDOF 3
ENDMDL
MODEL 6
REMARK VINA RESULT:      -8.4      3.314      7.351
REMARK  Name = 
REMARK  3 active torsions:
REMARK  status: ('A' for Active; 'I' for Inactive)
REMARK    1  A    between atoms: N_9  and  C_10
REMARK    2  A    between atoms: C_10  and  C_11
REMARK    3  A    between atoms: C_17  and  C_18
REMARK                            x       y       z     vdW  Elec       q    Type
REMARK                         _______ _______ _______ _____ _____    ______ ____
ROOT
ATOM      1  C   UNL     1       2.018   5.409  20.003  0.00  0.00    +0.000 A 
ATOM      2  N   UNL     1       0.920   4.808  20.429  0.00  0.00    +0.000 NA
ATOM      3  N   UNL     1       0.811   3.604  19.777  0.00  0.00    +0.000 NA
ATOM      4  C   UNL     1       1.832   3.503  18.957  0.00  0.00    +0.000 A 
ATOM      5  C   UNL     1       2.256   2.476  18.096  0.00  0.00    +0.000 A 
ATOM      6  C   UNL     1       3.328   2.680  17.322  0.00  0.00    +0.000 A 
ATOM      7  C   UNL     1       4.000   4.019  17.385  0.00  0.00    +0.000 A 
ATOM      8  N   UNL     1       3.684   4.961  18.231  0.00  0.00    +0.000 NA
ATOM      9  N   UNL     1       2.600   4.648  19.017  0.00  0.00    +0.000 N 
ENDROOT
BRANCH   7  10
ATOM     10  C   UNL     1       5.120   4.219  16.412  0.00  0.00    +0.000 A 
ATOM     11  C   UNL     1       6.369   4.702  16.832  0.00  0.00    +0.000 A 
ATOM     12  C   UNL     1       7.377   4.958  15.901  0.00  0.00    +0.000 A 
ATOM     13  C   UNL     1       7.157   4.707  14.550  0.00  0.00    +0.000 A 
ATOM     14  C   UNL     1       5.936   4.179  14.130  0.00  0.00    +0.000 A 
ATOM     15  C   UNL     1       4.921   3.930  15.058  0.00  0.00    +0.000 A 
ENDBRANCH   7  10
BRANCH   1  16
ATOM     16  C   UNL     1       2.552   6.704  20.478  0.00  0.00    +0.000 C 
BRANCH  16  25
ATOM     17  O   UNL     1      -1.355  11.843  20.923  0.00  0.00    +0.000 OA
ATOM     18  C   UNL     1      -0.588  10.914  20.684  0.00  0.00    +0.000 A 
ATOM     19  C   UNL     1      -0.202   9.954  21.776  0.00  0.00    +0.000 A 
ATOM     20  C   UNL     1       0.631   8.921  21.557  0.00  0.00    +0.000 A 
ATOM     21  C   UNL     1       1.111   8.793  20.239  0.00  0.00    +0.000 A 
ATOM     22  C   UNL     1       0.803   9.647  19.208  0.00  0.00    +0.000 A 
ATOM     23  C   UNL     1       1.470   9.215  18.053  0.00  0.00    +0.000 A 
ATOM     24  C   UNL     1       2.171   8.080  18.413  0.00  0.00    +0.000 A 
ATOM     25  N   UNL     1       1.942   7.817  19.754  0.00  0.00    +0.000 N 
ATOM     26  N   UNL     1      -0.041  10.707  19.437  0.00  0.00    +0.000 N 
ATOM     27  H   UNL     1      -0.286  11.341  18.691  0.00  0.00    +0.000 HD
ENDBRANCH  16  25
ENDBRANCH   1  16
TORSDOF 3
ENDMDL
MODEL 7
REMARK VINA RESULT:      -8.4      4.608      8.806
REMARK  Name = 
REMARK  3 active torsions:
REMARK  status: ('A' for Active; 'I' for Inactive)
REMARK    1  A    between atoms: N_9  and  C_10
REMARK    2  A    between atoms: C_10  and  C_11
REMARK    3  A    between atoms: C_17  and  C_18
REMARK                            x       y       z     vdW  Elec       q    Type
REMARK                         _______ _______ _______ _____ _____    ______ ____
ROOT
ATOM      1  C   UNL     1       1.155   9.523  19.276  0.00  0.00    +0.000 A 
ATOM      2  N   UNL     1       1.544  10.458  18.426  0.00  0.00    +0.000 NA
ATOM      3  N   UNL     1       2.455   9.898  17.563  0.00  0.00    +0.000 NA
ATOM      4  C   UNL     1       2.614   8.643  17.913  0.00  0.00    +0.000 A 
ATOM      5  C   UNL     1       3.370   7.595  17.359  0.00  0.00    +0.000 A 
ATOM      6  C   UNL     1       3.383   6.409  17.978  0.00  0.00    +0.000 A 
ATOM      7  C   UNL     1       2.621   6.272  19.262  0.00  0.00    +0.000 A 
ATOM      8  N   UNL     1       1.844   7.197  19.758  0.00  0.00    +0.000 NA
ATOM      9  N   UNL     1       1.857   8.366  19.033  0.00  0.00    +0.000 N 
ENDROOT
BRANCH   7  10
ATOM     10  C   UNL     1       2.772   4.956  19.959  0.00  0.00    +0.000 A 
ATOM     11  C   UNL     1       3.724   4.015  19.538  0.00  0.00    +0.000 A 
ATOM     12  C   UNL     1       3.798   2.762  20.148  0.00  0.00    +0.000 A 
ATOM     13  C   UNL     1       2.942   2.449  21.200  0.00  0.00    +0.000 A 
ATOM     14  C   UNL     1       2.027   3.396  21.659  0.00  0.00    +0.000 A 
ATOM     15  C   UNL     1       1.944   4.650  21.045  0.00  0.00    +0.000 A 
ENDBRANCH   7  10
BRANCH   1  16
ATOM     16  C   UNL     1       0.142   9.672  20.344  0.00  0.00    +0.000 C 
BRANCH  16  25
ATOM     17  O   UNL     1      -4.693  11.555  16.479  0.00  0.00    +0.000 OA
ATOM     18  C   UNL     1      -3.799  11.339  17.292  0.00  0.00    +0.000 A 
ATOM     19  C   UNL     1      -3.052  10.033  17.262  0.00  0.00    +0.000 A 
ATOM     20  C   UNL     1      -2.063   9.756  18.131  0.00  0.00    +0.000 A 
ATOM     21  C   UNL     1      -1.769  10.769  19.064  0.00  0.00    +0.000 A 
ATOM     22  C   UNL     1      -2.428  11.973  19.146  0.00  0.00    +0.000 A 
ATOM     23  C   UNL     1      -1.873  12.716  20.197  0.00  0.00    +0.000 A 
ATOM     24  C   UNL     1      -0.864  11.939  20.731  0.00  0.00    +0.000 A 
ATOM     25  N   UNL     1      -0.795  10.746  20.028  0.00  0.00    +0.000 N 
ATOM     26  N   UNL     1      -3.444  12.249  18.262  0.00  0.00    +0.000 N 
ATOM     27  H   UNL     1      -3.934  13.130  18.300  0.00  0.00    +0.000 HD
ENDBRANCH  16  25
ENDBRANCH   1  16
TORSDOF 3
ENDMDL
MODEL 8
REMARK VINA RESULT:      -8.2      4.360      8.298
REMARK  Name = 
REMARK  3 active torsions:
REMARK  status: ('A' for Active; 'I' for Inactive)
REMARK    1  A    between atoms: N_9  and  C_10
REMARK    2  A    between atoms: C_10  and  C_11
REMARK    3  A    between atoms: C_17  and  C_18
REMARK                            x       y       z     vdW  Elec       q    Type
REMARK                         _______ _______ _______ _____ _____    ______ ____
ROOT
ATOM      1  C   UNL     1       1.488   8.860  19.244  0.00  0.00    +0.000 A 
ATOM      2  N   UNL     1       0.817   8.815  20.382  0.00  0.00    +0.000 NA
ATOM      3  N   UNL     1       1.167   7.660  21.039  0.00  0.00    +0.000 NA
ATOM      4  C   UNL     1       2.027   7.018  20.283  0.00  0.00    +0.000 A 
ATOM      5  C   UNL     1       2.751   5.828  20.474  0.00  0.00    +0.000 A 
ATOM      6  C   UNL     1       3.530   5.378  19.484  0.00  0.00    +0.000 A 
ATOM      7  C   UNL     1       3.557   6.150  18.199  0.00  0.00    +0.000 A 
ATOM      8  N   UNL     1       2.965   7.299  18.019  0.00  0.00    +0.000 NA
ATOM      9  N   UNL     1       2.224   7.706  19.103  0.00  0.00    +0.000 N 
ENDROOT
BRANCH   7  10
ATOM     10  C   UNL     1       4.358   5.530  17.096  0.00  0.00    +0.000 A 
ATOM     11  C   UNL     1       4.578   4.145  17.049  0.00  0.00    +0.000 A 
ATOM     12  C   UNL     1       5.393   3.592  16.059  0.00  0.00    +0.000 A 
ATOM     13  C   UNL     1       5.970   4.413  15.095  0.00  0.00    +0.000 A 
ATOM     14  C   UNL     1       5.716   5.785  15.104  0.00  0.00    +0.000 A 
ATOM     15  C   UNL     1       4.907   6.343  16.099  0.00  0.00    +0.000 A 
ENDBRANCH   7  10
BRANCH   1  16
ATOM     16  C   UNL     1       1.459   9.953  18.248  0.00  0.00    +0.000 C 
BRANCH  16  25
ATOM     17  O   UNL     1      -4.754  11.645  17.604  0.00  0.00    +0.000 OA
ATOM     18  C   UNL     1      -3.562  11.453  17.825  0.00  0.00    +0.000 A 
ATOM     19  C   UNL     1      -2.872  10.246  17.251  0.00  0.00    +0.000 A 
ATOM     20  C   UNL     1      -1.567   9.999  17.464  0.00  0.00    +0.000 A 
ATOM     21  C   UNL     1      -0.888  10.948  18.253  0.00  0.00    +0.000 A 
ATOM     22  C   UNL     1      -1.470  12.060  18.814  0.00  0.00    +0.000 A 
ATOM     23  C   UNL     1      -0.494  12.760  19.537  0.00  0.00    +0.000 A 
ATOM     24  C   UNL     1       0.682  12.051  19.387  0.00  0.00    +0.000 A 
ATOM     25  N   UNL     1       0.440  10.943  18.590  0.00  0.00    +0.000 N 
ATOM     26  N   UNL     1      -2.806  12.304  18.602  0.00  0.00    +0.000 N 
ATOM     27  H   UNL     1      -3.250  13.118  18.998  0.00  0.00    +0.000 HD
ENDBRANCH  16  25
ENDBRANCH   1  16
TORSDOF 3
ENDMDL
MODEL 9
REMARK VINA RESULT:      -8.2      2.774      7.229
REMARK  Name = 
REMARK  3 active torsions:
REMARK  status: ('A' for Active; 'I' for Inactive)
REMARK    1  A    between atoms: N_9  and  C_10
REMARK    2  A    between atoms: C_10  and  C_11
REMARK    3  A    between atoms: C_17  and  C_18
REMARK                            x       y       z     vdW  Elec       q    Type
REMARK                         _______ _______ _______ _____ _____    ______ ____
ROOT
ATOM      1  C   UNL     1       4.277   5.274  18.651  0.00  0.00    +0.000 A 
ATOM      2  N   UNL     1       4.839   5.305  19.847  0.00  0.00    +0.000 NA
ATOM      3  N   UNL     1       6.192   5.130  19.688  0.00  0.00    +0.000 NA
ATOM      4  C   UNL     1       6.425   4.980  18.405  0.00  0.00    +0.000 A 
ATOM      5  C   UNL     1       7.614   4.826  17.670  0.00  0.00    +0.000 A 
ATOM      6  C   UNL     1       7.539   4.635  16.349  0.00  0.00    +0.000 A 
ATOM      7  C   UNL     1       6.179   4.551  15.723  0.00  0.00    +0.000 A 
ATOM      8  N   UNL     1       5.062   4.772  16.360  0.00  0.00    +0.000 NA
ATOM      9  N   UNL     1       5.237   5.005  17.703  0.00  0.00    +0.000 N 
ENDROOT
BRANCH   7  10
ATOM     10  C   UNL     1       6.166   4.222  14.262  0.00  0.00    +0.000 A 
ATOM     11  C   UNL     1       7.275   4.493  13.446  0.00  0.00    +0.000 A 
ATOM     12  C   UNL     1       7.217   4.253  12.072  0.00  0.00    +0.000 A 
ATOM     13  C   UNL     1       6.064   3.716  11.508  0.00  0.00    +0.000 A 
ATOM     14  C   UNL     1       4.975   3.396  12.318  0.00  0.00    +0.000 A 
ATOM     15  C   UNL     1       5.026   3.643  13.694  0.00  0.00    +0.000 A 
ENDBRANCH   7  10
BRANCH   1  16
ATOM     16  C   UNL     1       2.843   5.475  18.347  0.00  0.00    +0.000 C 
BRANCH  16  25
ATOM     17  O   UNL     1       1.066  11.664  18.987  0.00  0.00    +0.000 OA
ATOM     18  C   UNL     1       1.339  10.468  19.014  0.00  0.00    +0.000 A 
ATOM     19  C   UNL     1       1.965   9.809  17.816  0.00  0.00    +0.000 A 
ATOM     20  C   UNL     1       2.285   8.502  17.803  0.00  0.00    +0.000 A 
ATOM     21  C   UNL     1       2.001   7.794  18.988  0.00  0.00    +0.000 A 
ATOM     22  C   UNL     1       1.419   8.341  20.106  0.00  0.00    +0.000 A 
ATOM     23  C   UNL     1       1.282   7.338  21.076  0.00  0.00    +0.000 A 
ATOM     24  C   UNL     1       1.805   6.187  20.519  0.00  0.00    +0.000 A 
ATOM     25  N   UNL     1       2.255   6.471  19.240  0.00  0.00    +0.000 N 
ATOM     26  N   UNL     1       1.085   9.674  20.111  0.00  0.00    +0.000 N 
ATOM     27  H   UNL     1       0.663  10.097  20.925  0.00  0.00    +0.000 HD
ENDBRANCH  16  25
ENDBRANCH   1  16
TORSDOF 3
ENDMDL
