MODEL 1
REMARK VINA RESULT:      -7.8      0.000      0.000
REMARK  Name = 
REMARK  4 active torsions:
REMARK  status: ('A' for Active; 'I' for Inactive)
REMARK    1  A    between atoms: C_2  and  O_3
REMARK    2  A    between atoms: C_2  and  C_10
REMARK    3  A    between atoms: O_3  and  C_4
REMARK    4  A    between atoms: C_13  and  C_14
REMARK                            x       y       z     vdW  Elec       q    Type
REMARK                         _______ _______ _______ _____ _____    ______ ____
ROOT
ATOM      1  C   UNL     1       5.328   5.278  17.691  0.00  0.00    +0.000 A 
ATOM      2  C   UNL     1       5.049   6.464  17.050  0.00  0.00    +0.000 A 
ATOM      3  O   UNL     1       5.343   6.327  15.732  0.00  0.00    +0.000 OA
ATOM      4  C   UNL     1       5.804   5.041  15.612  0.00  0.00    +0.000 A 
ATOM      5  N   UNL     1       5.805   4.366  16.750  0.00  0.00    +0.000 NA
ENDROOT
BRANCH   4   6
ATOM      6  C   UNL     1       6.226   4.639  14.266  0.00  0.00    +0.000 A 
ATOM      7  C   UNL     1       5.506   3.681  13.529  0.00  0.00    +0.000 A 
ATOM      8  C   UNL     1       5.904   3.309  12.241  0.00  0.00    +0.000 A 
ATOM      9  C   UNL     1       7.031   3.887  11.667  0.00  0.00    +0.000 A 
ATOM     10  C   UNL     1       7.759   4.838  12.383  0.00  0.00    +0.000 A 
ATOM     11  C   UNL     1       7.359   5.210  13.671  0.00  0.00    +0.000 A 
ENDBRANCH   4   6
BRANCH   1  13
ATOM     12  O   UNL     1       6.068   5.020  19.915  0.00  0.00    +0.000 OA
ATOM     13  C   UNL     1       5.138   5.055  19.119  0.00  0.00    +0.000 C 
BRANCH  13  14
ATOM     14  O   UNL     1       3.825   4.926  19.472  0.00  0.00    +0.000 OA
BRANCH  14  15
ATOM     15  C   UNL     1       3.103   3.810  18.906  0.00  0.00    +0.000 C 
ATOM     16  C   UNL     1       3.338   2.530  19.723  0.00  0.00    +0.000 C 
ATOM     17  C   UNL     1       2.866   2.686  21.169  0.00  0.00    +0.000 C 
ATOM     18  C   UNL     1       1.419   3.170  21.265  0.00  0.00    +0.000 C 
ATOM     19  C   UNL     1       1.144   4.388  20.387  0.00  0.00    +0.000 C 
ATOM     20  C   UNL     1       1.611   4.157  18.949  0.00  0.00    +0.000 C 
ENDBRANCH  14  15
ENDBRANCH  13  14
ENDBRANCH   1  13
TORSDOF 4
ENDMDL
MODEL 2
REMARK VINA RESULT:      -7.8      0.695      1.242
REMARK  Name = 
REMARK  4 active torsions:
REMARK  status: ('A' for Active; 'I' for Inactive)
REMARK    1  A    between atoms: C_2  and  O_3
REMARK    2  A    between atoms: C_2  and  C_10
REMARK    3  A    between atoms: O_3  and  C_4
REMARK    4  A    between atoms: C_13  and  C_14
REMARK                            x       y       z     vdW  Elec       q    Type
REMARK                         _______ _______ _______ _____ _____    ______ ____
ROOT
ATOM      1  C   UNL     1       5.324   5.070  17.705  0.00  0.00    +0.000 A 
ATOM      2  C   UNL     1       5.168   6.316  17.141  0.00  0.00    +0.000 A 
ATOM      3  O   UNL     1       5.479   6.240  15.823  0.00  0.00    +0.000 OA
ATOM      4  C   UNL     1       5.826   4.929  15.623  0.00  0.00    +0.000 A 
ATOM      5  N   UNL     1       5.739   4.182  16.713  0.00  0.00    +0.000 NA
ENDROOT
BRANCH   4   6
ATOM      6  C   UNL     1       6.242   4.580  14.260  0.00  0.00    +0.000 A 
ATOM      7  C   UNL     1       5.551   3.611  13.511  0.00  0.00    +0.000 A 
ATOM      8  C   UNL     1       5.942   3.289  12.207  0.00  0.00    +0.000 A 
ATOM      9  C   UNL     1       7.034   3.930  11.630  0.00  0.00    +0.000 A 
ATOM     10  C   UNL     1       7.733   4.894  12.359  0.00  0.00    +0.000 A 
ATOM     11  C   UNL     1       7.339   5.215  13.662  0.00  0.00    +0.000 A 
ENDBRANCH   4   6
BRANCH   1  13
ATOM     12  O   UNL     1       5.942   4.892  19.973  0.00  0.00    +0.000 OA
ATOM     13  C   UNL     1       5.081   4.771  19.110  0.00  0.00    +0.000 C 
BRANCH  13  14
ATOM     14  O   UNL     1       3.797   4.381  19.362  0.00  0.00    +0.000 OA
BRANCH  14  15
ATOM     15  C   UNL     1       3.615   3.070  19.943  0.00  0.00    +0.000 C 
ATOM     16  C   UNL     1       2.474   3.077  20.972  0.00  0.00    +0.000 C 
ATOM     17  C   UNL     1       1.141   3.479  20.339  0.00  0.00    +0.000 C 
ATOM     18  C   UNL     1       0.799   2.638  19.109  0.00  0.00    +0.000 C 
ATOM     19  C   UNL     1       1.956   2.544  18.117  0.00  0.00    +0.000 C 
ATOM     20  C   UNL     1       3.250   2.110  18.806  0.00  0.00    +0.000 C 
ENDBRANCH  14  15
ENDBRANCH  13  14
ENDBRANCH   1  13
TORSDOF 4
ENDMDL
MODEL 3
REMARK VINA RESULT:      -7.8      0.849      1.769
REMARK  Name = 
REMARK  4 active torsions:
REMARK  status: ('A' for Active; 'I' for Inactive)
REMARK    1  A    between atoms: C_2  and  O_3
REMARK    2  A    between atoms: C_2  and  C_10
REMARK    3  A    between atoms: O_3  and  C_4
REMARK    4  A    between atoms: C_13  and  C_14
REMARK                            x       y       z     vdW  Elec       q    Type
REMARK                         _______ _______ _______ _____ _____    ______ ____
ROOT
ATOM      1  C   UNL     1       5.804   5.169  17.731  0.00  0.00    +0.000 A 
ATOM      2  C   UNL     1       5.931   6.434  17.203  0.00  0.00    +0.000 A 
ATOM      3  O   UNL     1       6.144   6.330  15.868  0.00  0.00    +0.000 OA
ATOM      4  C   UNL     1       6.146   4.982  15.620  0.00  0.00    +0.000 A 
ATOM      5  N   UNL     1       5.935   4.242  16.697  0.00  0.00    +0.000 NA
ENDROOT
BRANCH   4   6
ATOM      6  C   UNL     1       6.391   4.589  14.229  0.00  0.00    +0.000 A 
ATOM      7  C   UNL     1       7.459   5.135  13.492  0.00  0.00    +0.000 A 
ATOM      8  C   UNL     1       7.698   4.750  12.170  0.00  0.00    +0.000 A 
ATOM      9  C   UNL     1       6.872   3.812  11.558  0.00  0.00    +0.000 A 
ATOM     10  C   UNL     1       5.808   3.260  12.271  0.00  0.00    +0.000 A 
ATOM     11  C   UNL     1       5.571   3.646  13.595  0.00  0.00    +0.000 A 
ENDBRANCH   4   6
BRANCH   1  13
ATOM     12  O   UNL     1       6.389   5.148  20.015  0.00  0.00    +0.000 OA
ATOM     13  C   UNL     1       5.569   4.890  19.142  0.00  0.00    +0.000 C 
BRANCH  13  14
ATOM     14  O   UNL     1       4.339   4.350  19.385  0.00  0.00    +0.000 OA
BRANCH  14  15
ATOM     15  C   UNL     1       3.244   5.274  19.566  0.00  0.00    +0.000 C 
ATOM     16  C   UNL     1       2.352   5.324  18.317  0.00  0.00    +0.000 C 
ATOM     17  C   UNL     1       1.741   3.958  18.000  0.00  0.00    +0.000 C 
ATOM     18  C   UNL     1       1.015   3.349  19.199  0.00  0.00    +0.000 C 
ATOM     19  C   UNL     1       1.854   3.374  20.474  0.00  0.00    +0.000 C 
ATOM     20  C   UNL     1       2.409   4.772  20.750  0.00  0.00    +0.000 C 
ENDBRANCH  14  15
ENDBRANCH  13  14
ENDBRANCH   1  13
TORSDOF 4
ENDMDL
MODEL 4
REMARK VINA RESULT:      -7.8      0.079      1.080
REMARK  Name = 
REMARK  4 active torsions:
REMARK  status: ('A' for Active; 'I' for Inactive)
REMARK    1  A    between atoms: C_2  and  O_3
REMARK    2  A    between atoms: C_2  and  C_10
REMARK    3  A    between atoms: O_3  and  C_4
REMARK    4  A    between atoms: C_13  and  C_14
REMARK                            x       y       z     vdW  Elec       q    Type
REMARK                         _______ _______ _______ _____ _____    ______ ____
ROOT
ATOM      1  C   UNL     1       5.383   5.315  17.723  0.00  0.00    +0.000 A 
ATOM      2  C   UNL     1       5.067   6.492  17.082  0.00  0.00    +0.000 A 
ATOM      3  O   UNL     1       5.342   6.356  15.760  0.00  0.00    +0.000 OA
ATOM      4  C   UNL     1       5.828   5.080  15.637  0.00  0.00    +0.000 A 
ATOM      5  N   UNL     1       5.863   4.410  16.778  0.00  0.00    +0.000 NA
ENDROOT
BRANCH   4   6
ATOM      6  C   UNL     1       6.237   4.681  14.285  0.00  0.00    +0.000 A 
ATOM      7  C   UNL     1       7.362   5.252  13.663  0.00  0.00    +0.000 A 
ATOM      8  C   UNL     1       7.756   4.861  12.380  0.00  0.00    +0.000 A 
ATOM      9  C   UNL     1       7.031   3.893  11.694  0.00  0.00    +0.000 A 
ATOM     10  C   UNL     1       5.910   3.315  12.294  0.00  0.00    +0.000 A 
ATOM     11  C   UNL     1       5.518   3.707  13.578  0.00  0.00    +0.000 A 
ENDBRANCH   4   6
BRANCH   1  13
ATOM     12  O   UNL     1       6.168   5.061  19.931  0.00  0.00    +0.000 OA
ATOM     13  C   UNL     1       5.221   5.094  19.154  0.00  0.00    +0.000 C 
BRANCH  13  14
ATOM     14  O   UNL     1       3.917   4.964  19.534  0.00  0.00    +0.000 OA
BRANCH  14  15
ATOM     15  C   UNL     1       3.169   3.879  18.943  0.00  0.00    +0.000 C 
ATOM     16  C   UNL     1       3.385   2.573  19.721  0.00  0.00    +0.000 C 
ATOM     17  C   UNL     1       2.928   2.695  21.175  0.00  0.00    +0.000 C 
ATOM     18  C   UNL     1       1.492   3.204  21.297  0.00  0.00    +0.000 C 
ATOM     19  C   UNL     1       1.233   4.452  20.456  0.00  0.00    +0.000 C 
ATOM     20  C   UNL     1       1.684   4.254  19.008  0.00  0.00    +0.000 C 
ENDBRANCH  14  15
ENDBRANCH  13  14
ENDBRANCH   1  13
TORSDOF 4
ENDMDL
MODEL 5
REMARK VINA RESULT:      -7.7      0.809      1.103
REMARK  Name = 
REMARK  4 active torsions:
REMARK  status: ('A' for Active; 'I' for Inactive)
REMARK    1  A    between atoms: C_2  and  O_3
REMARK    2  A    between atoms: C_2  and  C_10
REMARK    3  A    between atoms: O_3  and  C_4
REMARK    4  A    between atoms: C_13  and  C_14
REMARK                            x       y       z     vdW  Elec       q    Type
REMARK                         _______ _______ _______ _____ _____    ______ ____
ROOT
ATOM      1  C   UNL     1       5.269   5.239  17.509  0.00  0.00    +0.000 A 
ATOM      2  C   UNL     1       5.251   6.476  16.904  0.00  0.00    +0.000 A 
ATOM      3  O   UNL     1       5.567   6.324  15.593  0.00  0.00    +0.000 OA
ATOM      4  C   UNL     1       5.776   4.978  15.440  0.00  0.00    +0.000 A 
ATOM      5  N   UNL     1       5.600   4.281  16.551  0.00  0.00    +0.000 NA
ENDROOT
BRANCH   4   6
ATOM      6  C   UNL     1       6.168   4.543  14.095  0.00  0.00    +0.000 A 
ATOM      7  C   UNL     1       5.425   3.577  13.393  0.00  0.00    +0.000 A 
ATOM      8  C   UNL     1       5.794   3.173  12.106  0.00  0.00    +0.000 A 
ATOM      9  C   UNL     1       6.916   3.727  11.498  0.00  0.00    +0.000 A 
ATOM     10  C   UNL     1       7.667   4.687  12.179  0.00  0.00    +0.000 A 
ATOM     11  C   UNL     1       7.295   5.090  13.466  0.00  0.00    +0.000 A 
ENDBRANCH   4   6
BRANCH   1  13
ATOM     12  O   UNL     1       5.671   5.475  19.820  0.00  0.00    +0.000 OA
ATOM     13  C   UNL     1       4.980   5.014  18.919  0.00  0.00    +0.000 C 
BRANCH  13  14
ATOM     14  O   UNL     1       3.853   4.272  19.125  0.00  0.00    +0.000 OA
BRANCH  14  15
ATOM     15  C   UNL     1       2.588   4.963  19.024  0.00  0.00    +0.000 C 
ATOM     16  C   UNL     1       1.554   4.114  18.270  0.00  0.00    +0.000 C 
ATOM     17  C   UNL     1       1.286   2.785  18.977  0.00  0.00    +0.000 C 
ATOM     18  C   UNL     1       0.914   2.968  20.448  0.00  0.00    +0.000 C 
ATOM     19  C   UNL     1       1.881   3.886  21.193  0.00  0.00    +0.000 C 
ATOM     20  C   UNL     1       2.082   5.207  20.450  0.00  0.00    +0.000 C 
ENDBRANCH  14  15
ENDBRANCH  13  14
ENDBRANCH   1  13
TORSDOF 4
ENDMDL
MODEL 6
REMARK VINA RESULT:      -7.6      0.772      1.601
REMARK  Name = 
REMARK  4 active torsions:
REMARK  status: ('A' for Active; 'I' for Inactive)
REMARK    1  A    between atoms: C_2  and  O_3
REMARK    2  A    between atoms: C_2  and  C_10
REMARK    3  A    between atoms: O_3  and  C_4
REMARK    4  A    between atoms: C_13  and  C_14
REMARK                            x       y       z     vdW  Elec       q    Type
REMARK                         _______ _______ _______ _____ _____    ______ ____
ROOT
ATOM      1  C   UNL     1       5.694   4.997  17.754  0.00  0.00    +0.000 A 
ATOM      2  C   UNL     1       6.163   6.232  17.366  0.00  0.00    +0.000 A 
ATOM      3  O   UNL     1       6.463   6.190  16.044  0.00  0.00    +0.000 OA
ATOM      4  C   UNL     1       6.167   4.907  15.662  0.00  0.00    +0.000 A 
ATOM      5  N   UNL     1       5.693   4.154  16.643  0.00  0.00    +0.000 NA
ENDROOT
BRANCH   4   6
ATOM      6  C   UNL     1       6.435   4.582  14.257  0.00  0.00    +0.000 A 
ATOM      7  C   UNL     1       7.487   5.195  13.553  0.00  0.00    +0.000 A 
ATOM      8  C   UNL     1       7.748   4.874  12.217  0.00  0.00    +0.000 A 
ATOM      9  C   UNL     1       6.960   3.935  11.560  0.00  0.00    +0.000 A 
ATOM     10  C   UNL     1       5.911   3.316  12.242  0.00  0.00    +0.000 A 
ATOM     11  C   UNL     1       5.652   3.638  13.579  0.00  0.00    +0.000 A 
ENDBRANCH   4   6
BRANCH   1  13
ATOM     12  O   UNL     1       6.009   4.806  20.082  0.00  0.00    +0.000 OA
ATOM     13  C   UNL     1       5.276   4.669  19.110  0.00  0.00    +0.000 C 
BRANCH  13  14
ATOM     14  O   UNL     1       3.985   4.231  19.183  0.00  0.00    +0.000 OA
BRANCH  14  15
ATOM     15  C   UNL     1       3.780   2.873  19.633  0.00  0.00    +0.000 C 
ATOM     16  C   UNL     1       2.914   2.837  20.900  0.00  0.00    +0.000 C 
ATOM     17  C   UNL     1       1.531   3.446  20.661  0.00  0.00    +0.000 C 
ATOM     18  C   UNL     1       0.817   2.826  19.461  0.00  0.00    +0.000 C 
ATOM     19  C   UNL     1       1.696   2.769  18.214  0.00  0.00    +0.000 C 
ATOM     20  C   UNL     1       3.049   2.124  18.513  0.00  0.00    +0.000 C 
ENDBRANCH  14  15
ENDBRANCH  13  14
ENDBRANCH   1  13
TORSDOF 4
ENDMDL
MODEL 7
REMARK VINA RESULT:      -7.6      1.327      1.935
REMARK  Name = 
REMARK  4 active torsions:
REMARK  status: ('A' for Active; 'I' for Inactive)
REMARK    1  A    between atoms: C_2  and  O_3
REMARK    2  A    between atoms: C_2  and  C_10
REMARK    3  A    between atoms: O_3  and  C_4
REMARK    4  A    between atoms: C_13  and  C_14
REMARK                            x       y       z     vdW  Elec       q    Type
REMARK                         _______ _______ _______ _____ _____    ______ ____
ROOT
ATOM      1  C   UNL     1       6.511   4.969  17.678  0.00  0.00    +0.000 A 
ATOM      2  C   UNL     1       7.275   6.045  17.286  0.00  0.00    +0.000 A 
ATOM      3  O   UNL     1       7.438   5.996  15.940  0.00  0.00    +0.000 OA
ATOM      4  C   UNL     1       6.760   4.871  15.548  0.00  0.00    +0.000 A 
ATOM      5  N   UNL     1       6.177   4.225  16.546  0.00  0.00    +0.000 NA
ENDROOT
BRANCH   4   6
ATOM      6  C   UNL     1       6.805   4.566  14.115  0.00  0.00    +0.000 A 
ATOM      7  C   UNL     1       5.975   3.580  13.550  0.00  0.00    +0.000 A 
ATOM      8  C   UNL     1       6.011   3.300  12.180  0.00  0.00    +0.000 A 
ATOM      9  C   UNL     1       6.880   4.000  11.350  0.00  0.00    +0.000 A 
ATOM     10  C   UNL     1       7.713   4.981  11.891  0.00  0.00    +0.000 A 
ATOM     11  C   UNL     1       7.674   5.260  13.262  0.00  0.00    +0.000 A 
ENDBRANCH   4   6
BRANCH   1  13
ATOM     12  O   UNL     1       6.542   5.357  20.003  0.00  0.00    +0.000 OA
ATOM     13  C   UNL     1       6.133   4.693  19.058  0.00  0.00    +0.000 C 
BRANCH  13  14
ATOM     14  O   UNL     1       5.259   3.651  19.178  0.00  0.00    +0.000 OA
BRANCH  14  15
ATOM     15  C   UNL     1       3.957   3.951  19.727  0.00  0.00    +0.000 C 
ATOM     16  C   UNL     1       3.086   4.696  18.705  0.00  0.00    +0.000 C 
ATOM     17  C   UNL     1       2.861   3.867  17.439  0.00  0.00    +0.000 C 
ATOM     18  C   UNL     1       2.321   2.470  17.742  0.00  0.00    +0.000 C 
ATOM     19  C   UNL     1       3.122   1.748  18.824  0.00  0.00    +0.000 C 
ATOM     20  C   UNL     1       3.284   2.617  20.071  0.00  0.00    +0.000 C 
ENDBRANCH  14  15
ENDBRANCH  13  14
ENDBRANCH   1  13
TORSDOF 4
ENDMDL
MODEL 8
REMARK VINA RESULT:      -7.6      1.187      2.183
REMARK  Name = 
REMARK  4 active torsions:
REMARK  status: ('A' for Active; 'I' for Inactive)
REMARK    1  A    between atoms: C_2  and  O_3
REMARK    2  A    between atoms: C_2  and  C_10
REMARK    3  A    between atoms: O_3  and  C_4
REMARK    4  A    between atoms: C_13  and  C_14
REMARK                            x       y       z     vdW  Elec       q    Type
REMARK                         _______ _______ _______ _____ _____    ______ ____
ROOT
ATOM      1  C   UNL     1       6.185   4.822  17.745  0.00  0.00    +0.000 A 
ATOM      2  C   UNL     1       7.549   4.664  17.635  0.00  0.00    +0.000 A 
ATOM      3  O   UNL     1       7.866   4.510  16.325  0.00  0.00    +0.000 OA
ATOM      4  C   UNL     1       6.664   4.575  15.667  0.00  0.00    +0.000 A 
ATOM      5  N   UNL     1       5.628   4.772  16.467  0.00  0.00    +0.000 NA
ENDROOT
BRANCH   4   6
ATOM      6  C   UNL     1       6.725   4.404  14.212  0.00  0.00    +0.000 A 
ATOM      7  C   UNL     1       7.637   5.132  13.427  0.00  0.00    +0.000 A 
ATOM      8  C   UNL     1       7.701   4.957  12.041  0.00  0.00    +0.000 A 
ATOM      9  C   UNL     1       6.851   4.052  11.414  0.00  0.00    +0.000 A 
ATOM     10  C   UNL     1       5.939   3.320  12.176  0.00  0.00    +0.000 A 
ATOM     11  C   UNL     1       5.877   3.496  13.563  0.00  0.00    +0.000 A 
ENDBRANCH   4   6
BRANCH   1  13
ATOM     12  O   UNL     1       6.051   5.340  20.041  0.00  0.00    +0.000 OA
ATOM     13  C   UNL     1       5.482   5.011  19.007  0.00  0.00    +0.000 C 
BRANCH  13  14
ATOM     14  O   UNL     1       4.134   4.818  18.906  0.00  0.00    +0.000 OA
BRANCH  14  15
ATOM     15  C   UNL     1       3.508   4.026  19.940  0.00  0.00    +0.000 C 
ATOM     16  C   UNL     1       1.981   4.185  19.906  0.00  0.00    +0.000 C 
ATOM     17  C   UNL     1       1.391   3.730  18.570  0.00  0.00    +0.000 C 
ATOM     18  C   UNL     1       1.829   2.316  18.188  0.00  0.00    +0.000 C 
ATOM     19  C   UNL     1       3.338   2.113  18.304  0.00  0.00    +0.000 C 
ATOM     20  C   UNL     1       3.858   2.559  19.671  0.00  0.00    +0.000 C 
ENDBRANCH  14  15
ENDBRANCH  13  14
ENDBRANCH   1  13
TORSDOF 4
ENDMDL
MODEL 9
REMARK VINA RESULT:      -7.5      1.019      1.224
REMARK  Name = 
REMARK  4 active torsions:
REMARK  status: ('A' for Active; 'I' for Inactive)
REMARK    1  A    between atoms: C_2  and  O_3
REMARK    2  A    between atoms: C_2  and  C_10
REMARK    3  A    between atoms: O_3  and  C_4
REMARK    4  A    between atoms: C_13  and  C_14
REMARK                            x       y       z     vdW  Elec       q    Type
REMARK                         _______ _______ _______ _____ _____    ______ ____
ROOT
ATOM      1  C   UNL     1       4.857   5.343  17.731  0.00  0.00    +0.000 A 
ATOM      2  C   UNL     1       6.122   4.893  18.035  0.00  0.00    +0.000 A 
ATOM      3  O   UNL     1       6.769   4.600  16.879  0.00  0.00    +0.000 OA
ATOM      4  C   UNL     1       5.860   4.881  15.892  0.00  0.00    +0.000 A 
ATOM      5  N   UNL     1       4.704   5.340  16.346  0.00  0.00    +0.000 NA
ENDROOT
BRANCH   4   6
ATOM      6  C   UNL     1       6.307   4.617  14.520  0.00  0.00    +0.000 A 
ATOM      7  C   UNL     1       5.643   3.686  13.701  0.00  0.00    +0.000 A 
ATOM      8  C   UNL     1       6.064   3.446  12.389  0.00  0.00    +0.000 A 
ATOM      9  C   UNL     1       7.158   4.132  11.872  0.00  0.00    +0.000 A 
ATOM     10  C   UNL     1       7.831   5.059  12.670  0.00  0.00    +0.000 A 
ATOM     11  C   UNL     1       7.408   5.298  13.982  0.00  0.00    +0.000 A 
ENDBRANCH   4   6
BRANCH   1  13
ATOM     12  O   UNL     1       3.318   6.841  18.703  0.00  0.00    +0.000 OA
ATOM     13  C   UNL     1       3.873   5.749  18.727  0.00  0.00    +0.000 C 
BRANCH  13  14
ATOM     14  O   UNL     1       3.615   4.782  19.654  0.00  0.00    +0.000 OA
BRANCH  14  15
ATOM     15  C   UNL     1       3.138   3.511  19.158  0.00  0.00    +0.000 C 
ATOM     16  C   UNL     1       3.404   2.389  20.172  0.00  0.00    +0.000 C 
ATOM     17  C   UNL     1       2.698   2.647  21.504  0.00  0.00    +0.000 C 
ATOM     18  C   UNL     1       1.204   2.921  21.331  0.00  0.00    +0.000 C 
ATOM     19  C   UNL     1       0.915   3.970  20.260  0.00  0.00    +0.000 C 
ATOM     20  C   UNL     1       1.625   3.639  18.947  0.00  0.00    +0.000 C 
ENDBRANCH  14  15
ENDBRANCH  13  14
ENDBRANCH   1  13
TORSDOF 4
ENDMDL
