MODEL 1
REMARK VINA RESULT:      -8.2      0.000      0.000
REMARK  Name = 
REMARK  5 active torsions:
REMARK  status: ('A' for Active; 'I' for Inactive)
REMARK    1  A    between atoms: C_1  and  C_2
REMARK    2  A    between atoms: C_2  and  C_3
REMARK    3  A    between atoms: C_7  and  N_8
REMARK    4  A    between atoms: C_11  and  N_12
REMARK    5  A    between atoms: C_13  and  C_15
REMARK                            x       y       z     vdW  Elec       q    Type
REMARK                         _______ _______ _______ _____ _____    ______ ____
ROOT
ATOM      1  N   UNL     1       6.160   5.265  15.792  0.00  0.00    +0.000 N 
ATOM      2  C   UNL     1       4.939   6.034  16.028  0.00  0.00    +0.000 C 
ATOM      3  C   UNL     1       5.060   6.695  17.396  0.00  0.00    +0.000 C 
ATOM      4  C   UNL     1       5.330   5.666  18.502  0.00  0.00    +0.000 C 
ATOM      5  C   UNL     1       6.504   4.744  18.139  0.00  0.00    +0.000 C 
ATOM      6  C   UNL     1       6.345   4.153  16.743  0.00  0.00    +0.000 C 
ENDROOT
BRANCH   1  11
ATOM      7  C   UNL     1       6.069   3.566  12.464  0.00  0.00    +0.000 A 
ATOM      8  C   UNL     1       7.218   4.121  11.890  0.00  0.00    +0.000 A 
ATOM      9  C   UNL     1       7.957   5.080  12.575  0.00  0.00    +0.000 A 
ATOM     10  C   UNL     1       7.570   5.467  13.857  0.00  0.00    +0.000 A 
ATOM     11  C   UNL     1       6.448   4.898  14.476  0.00  0.00    +0.000 A 
ATOM     12  C   UNL     1       5.691   3.969  13.754  0.00  0.00    +0.000 A 
BRANCH   7  14
ATOM     13  C   UNL     1       4.003   3.086  11.120  0.00  0.00    +0.000 C 
ATOM     14  C   UNL     1       5.271   2.516  11.736  0.00  0.00    +0.000 C 
ENDBRANCH   7  14
ENDBRANCH   1  11
BRANCH   4  15
ATOM     15  N   UNL     1       4.121   4.914  18.835  0.00  0.00    +0.000 N 
ATOM     16  C   UNL     1       3.034   5.528  19.418  0.00  0.00    +0.000 C 
ATOM     17  O   UNL     1       2.990   6.739  19.648  0.00  0.00    +0.000 OA
ATOM     18  H   UNL     1       4.155   3.903  18.940  0.00  0.00    +0.000 HD
BRANCH  16  19
ATOM     19  C   UNL     1       1.842   4.597  19.677  0.00  0.00    +0.000 C 
ATOM     20  C   UNL     1       1.842   4.082  21.109  0.00  0.00    +0.000 C 
ATOM     21  C   UNL     1       1.302   2.684  20.967  0.00  0.00    +0.000 C 
ATOM     22  C   UNL     1       1.841   2.273  19.616  0.00  0.00    +0.000 C 
ATOM     23  O   UNL     1       1.844   3.454  18.803  0.00  0.00    +0.000 OA
ENDBRANCH  16  19
ENDBRANCH   4  15
TORSDOF 4
ENDMDL
MODEL 2
REMARK VINA RESULT:      -8.1      0.875      1.068
REMARK  Name = 
REMARK  5 active torsions:
REMARK  status: ('A' for Active; 'I' for Inactive)
REMARK    1  A    between atoms: C_1  and  C_2
REMARK    2  A    between atoms: C_2  and  C_3
REMARK    3  A    between atoms: C_7  and  N_8
REMARK    4  A    between atoms: C_11  and  N_12
REMARK    5  A    between atoms: C_13  and  C_15
REMARK                            x       y       z     vdW  Elec       q    Type
REMARK                         _______ _______ _______ _____ _____    ______ ____
ROOT
ATOM      1  N   UNL     1       6.460   5.268  15.764  0.00  0.00    +0.000 N 
ATOM      2  C   UNL     1       5.111   5.650  16.180  0.00  0.00    +0.000 C 
ATOM      3  C   UNL     1       5.225   6.404  17.499  0.00  0.00    +0.000 C 
ATOM      4  C   UNL     1       5.958   5.576  18.564  0.00  0.00    +0.000 C 
ATOM      5  C   UNL     1       7.290   5.027  18.033  0.00  0.00    +0.000 C 
ATOM      6  C   UNL     1       7.115   4.327  16.691  0.00  0.00    +0.000 C 
ENDROOT
BRANCH   1  11
ATOM      7  C   UNL     1       6.142   3.594  12.437  0.00  0.00    +0.000 A 
ATOM      8  C   UNL     1       7.223   4.187  11.776  0.00  0.00    +0.000 A 
ATOM      9  C   UNL     1       7.989   5.162  12.408  0.00  0.00    +0.000 A 
ATOM     10  C   UNL     1       7.698   5.527  13.721  0.00  0.00    +0.000 A 
ATOM     11  C   UNL     1       6.648   4.921  14.425  0.00  0.00    +0.000 A 
ATOM     12  C   UNL     1       5.861   3.976  13.758  0.00  0.00    +0.000 A 
BRANCH   7  14
ATOM     13  C   UNL     1       4.043   3.090  11.154  0.00  0.00    +0.000 C 
ATOM     14  C   UNL     1       5.317   2.527  11.767  0.00  0.00    +0.000 C 
ENDBRANCH   7  14
ENDBRANCH   1  11
BRANCH   4  15
ATOM     15  N   UNL     1       5.100   4.521  19.100  0.00  0.00    +0.000 N 
ATOM     16  C   UNL     1       3.881   4.810  19.675  0.00  0.00    +0.000 C 
ATOM     17  O   UNL     1       3.420   5.952  19.731  0.00  0.00    +0.000 OA
ATOM     18  H   UNL     1       5.490   3.614  19.346  0.00  0.00    +0.000 HD
BRANCH  16  19
ATOM     19  C   UNL     1       3.101   3.582  20.161  0.00  0.00    +0.000 C 
ATOM     20  C   UNL     1       2.851   2.598  19.026  0.00  0.00    +0.000 C 
ATOM     21  C   UNL     1       1.493   2.038  19.356  0.00  0.00    +0.000 C 
ATOM     22  C   UNL     1       0.810   3.222  19.999  0.00  0.00    +0.000 C 
ATOM     23  O   UNL     1       1.824   3.935  20.721  0.00  0.00    +0.000 OA
ENDBRANCH  16  19
ENDBRANCH   4  15
TORSDOF 4
ENDMDL
MODEL 3
REMARK VINA RESULT:      -8.0      1.252      1.425
REMARK  Name = 
REMARK  5 active torsions:
REMARK  status: ('A' for Active; 'I' for Inactive)
REMARK    1  A    between atoms: C_1  and  C_2
REMARK    2  A    between atoms: C_2  and  C_3
REMARK    3  A    between atoms: C_7  and  N_8
REMARK    4  A    between atoms: C_11  and  N_12
REMARK    5  A    between atoms: C_13  and  C_15
REMARK                            x       y       z     vdW  Elec       q    Type
REMARK                         _______ _______ _______ _____ _____    ______ ____
ROOT
ATOM      1  N   UNL     1       6.204   5.207  15.744  0.00  0.00    +0.000 N 
ATOM      2  C   UNL     1       4.990   5.974  16.014  0.00  0.00    +0.000 C 
ATOM      3  C   UNL     1       5.124   6.587  17.403  0.00  0.00    +0.000 C 
ATOM      4  C   UNL     1       5.396   5.519  18.471  0.00  0.00    +0.000 C 
ATOM      5  C   UNL     1       6.562   4.603  18.068  0.00  0.00    +0.000 C 
ATOM      6  C   UNL     1       6.390   4.062  16.655  0.00  0.00    +0.000 C 
ENDROOT
BRANCH   1  11
ATOM      7  C   UNL     1       6.105   3.599  12.371  0.00  0.00    +0.000 A 
ATOM      8  C   UNL     1       7.230   4.199  11.795  0.00  0.00    +0.000 A 
ATOM      9  C   UNL     1       7.955   5.159  12.496  0.00  0.00    +0.000 A 
ATOM     10  C   UNL     1       7.578   5.500  13.794  0.00  0.00    +0.000 A 
ATOM     11  C   UNL     1       6.481   4.885  14.414  0.00  0.00    +0.000 A 
ATOM     12  C   UNL     1       5.737   3.956  13.677  0.00  0.00    +0.000 A 
BRANCH   7  14
ATOM     13  C   UNL     1       3.993   3.081  11.116  0.00  0.00    +0.000 C 
ATOM     14  C   UNL     1       5.323   2.549  11.626  0.00  0.00    +0.000 C 
ENDBRANCH   7  14
ENDBRANCH   1  11
BRANCH   4  15
ATOM     15  N   UNL     1       4.185   4.763  18.787  0.00  0.00    +0.000 N 
ATOM     16  C   UNL     1       4.246   3.554  19.445  0.00  0.00    +0.000 C 
ATOM     17  O   UNL     1       5.303   3.062  19.849  0.00  0.00    +0.000 OA
ATOM     18  H   UNL     1       3.323   4.934  18.276  0.00  0.00    +0.000 HD
BRANCH  16  19
ATOM     19  C   UNL     1       2.881   2.910  19.717  0.00  0.00    +0.000 C 
ATOM     20  C   UNL     1       1.741   3.854  19.363  0.00  0.00    +0.000 C 
ATOM     21  C   UNL     1       0.701   3.537  20.404  0.00  0.00    +0.000 C 
ATOM     22  C   UNL     1       1.550   3.188  21.603  0.00  0.00    +0.000 C 
ATOM     23  O   UNL     1       2.721   2.533  21.097  0.00  0.00    +0.000 OA
ENDBRANCH  16  19
ENDBRANCH   4  15
TORSDOF 4
ENDMDL
MODEL 4
REMARK VINA RESULT:      -7.6      1.602      2.536
REMARK  Name = 
REMARK  5 active torsions:
REMARK  status: ('A' for Active; 'I' for Inactive)
REMARK    1  A    between atoms: C_1  and  C_2
REMARK    2  A    between atoms: C_2  and  C_3
REMARK    3  A    between atoms: C_7  and  N_8
REMARK    4  A    between atoms: C_11  and  N_12
REMARK    5  A    between atoms: C_13  and  C_15
REMARK                            x       y       z     vdW  Elec       q    Type
REMARK                         _______ _______ _______ _____ _____    ______ ____
ROOT
ATOM      1  N   UNL     1       6.191   4.722  15.982  0.00  0.00    +0.000 N 
ATOM      2  C   UNL     1       6.318   6.063  16.550  0.00  0.00    +0.000 C 
ATOM      3  C   UNL     1       6.449   5.920  18.062  0.00  0.00    +0.000 C 
ATOM      4  C   UNL     1       5.273   5.136  18.661  0.00  0.00    +0.000 C 
ATOM      5  C   UNL     1       5.042   3.811  17.918  0.00  0.00    +0.000 C 
ATOM      6  C   UNL     1       4.968   4.017  16.410  0.00  0.00    +0.000 C 
ENDROOT
BRANCH   1  11
ATOM      7  C   UNL     1       6.065   3.527  12.443  0.00  0.00    +0.000 A 
ATOM      8  C   UNL     1       7.154   4.234  11.921  0.00  0.00    +0.000 A 
ATOM      9  C   UNL     1       7.862   5.128  12.718  0.00  0.00    +0.000 A 
ATOM     10  C   UNL     1       7.506   5.297  14.055  0.00  0.00    +0.000 A 
ATOM     11  C   UNL     1       6.446   4.572  14.618  0.00  0.00    +0.000 A 
ATOM     12  C   UNL     1       5.717   3.711  13.790  0.00  0.00    +0.000 A 
BRANCH   7  14
ATOM     13  C   UNL     1       3.976   3.115  11.112  0.00  0.00    +0.000 C 
ATOM     14  C   UNL     1       5.302   2.545  11.592  0.00  0.00    +0.000 C 
ENDBRANCH   7  14
ENDBRANCH   1  11
BRANCH   4  15
ATOM     15  N   UNL     1       4.063   5.954  18.719  0.00  0.00    +0.000 N 
ATOM     16  C   UNL     1       3.050   5.673  19.609  0.00  0.00    +0.000 C 
ATOM     17  O   UNL     1       3.116   4.759  20.435  0.00  0.00    +0.000 OA
ATOM     18  H   UNL     1       3.795   6.536  17.929  0.00  0.00    +0.000 HD
BRANCH  16  19
ATOM     19  C   UNL     1       1.866   6.647  19.552  0.00  0.00    +0.000 C 
ATOM     20  C   UNL     1       2.210   7.892  18.745  0.00  0.00    +0.000 C 
ATOM     21  C   UNL     1       1.459   8.980  19.464  0.00  0.00    +0.000 C 
ATOM     22  C   UNL     1       1.517   8.510  20.899  0.00  0.00    +0.000 C 
ATOM     23  O   UNL     1       1.451   7.078  20.861  0.00  0.00    +0.000 OA
ENDBRANCH  16  19
ENDBRANCH   4  15
TORSDOF 4
ENDMDL
MODEL 5
REMARK VINA RESULT:      -7.4      0.982      1.031
REMARK  Name = 
REMARK  5 active torsions:
REMARK  status: ('A' for Active; 'I' for Inactive)
REMARK    1  A    between atoms: C_1  and  C_2
REMARK    2  A    between atoms: C_2  and  C_3
REMARK    3  A    between atoms: C_7  and  N_8
REMARK    4  A    between atoms: C_11  and  N_12
REMARK    5  A    between atoms: C_13  and  C_15
REMARK                            x       y       z     vdW  Elec       q    Type
REMARK                         _______ _______ _______ _____ _____    ______ ____
ROOT
ATOM      1  N   UNL     1       6.236   5.139  15.456  0.00  0.00    +0.000 N 
ATOM      2  C   UNL     1       5.389   6.293  15.752  0.00  0.00    +0.000 C 
ATOM      3  C   UNL     1       5.805   6.840  17.113  0.00  0.00    +0.000 C 
ATOM      4  C   UNL     1       5.736   5.763  18.204  0.00  0.00    +0.000 C 
ATOM      5  C   UNL     1       6.478   4.485  17.782  0.00  0.00    +0.000 C 
ATOM      6  C   UNL     1       6.051   4.017  16.396  0.00  0.00    +0.000 C 
ENDROOT
BRANCH   1  11
ATOM      7  C   UNL     1       5.433   3.542  12.173  0.00  0.00    +0.000 A 
ATOM      8  C   UNL     1       6.636   3.779  11.500  0.00  0.00    +0.000 A 
ATOM      9  C   UNL     1       7.654   4.507  12.108  0.00  0.00    +0.000 A 
ATOM     10  C   UNL     1       7.488   4.974  13.411  0.00  0.00    +0.000 A 
ATOM     11  C   UNL     1       6.310   4.716  14.127  0.00  0.00    +0.000 A 
ATOM     12  C   UNL     1       5.280   4.023  13.482  0.00  0.00    +0.000 A 
BRANCH   7  14
ATOM     13  C   UNL     1       3.531   3.570  10.533  0.00  0.00    +0.000 C 
ATOM     14  C   UNL     1       4.331   2.743  11.528  0.00  0.00    +0.000 C 
ENDBRANCH   7  14
ENDBRANCH   1  11
BRANCH   4  15
ATOM     15  N   UNL     1       4.354   5.493  18.597  0.00  0.00    +0.000 N 
ATOM     16  C   UNL     1       4.042   4.469  19.464  0.00  0.00    +0.000 C 
ATOM     17  O   UNL     1       4.897   3.755  19.995  0.00  0.00    +0.000 OA
ATOM     18  H   UNL     1       3.581   5.827  18.026  0.00  0.00    +0.000 HD
BRANCH  16  19
ATOM     19  C   UNL     1       2.548   4.343  19.788  0.00  0.00    +0.000 C 
ATOM     20  C   UNL     1       2.322   3.541  21.062  0.00  0.00    +0.000 C 
ATOM     21  C   UNL     1       1.045   2.798  20.773  0.00  0.00    +0.000 C 
ATOM     22  C   UNL     1       1.151   2.554  19.286  0.00  0.00    +0.000 C 
ATOM     23  O   UNL     1       1.814   3.699  18.732  0.00  0.00    +0.000 OA
ENDBRANCH  16  19
ENDBRANCH   4  15
TORSDOF 4
ENDMDL
MODEL 6
REMARK VINA RESULT:      -7.3      2.797      7.287
REMARK  Name = 
REMARK  5 active torsions:
REMARK  status: ('A' for Active; 'I' for Inactive)
REMARK    1  A    between atoms: C_1  and  C_2
REMARK    2  A    between atoms: C_2  and  C_3
REMARK    3  A    between atoms: C_7  and  N_8
REMARK    4  A    between atoms: C_11  and  N_12
REMARK    5  A    between atoms: C_13  and  C_15
REMARK                            x       y       z     vdW  Elec       q    Type
REMARK                         _______ _______ _______ _____ _____    ______ ____
ROOT
ATOM      1  N   UNL     1       4.827   5.341  18.044  0.00  0.00    +0.000 N 
ATOM      2  C   UNL     1       5.401   4.071  17.605  0.00  0.00    +0.000 C 
ATOM      3  C   UNL     1       6.824   4.342  17.129  0.00  0.00    +0.000 C 
ATOM      4  C   UNL     1       6.861   5.415  16.032  0.00  0.00    +0.000 C 
ATOM      5  C   UNL     1       6.083   6.673  16.448  0.00  0.00    +0.000 C 
ATOM      6  C   UNL     1       4.688   6.329  16.957  0.00  0.00    +0.000 C 
ENDROOT
BRANCH   1  11
ATOM      7  C   UNL     1       1.849   4.110  19.938  0.00  0.00    +0.000 A 
ATOM      8  C   UNL     1       1.352   5.330  20.408  0.00  0.00    +0.000 A 
ATOM      9  C   UNL     1       2.033   6.516  20.149  0.00  0.00    +0.000 A 
ATOM     10  C   UNL     1       3.200   6.492  19.388  0.00  0.00    +0.000 A 
ATOM     11  C   UNL     1       3.701   5.290  18.868  0.00  0.00    +0.000 A 
ATOM     12  C   UNL     1       3.028   4.103  19.177  0.00  0.00    +0.000 A 
BRANCH   7  14
ATOM     13  C   UNL     1       0.636   2.163  18.915  0.00  0.00    +0.000 C 
ATOM     14  C   UNL     1       1.111   2.823  20.201  0.00  0.00    +0.000 C 
ENDBRANCH   7  14
ENDBRANCH   1  11
BRANCH   4  15
ATOM     15  N   UNL     1       6.402   4.881  14.751  0.00  0.00    +0.000 N 
ATOM     16  C   UNL     1       7.147   5.035  13.602  0.00  0.00    +0.000 C 
ATOM     17  O   UNL     1       8.253   5.581  13.588  0.00  0.00    +0.000 OA
ATOM     18  H   UNL     1       5.418   4.669  14.603  0.00  0.00    +0.000 HD
BRANCH  16  19
ATOM     19  C   UNL     1       6.529   4.393  12.354  0.00  0.00    +0.000 C 
ATOM     20  C   UNL     1       5.287   3.584  12.703  0.00  0.00    +0.000 C 
ATOM     21  C   UNL     1       5.350   2.431  11.737  0.00  0.00    +0.000 C 
ATOM     22  C   UNL     1       6.839   2.215  11.599  0.00  0.00    +0.000 C 
ATOM     23  O   UNL     1       7.447   3.511  11.683  0.00  0.00    +0.000 OA
ENDBRANCH  16  19
ENDBRANCH   4  15
TORSDOF 4
ENDMDL
MODEL 7
REMARK VINA RESULT:      -7.1      5.221      7.713
REMARK  Name = 
REMARK  5 active torsions:
REMARK  status: ('A' for Active; 'I' for Inactive)
REMARK    1  A    between atoms: C_1  and  C_2
REMARK    2  A    between atoms: C_2  and  C_3
REMARK    3  A    between atoms: C_7  and  N_8
REMARK    4  A    between atoms: C_11  and  N_12
REMARK    5  A    between atoms: C_13  and  C_15
REMARK                            x       y       z     vdW  Elec       q    Type
REMARK                         _______ _______ _______ _____ _____    ______ ____
ROOT
ATOM      1  N   UNL     1       2.479   7.501  19.208  0.00  0.00    +0.000 N 
ATOM      2  C   UNL     1       2.143   8.066  17.902  0.00  0.00    +0.000 C 
ATOM      3  C   UNL     1       1.959   9.569  18.077  0.00  0.00    +0.000 C 
ATOM      4  C   UNL     1       0.907   9.892  19.147  0.00  0.00    +0.000 C 
ATOM      5  C   UNL     1       1.181   9.131  20.454  0.00  0.00    +0.000 C 
ATOM      6  C   UNL     1       1.401   7.644  20.204  0.00  0.00    +0.000 C 
ENDROOT
BRANCH   1  11
ATOM      7  C   UNL     1       3.260   3.950  20.075  0.00  0.00    +0.000 A 
ATOM      8  C   UNL     1       4.422   3.777  19.317  0.00  0.00    +0.000 A 
ATOM      9  C   UNL     1       4.887   4.798  18.494  0.00  0.00    +0.000 A 
ATOM     10  C   UNL     1       4.209   6.015  18.450  0.00  0.00    +0.000 A 
ATOM     11  C   UNL     1       3.065   6.234  19.231  0.00  0.00    +0.000 A 
ATOM     12  C   UNL     1       2.587   5.180  20.017  0.00  0.00    +0.000 A 
BRANCH   7  14
ATOM     13  C   UNL     1       1.249   2.917  21.169  0.00  0.00    +0.000 C 
ATOM     14  C   UNL     1       2.757   2.856  20.980  0.00  0.00    +0.000 C 
ENDBRANCH   7  14
ENDBRANCH   1  11
BRANCH   4  15
ATOM     15  N   UNL     1      -0.447   9.659  18.647  0.00  0.00    +0.000 N 
ATOM     16  C   UNL     1      -1.258  10.705  18.262  0.00  0.00    +0.000 C 
ATOM     17  O   UNL     1      -0.885  11.881  18.267  0.00  0.00    +0.000 OA
ATOM     18  H   UNL     1      -0.932   8.791  18.856  0.00  0.00    +0.000 HD
BRANCH  16  19
ATOM     19  C   UNL     1      -2.636  10.281  17.739  0.00  0.00    +0.000 C 
ATOM     20  C   UNL     1      -2.643  10.167  16.221  0.00  0.00    +0.000 C 
ATOM     21  C   UNL     1      -4.029  10.626  15.853  0.00  0.00    +0.000 C 
ATOM     22  C   UNL     1      -4.309  11.667  16.911  0.00  0.00    +0.000 C 
ATOM     23  O   UNL     1      -3.670  11.210  18.111  0.00  0.00    +0.000 OA
ENDBRANCH  16  19
ENDBRANCH   4  15
TORSDOF 4
ENDMDL
MODEL 8
REMARK VINA RESULT:      -7.1      2.928      7.609
REMARK  Name = 
REMARK  5 active torsions:
REMARK  status: ('A' for Active; 'I' for Inactive)
REMARK    1  A    between atoms: C_1  and  C_2
REMARK    2  A    between atoms: C_2  and  C_3
REMARK    3  A    between atoms: C_7  and  N_8
REMARK    4  A    between atoms: C_11  and  N_12
REMARK    5  A    between atoms: C_13  and  C_15
REMARK                            x       y       z     vdW  Elec       q    Type
REMARK                         _______ _______ _______ _____ _____    ______ ____
ROOT
ATOM      1  N   UNL     1       4.609   5.229  18.026  0.00  0.00    +0.000 N 
ATOM      2  C   UNL     1       5.227   3.984  17.574  0.00  0.00    +0.000 C 
ATOM      3  C   UNL     1       6.651   4.302  17.135  0.00  0.00    +0.000 C 
ATOM      4  C   UNL     1       6.683   5.400  16.062  0.00  0.00    +0.000 C 
ATOM      5  C   UNL     1       5.862   6.627  16.487  0.00  0.00    +0.000 C 
ATOM      6  C   UNL     1       4.467   6.236  16.958  0.00  0.00    +0.000 C 
ENDROOT
BRANCH   1  11
ATOM      7  C   UNL     1       1.799   6.059  20.347  0.00  0.00    +0.000 A 
ATOM      8  C   UNL     1       1.263   4.780  20.529  0.00  0.00    +0.000 A 
ATOM      9  C   UNL     1       1.790   3.690  19.843  0.00  0.00    +0.000 A 
ATOM     10  C   UNL     1       2.881   3.867  18.994  0.00  0.00    +0.000 A 
ATOM     11  C   UNL     1       3.467   5.130  18.824  0.00  0.00    +0.000 A 
ATOM     12  C   UNL     1       2.895   6.221  19.486  0.00  0.00    +0.000 A 
BRANCH   7  14
ATOM     13  C   UNL     1       1.400   8.538  20.315  0.00  0.00    +0.000 C 
ATOM     14  C   UNL     1       1.245   7.242  21.096  0.00  0.00    +0.000 C 
ENDBRANCH   7  14
ENDBRANCH   1  11
BRANCH   4  15
ATOM     15  N   UNL     1       6.266   4.881  14.760  0.00  0.00    +0.000 N 
ATOM     16  C   UNL     1       7.078   4.989  13.652  0.00  0.00    +0.000 C 
ATOM     17  O   UNL     1       8.210   5.476  13.695  0.00  0.00    +0.000 OA
ATOM     18  H   UNL     1       5.282   4.719  14.560  0.00  0.00    +0.000 HD
BRANCH  16  19
ATOM     19  C   UNL     1       6.496   4.370  12.375  0.00  0.00    +0.000 C 
ATOM     20  C   UNL     1       5.251   3.547  12.675  0.00  0.00    +0.000 C 
ATOM     21  C   UNL     1       5.345   2.416  11.686  0.00  0.00    +0.000 C 
ATOM     22  C   UNL     1       6.839   2.213  11.580  0.00  0.00    +0.000 C 
ATOM     23  O   UNL     1       7.436   3.510  11.708  0.00  0.00    +0.000 OA
ENDBRANCH  16  19
ENDBRANCH   4  15
TORSDOF 4
ENDMDL
MODEL 9
REMARK VINA RESULT:      -7.1      5.282      7.821
REMARK  Name = 
REMARK  5 active torsions:
REMARK  status: ('A' for Active; 'I' for Inactive)
REMARK    1  A    between atoms: C_1  and  C_2
REMARK    2  A    between atoms: C_2  and  C_3
REMARK    3  A    between atoms: C_7  and  N_8
REMARK    4  A    between atoms: C_11  and  N_12
REMARK    5  A    between atoms: C_13  and  C_15
REMARK                            x       y       z     vdW  Elec       q    Type
REMARK                         _______ _______ _______ _____ _____    ______ ____
ROOT
ATOM      1  N   UNL     1       2.224   7.992  19.157  0.00  0.00    +0.000 N 
ATOM      2  C   UNL     1       2.043   8.612  17.845  0.00  0.00    +0.000 C 
ATOM      3  C   UNL     1       1.988  10.122  18.046  0.00  0.00    +0.000 C 
ATOM      4  C   UNL     1       0.892  10.522  19.044  0.00  0.00    +0.000 C 
ATOM      5  C   UNL     1       0.993   9.714  20.346  0.00  0.00    +0.000 C 
ATOM      6  C   UNL     1       1.092   8.218  20.075  0.00  0.00    +0.000 C 
ENDROOT
BRANCH   1  11
ATOM      7  C   UNL     1       2.839   4.456  20.199  0.00  0.00    +0.000 A 
ATOM      8  C   UNL     1       3.804   4.099  19.251  0.00  0.00    +0.000 A 
ATOM      9  C   UNL     1       4.184   4.998  18.258  0.00  0.00    +0.000 A 
ATOM     10  C   UNL     1       3.624   6.274  18.228  0.00  0.00    +0.000 A 
ATOM     11  C   UNL     1       2.686   6.675  19.190  0.00  0.00    +0.000 A 
ATOM     12  C   UNL     1       2.283   5.743  20.153  0.00  0.00    +0.000 A 
BRANCH   7  14
ATOM     13  C   UNL     1       1.079   2.859  21.010  0.00  0.00    +0.000 C 
ATOM     14  C   UNL     1       2.432   3.495  21.286  0.00  0.00    +0.000 C 
ENDBRANCH   7  14
ENDBRANCH   1  11
BRANCH   4  15
ATOM     15  N   UNL     1      -0.436  10.430  18.439  0.00  0.00    +0.000 N 
ATOM     16  C   UNL     1      -1.148  11.559  18.097  0.00  0.00    +0.000 C 
ATOM     17  O   UNL     1      -0.700  12.700  18.230  0.00  0.00    +0.000 OA
ATOM     18  H   UNL     1      -0.991   9.583  18.538  0.00  0.00    +0.000 HD
BRANCH  16  19
ATOM     19  C   UNL     1      -2.511  11.279  17.451  0.00  0.00    +0.000 C 
ATOM     20  C   UNL     1      -2.862   9.799  17.516  0.00  0.00    +0.000 C 
ATOM     21  C   UNL     1      -3.604   9.569  16.227  0.00  0.00    +0.000 C 
ATOM     22  C   UNL     1      -2.910  10.527  15.287  0.00  0.00    +0.000 C 
ATOM     23  O   UNL     1      -2.551  11.675  16.069  0.00  0.00    +0.000 OA
ENDBRANCH  16  19
ENDBRANCH   4  15
TORSDOF 4
ENDMDL
