MODEL 1
REMARK VINA RESULT:      -8.6      0.000      0.000
REMARK  Name = 
REMARK  5 active torsions:
REMARK  status: ('A' for Active; 'I' for Inactive)
REMARK    1  A    between atoms: C_2  and  C_4
REMARK    2  A    between atoms: C_7  and  C_8
REMARK    3  A    between atoms: C_8  and  N_9
REMARK    4  A    between atoms: C_12  and  C_13
REMARK    5  A    between atoms: N_20  and  C_21
REMARK                            x       y       z     vdW  Elec       q    Type
REMARK                         _______ _______ _______ _____ _____    ______ ____
ROOT
ATOM      1  C   UNL     1       2.276   6.695  19.166  0.00  0.00    +0.000 A 
ATOM      2  C   UNL     1       2.017   5.782  20.221  0.00  0.00    +0.000 A 
ATOM      3  C   UNL     1       2.442   4.453  20.127  0.00  0.00    +0.000 A 
ATOM      4  C   UNL     1       3.059   4.086  18.945  0.00  0.00    +0.000 A 
ATOM      5  C   UNL     1       3.009   4.879  17.810  0.00  0.00    +0.000 A 
ATOM      6  C   UNL     1       2.574   6.192  17.894  0.00  0.00    +0.000 A 
ATOM      7  C   UNL     1       3.867   4.346  16.682  0.00  0.00    +0.000 C 
ATOM      8  N   UNL     1       4.885   3.860  17.621  0.00  0.00    +0.000 N 
ATOM      9  C   UNL     1       4.369   3.417  18.831  0.00  0.00    +0.000 C 
ATOM     10  O   UNL     1       4.970   2.873  19.739  0.00  0.00    +0.000 OA
ENDROOT
BRANCH   8  11
ATOM     11  C   UNL     1       6.288   4.156  17.289  0.00  0.00    +0.000 C 
ATOM     12  C   UNL     1       7.055   4.789  18.435  0.00  0.00    +0.000 C 
ATOM     13  C   UNL     1       6.686   6.258  18.580  0.00  0.00    +0.000 C 
ATOM     14  C   UNL     1       6.580   7.015  17.257  0.00  0.00    +0.000 C 
ATOM     15  O   UNL     1       6.819   8.218  17.199  0.00  0.00    +0.000 OA
ATOM     16  N   UNL     1       6.130   6.316  16.163  0.00  0.00    +0.000 N 
ATOM     17  C   UNL     1       6.612   5.033  16.067  0.00  0.00    +0.000 C 
ATOM     18  O   UNL     1       7.489   4.717  15.261  0.00  0.00    +0.000 OA
ATOM     19  H   UNL     1       5.118   6.265  16.292  0.00  0.00    +0.000 HD
ENDBRANCH   8  11
BRANCH   1  23
ATOM     20  N   UNL     1       0.176   9.806  18.396  0.00  0.00    +0.000 NA
ATOM     21  C   UNL     1       0.093   9.178  19.723  0.00  0.00    +0.000 C 
ATOM     22  C   UNL     1       1.451   8.873  20.401  0.00  0.00    +0.000 C 
ATOM     23  C   UNL     1       2.497   8.179  19.500  0.00  0.00    +0.000 C 
ATOM     24  C   UNL     1       2.559   9.022  18.206  0.00  0.00    +0.000 C 
ATOM     25  C   UNL     1       1.184   9.156  17.538  0.00  0.00    +0.000 C 
BRANCH  20  26
ATOM     26  C   UNL     1      -1.138   9.730  17.694  0.00  0.00    +0.000 C 
BRANCH  26  30
ATOM     27  C   UNL     1      -4.297  12.152  19.391  0.00  0.00    +0.000 A 
ATOM     28  C   UNL     1      -4.603  11.224  18.385  0.00  0.00    +0.000 A 
ATOM     29  C   UNL     1      -3.583  10.487  17.768  0.00  0.00    +0.000 A 
ATOM     30  C   UNL     1      -2.245  10.675  18.129  0.00  0.00    +0.000 A 
ATOM     31  C   UNL     1      -1.946  11.667  19.084  0.00  0.00    +0.000 A 
ATOM     32  C   UNL     1      -2.960  12.411  19.697  0.00  0.00    +0.000 A 
BRANCH  27  34
ATOM     33  N   UNL     1      -6.039  12.038  21.095  0.00  0.00    +0.000 N 
ATOM     34  C   UNL     1      -5.348  12.820  20.211  0.00  0.00    +0.000 C 
ATOM     35  O   UNL     1      -5.536  14.030  20.167  0.00  0.00    +0.000 OA
ATOM     36  H   UNL     1      -6.600  12.531  21.776  0.00  0.00    +0.000 HD
ATOM     37  H   UNL     1      -5.735  11.104  21.338  0.00  0.00    +0.000 HD
ENDBRANCH  27  34
ENDBRANCH  26  30
ENDBRANCH  20  26
ENDBRANCH   1  23
TORSDOF 5
ENDMDL
MODEL 2
REMARK VINA RESULT:      -8.4      1.014      1.305
REMARK  Name = 
REMARK  5 active torsions:
REMARK  status: ('A' for Active; 'I' for Inactive)
REMARK    1  A    between atoms: C_2  and  C_4
REMARK    2  A    between atoms: C_7  and  C_8
REMARK    3  A    between atoms: C_8  and  N_9
REMARK    4  A    between atoms: C_12  and  C_13
REMARK    5  A    between atoms: N_20  and  C_21
REMARK                            x       y       z     vdW  Elec       q    Type
REMARK                         _______ _______ _______ _____ _____    ______ ____
ROOT
ATOM      1  C   UNL     1       1.842   6.650  19.489  0.00  0.00    +0.000 A 
ATOM      2  C   UNL     1       1.631   5.832  20.629  0.00  0.00    +0.000 A 
ATOM      3  C   UNL     1       1.931   4.466  20.585  0.00  0.00    +0.000 A 
ATOM      4  C   UNL     1       2.374   3.973  19.372  0.00  0.00    +0.000 A 
ATOM      5  C   UNL     1       2.259   4.696  18.195  0.00  0.00    +0.000 A 
ATOM      6  C   UNL     1       1.948   6.045  18.232  0.00  0.00    +0.000 A 
ATOM      7  C   UNL     1       2.935   4.018  17.021  0.00  0.00    +0.000 C 
ATOM      8  N   UNL     1       4.011   3.501  17.875  0.00  0.00    +0.000 N 
ATOM      9  C   UNL     1       3.603   3.182  19.163  0.00  0.00    +0.000 C 
ATOM     10  O   UNL     1       4.257   2.643  20.037  0.00  0.00    +0.000 OA
ENDROOT
BRANCH   8  11
ATOM     11  C   UNL     1       5.386   3.647  17.371  0.00  0.00    +0.000 C 
ATOM     12  C   UNL     1       6.296   4.401  18.322  0.00  0.00    +0.000 C 
ATOM     13  C   UNL     1       6.017   5.896  18.258  0.00  0.00    +0.000 C 
ATOM     14  C   UNL     1       5.815   6.440  16.844  0.00  0.00    +0.000 C 
ATOM     15  O   UNL     1       6.107   7.600  16.569  0.00  0.00    +0.000 OA
ATOM     16  N   UNL     1       5.222   5.608  15.926  0.00  0.00    +0.000 N 
ATOM     17  C   UNL     1       5.627   4.297  15.997  0.00  0.00    +0.000 C 
ATOM     18  O   UNL     1       6.400   3.800  15.176  0.00  0.00    +0.000 OA
ATOM     19  H   UNL     1       4.226   5.644  16.155  0.00  0.00    +0.000 HD
ENDBRANCH   8  11
BRANCH   1  23
ATOM     20  N   UNL     1       0.170   9.884  18.292  0.00  0.00    +0.000 NA
ATOM     21  C   UNL     1      -0.053   9.411  19.666  0.00  0.00    +0.000 C 
ATOM     22  C   UNL     1       1.223   9.025  20.453  0.00  0.00    +0.000 C 
ATOM     23  C   UNL     1       2.222   8.126  19.690  0.00  0.00    +0.000 C 
ATOM     24  C   UNL     1       2.448   8.817  18.327  0.00  0.00    +0.000 C 
ATOM     25  C   UNL     1       1.134   9.037  17.565  0.00  0.00    +0.000 C 
BRANCH  20  26
ATOM     26  C   UNL     1      -1.106   9.886  17.522  0.00  0.00    +0.000 C 
BRANCH  26  30
ATOM     27  C   UNL     1      -4.648  11.981  18.862  0.00  0.00    +0.000 A 
ATOM     28  C   UNL     1      -3.395  12.346  19.374  0.00  0.00    +0.000 A 
ATOM     29  C   UNL     1      -2.246  11.629  19.012  0.00  0.00    +0.000 A 
ATOM     30  C   UNL     1      -2.330  10.528  18.153  0.00  0.00    +0.000 A 
ATOM     31  C   UNL     1      -3.606  10.124  17.711  0.00  0.00    +0.000 A 
ATOM     32  C   UNL     1      -4.756  10.832  18.076  0.00  0.00    +0.000 A 
BRANCH  27  34
ATOM     33  N   UNL     1      -6.069  13.839  18.172  0.00  0.00    +0.000 N 
ATOM     34  C   UNL     1      -5.867  12.816  19.057  0.00  0.00    +0.000 C 
ATOM     35  O   UNL     1      -6.704  12.556  19.914  0.00  0.00    +0.000 OA
ATOM     36  H   UNL     1      -6.985  14.266  18.192  0.00  0.00    +0.000 HD
ATOM     37  H   UNL     1      -5.543  13.917  17.312  0.00  0.00    +0.000 HD
ENDBRANCH  27  34
ENDBRANCH  26  30
ENDBRANCH  20  26
ENDBRANCH   1  23
TORSDOF 5
ENDMDL
MODEL 3
REMARK VINA RESULT:      -8.2      1.446      2.009
REMARK  Name = 
REMARK  5 active torsions:
REMARK  status: ('A' for Active; 'I' for Inactive)
REMARK    1  A    between atoms: C_2  and  C_4
REMARK    2  A    between atoms: C_7  and  C_8
REMARK    3  A    between atoms: C_8  and  N_9
REMARK    4  A    between atoms: C_12  and  C_13
REMARK    5  A    between atoms: N_20  and  C_21
REMARK                            x       y       z     vdW  Elec       q    Type
REMARK                         _______ _______ _______ _____ _____    ______ ____
ROOT
ATOM      1  C   UNL     1       1.542   6.578  20.250  0.00  0.00    +0.000 A 
ATOM      2  C   UNL     1       1.329   5.329  20.888  0.00  0.00    +0.000 A 
ATOM      3  C   UNL     1       1.971   4.177  20.421  0.00  0.00    +0.000 A 
ATOM      4  C   UNL     1       2.756   4.325  19.293  0.00  0.00    +0.000 A 
ATOM      5  C   UNL     1       2.694   5.455  18.494  0.00  0.00    +0.000 A 
ATOM      6  C   UNL     1       2.046   6.594  18.944  0.00  0.00    +0.000 A 
ATOM      7  C   UNL     1       3.738   5.457  17.396  0.00  0.00    +0.000 C 
ATOM      8  N   UNL     1       4.720   4.795  18.262  0.00  0.00    +0.000 N 
ATOM      9  C   UNL     1       4.163   3.898  19.163  0.00  0.00    +0.000 C 
ATOM     10  O   UNL     1       4.748   3.142  19.917  0.00  0.00    +0.000 OA
ENDROOT
BRANCH   8  11
ATOM     11  C   UNL     1       6.083   5.351  18.265  0.00  0.00    +0.000 C 
ATOM     12  C   UNL     1       6.197   6.660  17.504  0.00  0.00    +0.000 C 
ATOM     13  C   UNL     1       6.205   6.408  16.004  0.00  0.00    +0.000 C 
ATOM     14  C   UNL     1       7.068   5.225  15.567  0.00  0.00    +0.000 C 
ATOM     15  O   UNL     1       7.598   5.207  14.460  0.00  0.00    +0.000 OA
ATOM     16  N   UNL     1       7.155   4.156  16.426  0.00  0.00    +0.000 N 
ATOM     17  C   UNL     1       7.255   4.496  17.753  0.00  0.00    +0.000 C 
ATOM     18  O   UNL     1       8.316   4.419  18.375  0.00  0.00    +0.000 OA
ATOM     19  H   UNL     1       6.276   3.651  16.294  0.00  0.00    +0.000 HD
ENDBRANCH   8  11
BRANCH   1  23
ATOM     20  N   UNL     1      -0.032   9.999  19.540  0.00  0.00    +0.000 NA
ATOM     21  C   UNL     1      -0.746   9.025  20.378  0.00  0.00    +0.000 C 
ATOM     22  C   UNL     1       0.090   8.382  21.511  0.00  0.00    +0.000 C 
ATOM     23  C   UNL     1       1.484   7.864  21.090  0.00  0.00    +0.000 C 
ATOM     24  C   UNL     1       2.152   9.035  20.334  0.00  0.00    +0.000 C 
ATOM     25  C   UNL     1       1.305   9.515  19.147  0.00  0.00    +0.000 C 
BRANCH  20  26
ATOM     26  C   UNL     1      -0.798  10.283  18.292  0.00  0.00    +0.000 C 
BRANCH  26  30
ATOM     27  C   UNL     1      -4.912  11.620  18.175  0.00  0.00    +0.000 A 
ATOM     28  C   UNL     1      -4.009  12.242  19.048  0.00  0.00    +0.000 A 
ATOM     29  C   UNL     1      -2.693  11.773  19.158  0.00  0.00    +0.000 A 
ATOM     30  C   UNL     1      -2.262  10.667  18.416  0.00  0.00    +0.000 A 
ATOM     31  C   UNL     1      -3.203  10.004  17.603  0.00  0.00    +0.000 A 
ATOM     32  C   UNL     1      -4.520  10.464  17.496  0.00  0.00    +0.000 A 
BRANCH  27  34
ATOM     33  N   UNL     1      -7.250  11.951  18.784  0.00  0.00    +0.000 N 
ATOM     34  C   UNL     1      -6.257  12.189  17.874  0.00  0.00    +0.000 C 
ATOM     35  O   UNL     1      -6.456  12.911  16.905  0.00  0.00    +0.000 OA
ATOM     36  H   UNL     1      -8.092  12.500  18.672  0.00  0.00    +0.000 HD
ATOM     37  H   UNL     1      -7.057  11.586  19.707  0.00  0.00    +0.000 HD
ENDBRANCH  27  34
ENDBRANCH  26  30
ENDBRANCH  20  26
ENDBRANCH   1  23
TORSDOF 5
ENDMDL
MODEL 4
REMARK VINA RESULT:      -8.1      2.881      9.911
REMARK  Name = 
REMARK  5 active torsions:
REMARK  status: ('A' for Active; 'I' for Inactive)
REMARK    1  A    between atoms: C_2  and  C_4
REMARK    2  A    between atoms: C_7  and  C_8
REMARK    3  A    between atoms: C_8  and  N_9
REMARK    4  A    between atoms: C_12  and  C_13
REMARK    5  A    between atoms: N_20  and  C_21
REMARK                            x       y       z     vdW  Elec       q    Type
REMARK                         _______ _______ _______ _____ _____    ______ ____
ROOT
ATOM      1  C   UNL     1      -0.521  11.248  22.300  0.00  0.00    +0.000 A 
ATOM      2  C   UNL     1      -1.124  12.348  22.962  0.00  0.00    +0.000 A 
ATOM      3  C   UNL     1      -1.909  13.260  22.249  0.00  0.00    +0.000 A 
ATOM      4  C   UNL     1      -2.002  13.056  20.884  0.00  0.00    +0.000 A 
ATOM      5  C   UNL     1      -1.154  12.193  20.208  0.00  0.00    +0.000 A 
ATOM      6  C   UNL     1      -0.364  11.298  20.910  0.00  0.00    +0.000 A 
ATOM      7  C   UNL     1      -1.529  12.024  18.751  0.00  0.00    +0.000 C 
ATOM      8  N   UNL     1      -2.962  12.118  19.057  0.00  0.00    +0.000 N 
ATOM      9  C   UNL     1      -3.257  12.970  20.112  0.00  0.00    +0.000 C 
ATOM     10  O   UNL     1      -4.357  13.311  20.505  0.00  0.00    +0.000 OA
ENDROOT
BRANCH   8  11
ATOM     11  C   UNL     1      -3.841  11.123  18.423  0.00  0.00    +0.000 C 
ATOM     12  C   UNL     1      -3.111   9.862  17.999  0.00  0.00    +0.000 C 
ATOM     13  C   UNL     1      -2.318  10.105  16.723  0.00  0.00    +0.000 C 
ATOM     14  C   UNL     1      -3.062  10.918  15.665  0.00  0.00    +0.000 C 
ATOM     15  O   UNL     1      -2.828  10.759  14.470  0.00  0.00    +0.000 OA
ATOM     16  N   UNL     1      -3.933  11.884  16.106  0.00  0.00    +0.000 N 
ATOM     17  C   UNL     1      -4.682  11.521  17.198  0.00  0.00    +0.000 C 
ATOM     18  O   UNL     1      -5.874  11.219  17.109  0.00  0.00    +0.000 OA
ATOM     19  H   UNL     1      -3.332  12.664  16.380  0.00  0.00    +0.000 HD
ENDBRANCH   8  11
BRANCH   1  23
ATOM     20  N   UNL     1       1.227   7.982  21.320  0.00  0.00    +0.000 NA
ATOM     21  C   UNL     1       1.932   8.967  22.153  0.00  0.00    +0.000 C 
ATOM     22  C   UNL     1       1.138   9.500  23.370  0.00  0.00    +0.000 C 
ATOM     23  C   UNL     1      -0.315   9.934  23.071  0.00  0.00    +0.000 C 
ATOM     24  C   UNL     1      -0.955   8.752  22.307  0.00  0.00    +0.000 C 
ATOM     25  C   UNL     1      -0.165   8.385  21.044  0.00  0.00    +0.000 C 
BRANCH  20  26
ATOM     26  C   UNL     1       1.919   7.807  20.010  0.00  0.00    +0.000 C 
BRANCH  26  30
ATOM     27  C   UNL     1       2.892   3.838  18.586  0.00  0.00    +0.000 A 
ATOM     28  C   UNL     1       2.334   3.996  19.862  0.00  0.00    +0.000 A 
ATOM     29  C   UNL     1       2.085   5.277  20.373  0.00  0.00    +0.000 A 
ATOM     30  C   UNL     1       2.404   6.419  19.629  0.00  0.00    +0.000 A 
ATOM     31  C   UNL     1       3.037   6.246  18.382  0.00  0.00    +0.000 A 
ATOM     32  C   UNL     1       3.295   4.969  17.872  0.00  0.00    +0.000 A 
BRANCH  27  34
ATOM     33  N   UNL     1       4.158   1.809  18.112  0.00  0.00    +0.000 N 
ATOM     34  C   UNL     1       3.001   2.510  17.917  0.00  0.00    +0.000 C 
ATOM     35  O   UNL     1       2.069   2.019  17.290  0.00  0.00    +0.000 OA
ATOM     36  H   UNL     1       4.140   0.839  17.824  0.00  0.00    +0.000 HD
ATOM     37  H   UNL     1       4.829   2.065  18.824  0.00  0.00    +0.000 HD
ENDBRANCH  27  34
ENDBRANCH  26  30
ENDBRANCH  20  26
ENDBRANCH   1  23
TORSDOF 5
ENDMDL
MODEL 5
REMARK VINA RESULT:      -8.1      1.431      2.014
REMARK  Name = 
REMARK  5 active torsions:
REMARK  status: ('A' for Active; 'I' for Inactive)
REMARK    1  A    between atoms: C_2  and  C_4
REMARK    2  A    between atoms: C_7  and  C_8
REMARK    3  A    between atoms: C_8  and  N_9
REMARK    4  A    between atoms: C_12  and  C_13
REMARK    5  A    between atoms: N_20  and  C_21
REMARK                            x       y       z     vdW  Elec       q    Type
REMARK                         _______ _______ _______ _____ _____    ______ ____
ROOT
ATOM      1  C   UNL     1       1.858   7.359  19.605  0.00  0.00    +0.000 A 
ATOM      2  C   UNL     1       1.764   6.433  20.676  0.00  0.00    +0.000 A 
ATOM      3  C   UNL     1       2.327   5.158  20.561  0.00  0.00    +0.000 A 
ATOM      4  C   UNL     1       2.909   4.850  19.345  0.00  0.00    +0.000 A 
ATOM      5  C   UNL     1       2.704   5.622  18.213  0.00  0.00    +0.000 A 
ATOM      6  C   UNL     1       2.134   6.880  18.319  0.00  0.00    +0.000 A 
ATOM      7  C   UNL     1       3.548   5.175  17.037  0.00  0.00    +0.000 C 
ATOM      8  N   UNL     1       4.667   4.813  17.915  0.00  0.00    +0.000 N 
ATOM      9  C   UNL     1       4.276   4.328  19.155  0.00  0.00    +0.000 C 
ATOM     10  O   UNL     1       4.986   3.861  20.027  0.00  0.00    +0.000 OA
ENDROOT
BRANCH   8  11
ATOM     11  C   UNL     1       6.007   5.258  17.497  0.00  0.00    +0.000 C 
ATOM     12  C   UNL     1       5.974   6.352  16.446  0.00  0.00    +0.000 C 
ATOM     13  C   UNL     1       5.643   5.771  15.079  0.00  0.00    +0.000 C 
ATOM     14  C   UNL     1       6.363   4.462  14.759  0.00  0.00    +0.000 C 
ATOM     15  O   UNL     1       6.632   4.160  13.600  0.00  0.00    +0.000 OA
ATOM     16  N   UNL     1       6.618   3.609  15.804  0.00  0.00    +0.000 N 
ATOM     17  C   UNL     1       7.018   4.229  16.963  0.00  0.00    +0.000 C 
ATOM     18  O   UNL     1       8.190   4.218  17.346  0.00  0.00    +0.000 OA
ATOM     19  H   UNL     1       5.722   3.150  15.984  0.00  0.00    +0.000 HD
ENDBRANCH   8  11
BRANCH   1  23
ATOM     20  N   UNL     1      -0.422  10.275  18.614  0.00  0.00    +0.000 NA
ATOM     21  C   UNL     1      -0.552   9.664  19.945  0.00  0.00    +0.000 C 
ATOM     22  C   UNL     1       0.771   9.483  20.727  0.00  0.00    +0.000 C 
ATOM     23  C   UNL     1       1.934   8.862  19.921  0.00  0.00    +0.000 C 
ATOM     24  C   UNL     1       2.024   9.685  18.616  0.00  0.00    +0.000 C 
ATOM     25  C   UNL     1       0.696   9.695  17.847  0.00  0.00    +0.000 C 
BRANCH  20  26
ATOM     26  C   UNL     1      -1.669  10.081  17.820  0.00  0.00    +0.000 C 
BRANCH  26  30
ATOM     27  C   UNL     1      -5.265  12.313  18.721  0.00  0.00    +0.000 A 
ATOM     28  C   UNL     1      -4.086  12.591  19.426  0.00  0.00    +0.000 A 
ATOM     29  C   UNL     1      -2.932  11.826  19.205  0.00  0.00    +0.000 A 
ATOM     30  C   UNL     1      -2.940  10.765  18.294  0.00  0.00    +0.000 A 
ATOM     31  C   UNL     1      -4.154  10.447  17.652  0.00  0.00    +0.000 A 
ATOM     32  C   UNL     1      -5.310  11.203  17.875  0.00  0.00    +0.000 A 
BRANCH  27  34
ATOM     33  N   UNL     1      -7.564  12.807  18.074  0.00  0.00    +0.000 N 
ATOM     34  C   UNL     1      -6.458  13.206  18.772  0.00  0.00    +0.000 C 
ATOM     35  O   UNL     1      -6.490  14.210  19.473  0.00  0.00    +0.000 OA
ATOM     36  H   UNL     1      -8.418  13.309  18.275  0.00  0.00    +0.000 HD
ATOM     37  H   UNL     1      -7.658  11.870  17.704  0.00  0.00    +0.000 HD
ENDBRANCH  27  34
ENDBRANCH  26  30
ENDBRANCH  20  26
ENDBRANCH   1  23
TORSDOF 5
ENDMDL
MODEL 6
REMARK VINA RESULT:      -8.1      3.631     10.821
REMARK  Name = 
REMARK  5 active torsions:
REMARK  status: ('A' for Active; 'I' for Inactive)
REMARK    1  A    between atoms: C_2  and  C_4
REMARK    2  A    between atoms: C_7  and  C_8
REMARK    3  A    between atoms: C_8  and  N_9
REMARK    4  A    between atoms: C_12  and  C_13
REMARK    5  A    between atoms: N_20  and  C_21
REMARK                            x       y       z     vdW  Elec       q    Type
REMARK                         _______ _______ _______ _____ _____    ______ ____
ROOT
ATOM      1  C   UNL     1       0.012  11.552  20.260  0.00  0.00    +0.000 A 
ATOM      2  C   UNL     1      -0.306  10.381  20.996  0.00  0.00    +0.000 A 
ATOM      3  C   UNL     1      -0.861  10.478  22.276  0.00  0.00    +0.000 A 
ATOM      4  C   UNL     1      -1.017  11.755  22.784  0.00  0.00    +0.000 A 
ATOM      5  C   UNL     1      -0.406  12.857  22.208  0.00  0.00    +0.000 A 
ATOM      6  C   UNL     1       0.159  12.763  20.947  0.00  0.00    +0.000 A 
ATOM      7  C   UNL     1      -0.828  14.163  22.847  0.00  0.00    +0.000 C 
ATOM      8  N   UNL     1      -2.194  13.672  23.066  0.00  0.00    +0.000 N 
ATOM      9  C   UNL     1      -2.266  12.313  23.337  0.00  0.00    +0.000 C 
ATOM     10  O   UNL     1      -3.250  11.671  23.657  0.00  0.00    +0.000 OA
ENDROOT
BRANCH   8  11
ATOM     11  C   UNL     1      -3.292  14.582  22.703  0.00  0.00    +0.000 C 
ATOM     12  C   UNL     1      -2.817  15.976  22.333  0.00  0.00    +0.000 C 
ATOM     13  C   UNL     1      -2.453  16.767  23.581  0.00  0.00    +0.000 C 
ATOM     14  C   UNL     1      -3.439  16.606  24.738  0.00  0.00    +0.000 C 
ATOM     15  O   UNL     1      -3.605  17.510  25.553  0.00  0.00    +0.000 OA
ATOM     16  N   UNL     1      -4.061  15.390  24.875  0.00  0.00    +0.000 N 
ATOM     17  C   UNL     1      -4.449  14.811  23.691  0.00  0.00    +0.000 C 
ATOM     18  O   UNL     1      -5.625  14.789  23.322  0.00  0.00    +0.000 OA
ATOM     19  H   UNL     1      -3.355  14.788  25.304  0.00  0.00    +0.000 HD
ENDBRANCH   8  11
BRANCH   1  23
ATOM     20  N   UNL     1       1.868   9.459  17.641  0.00  0.00    +0.000 NA
ATOM     21  C   UNL     1       0.518   9.065  18.069  0.00  0.00    +0.000 C 
ATOM     22  C   UNL     1      -0.538  10.197  18.066  0.00  0.00    +0.000 C 
ATOM     23  C   UNL     1      -0.089  11.520  18.727  0.00  0.00    +0.000 C 
ATOM     24  C   UNL     1       1.276  11.864  18.087  0.00  0.00    +0.000 C 
ATOM     25  C   UNL     1       2.295  10.729  18.258  0.00  0.00    +0.000 C 
BRANCH  20  26
ATOM     26  C   UNL     1       2.865   8.414  18.013  0.00  0.00    +0.000 C 
BRANCH  26  30
ATOM     27  C   UNL     1       1.909   4.638  19.899  0.00  0.00    +0.000 A 
ATOM     28  C   UNL     1       2.054   4.697  18.506  0.00  0.00    +0.000 A 
ATOM     29  C   UNL     1       2.285   5.924  17.869  0.00  0.00    +0.000 A 
ATOM     30  C   UNL     1       2.358   7.111  18.606  0.00  0.00    +0.000 A 
ATOM     31  C   UNL     1       2.131   7.047  19.995  0.00  0.00    +0.000 A 
ATOM     32  C   UNL     1       1.891   5.825  20.634  0.00  0.00    +0.000 A 
BRANCH  27  34
ATOM     33  N   UNL     1       2.146   3.389  21.980  0.00  0.00    +0.000 N 
ATOM     34  C   UNL     1       1.853   3.349  20.645  0.00  0.00    +0.000 C 
ATOM     35  O   UNL     1       1.480   2.308  20.118  0.00  0.00    +0.000 OA
ATOM     36  H   UNL     1       1.914   2.559  22.508  0.00  0.00    +0.000 HD
ATOM     37  H   UNL     1       2.203   4.260  22.492  0.00  0.00    +0.000 HD
ENDBRANCH  27  34
ENDBRANCH  26  30
ENDBRANCH  20  26
ENDBRANCH   1  23
TORSDOF 5
ENDMDL
MODEL 7
REMARK VINA RESULT:      -8.0      3.627      6.200
REMARK  Name = 
REMARK  5 active torsions:
REMARK  status: ('A' for Active; 'I' for Inactive)
REMARK    1  A    between atoms: C_2  and  C_4
REMARK    2  A    between atoms: C_7  and  C_8
REMARK    3  A    between atoms: C_8  and  N_9
REMARK    4  A    between atoms: C_12  and  C_13
REMARK    5  A    between atoms: N_20  and  C_21
REMARK                            x       y       z     vdW  Elec       q    Type
REMARK                         _______ _______ _______ _____ _____    ______ ____
ROOT
ATOM      1  C   UNL     1       0.487   9.516  19.454  0.00  0.00    +0.000 A 
ATOM      2  C   UNL     1       1.178   9.709  18.230  0.00  0.00    +0.000 A 
ATOM      3  C   UNL     1       2.189   8.824  17.841  0.00  0.00    +0.000 A 
ATOM      4  C   UNL     1       2.500   7.815  18.733  0.00  0.00    +0.000 A 
ATOM      5  C   UNL     1       2.062   7.831  20.048  0.00  0.00    +0.000 A 
ATOM      6  C   UNL     1       1.072   8.716  20.443  0.00  0.00    +0.000 A 
ATOM      7  C   UNL     1       2.406   6.561  20.797  0.00  0.00    +0.000 C 
ATOM      8  N   UNL     1       2.205   5.740  19.598  0.00  0.00    +0.000 N 
ATOM      9  C   UNL     1       2.558   6.375  18.415  0.00  0.00    +0.000 C 
ATOM     10  O   UNL     1       2.592   5.895  17.297  0.00  0.00    +0.000 OA
ENDROOT
BRANCH   8  11
ATOM     11  C   UNL     1       1.420   4.505  19.764  0.00  0.00    +0.000 C 
ATOM     12  C   UNL     1       1.849   3.679  20.963  0.00  0.00    +0.000 C 
ATOM     13  C   UNL     1       3.137   2.927  20.661  0.00  0.00    +0.000 C 
ATOM     14  C   UNL     1       3.185   2.291  19.272  0.00  0.00    +0.000 C 
ATOM     15  O   UNL     1       3.839   1.272  19.069  0.00  0.00    +0.000 OA
ATOM     16  N   UNL     1       2.540   2.949  18.253  0.00  0.00    +0.000 N 
ATOM     17  C   UNL     1       1.331   3.499  18.604  0.00  0.00    +0.000 C 
ATOM     18  O   UNL     1       0.256   2.998  18.267  0.00  0.00    +0.000 OA
ATOM     19  H   UNL     1       3.172   3.711  18.000  0.00  0.00    +0.000 HD
ENDBRANCH   8  11
BRANCH   1  23
ATOM     20  N   UNL     1      -1.174  12.952  19.115  0.00  0.00    +0.000 NA
ATOM     21  C   UNL     1      -1.182  12.021  17.977  0.00  0.00    +0.000 C 
ATOM     22  C   UNL     1      -1.635  10.577  18.303  0.00  0.00    +0.000 C 
ATOM     23  C   UNL     1      -0.985   9.948  19.557  0.00  0.00    +0.000 C 
ATOM     24  C   UNL     1      -1.166  10.987  20.686  0.00  0.00    +0.000 C 
ATOM     25  C   UNL     1      -0.568  12.351  20.318  0.00  0.00    +0.000 C 
BRANCH  20  26
ATOM     26  C   UNL     1      -0.402  14.184  18.782  0.00  0.00    +0.000 C 
BRANCH  26  30
ATOM     27  C   UNL     1       3.910  14.526  18.907  0.00  0.00    +0.000 A 
ATOM     28  C   UNL     1       3.321  13.517  18.135  0.00  0.00    +0.000 A 
ATOM     29  C   UNL     1       1.930  13.339  18.143  0.00  0.00    +0.000 A 
ATOM     30  C   UNL     1       1.110  14.151  18.933  0.00  0.00    +0.000 A 
ATOM     31  C   UNL     1       1.723  15.109  19.765  0.00  0.00    +0.000 A 
ATOM     32  C   UNL     1       3.112  15.284  19.766  0.00  0.00    +0.000 A 
BRANCH  27  34
ATOM     33  N   UNL     1       5.956  15.404  19.904  0.00  0.00    +0.000 N 
ATOM     34  C   UNL     1       5.353  14.884  18.792  0.00  0.00    +0.000 C 
ATOM     35  O   UNL     1       6.003  14.648  17.780  0.00  0.00    +0.000 OA
ATOM     36  H   UNL     1       6.966  15.454  19.875  0.00  0.00    +0.000 HD
ATOM     37  H   UNL     1       5.522  15.369  20.817  0.00  0.00    +0.000 HD
ENDBRANCH  27  34
ENDBRANCH  26  30
ENDBRANCH  20  26
ENDBRANCH   1  23
TORSDOF 5
ENDMDL
MODEL 8
REMARK VINA RESULT:      -7.9      2.894     10.015
REMARK  Name = 
REMARK  5 active torsions:
REMARK  status: ('A' for Active; 'I' for Inactive)
REMARK    1  A    between atoms: C_2  and  C_4
REMARK    2  A    between atoms: C_7  and  C_8
REMARK    3  A    between atoms: C_8  and  N_9
REMARK    4  A    between atoms: C_12  and  C_13
REMARK    5  A    between atoms: N_20  and  C_21
REMARK                            x       y       z     vdW  Elec       q    Type
REMARK                         _______ _______ _______ _____ _____    ______ ____
ROOT
ATOM      1  C   UNL     1      -0.356  11.229  22.128  0.00  0.00    +0.000 A 
ATOM      2  C   UNL     1      -0.889  12.399  22.728  0.00  0.00    +0.000 A 
ATOM      3  C   UNL     1      -1.642  13.303  21.970  0.00  0.00    +0.000 A 
ATOM      4  C   UNL     1      -1.775  13.016  20.624  0.00  0.00    +0.000 A 
ATOM      5  C   UNL     1      -0.987  12.069  19.990  0.00  0.00    +0.000 A 
ATOM      6  C   UNL     1      -0.227  11.182  20.735  0.00  0.00    +0.000 A 
ATOM      7  C   UNL     1      -1.402  11.826  18.554  0.00  0.00    +0.000 C 
ATOM      8  N   UNL     1      -2.821  12.013  18.881  0.00  0.00    +0.000 N 
ATOM      9  C   UNL     1      -3.050  12.945  19.883  0.00  0.00    +0.000 C 
ATOM     10  O   UNL     1      -4.122  13.367  20.273  0.00  0.00    +0.000 OA
ENDROOT
BRANCH   8  11
ATOM     11  C   UNL     1      -3.763  11.025  18.330  0.00  0.00    +0.000 C 
ATOM     12  C   UNL     1      -3.084   9.759  17.838  0.00  0.00    +0.000 C 
ATOM     13  C   UNL     1      -2.411  10.000  16.495  0.00  0.00    +0.000 C 
ATOM     14  C   UNL     1      -3.244  10.820  15.510  0.00  0.00    +0.000 C 
ATOM     15  O   UNL     1      -3.123  10.662  14.299  0.00  0.00    +0.000 OA
ATOM     16  N   UNL     1      -4.064  11.792  16.032  0.00  0.00    +0.000 N 
ATOM     17  C   UNL     1      -4.711  11.432  17.189  0.00  0.00    +0.000 C 
ATOM     18  O   UNL     1      -5.908  11.139  17.210  0.00  0.00    +0.000 OA
ATOM     19  H   UNL     1      -3.434  12.567  16.250  0.00  0.00    +0.000 HD
ENDBRANCH   8  11
BRANCH   1  23
ATOM     20  N   UNL     1       1.144   7.799  21.309  0.00  0.00    +0.000 NA
ATOM     21  C   UNL     1       1.943   8.790  22.045  0.00  0.00    +0.000 C 
ATOM     22  C   UNL     1       1.235   9.452  23.251  0.00  0.00    +0.000 C 
ATOM     23  C   UNL     1      -0.199   9.958  22.979  0.00  0.00    +0.000 C 
ATOM     24  C   UNL     1      -0.942   8.773  22.323  0.00  0.00    +0.000 C 
ATOM     25  C   UNL     1      -0.230   8.272  21.059  0.00  0.00    +0.000 C 
BRANCH  20  26
ATOM     26  C   UNL     1       1.767   7.494  19.989  0.00  0.00    +0.000 C 
BRANCH  26  30
ATOM     27  C   UNL     1       3.321   3.519  19.273  0.00  0.00    +0.000 A 
ATOM     28  C   UNL     1       3.029   4.352  18.185  0.00  0.00    +0.000 A 
ATOM     29  C   UNL     1       2.452   5.612  18.392  0.00  0.00    +0.000 A 
ATOM     30  C   UNL     1       2.141   6.053  19.683  0.00  0.00    +0.000 A 
ATOM     31  C   UNL     1       2.366   5.173  20.760  0.00  0.00    +0.000 A 
ATOM     32  C   UNL     1       2.935   3.911  20.556  0.00  0.00    +0.000 A 
BRANCH  27  34
ATOM     33  N   UNL     1       4.126   1.676  17.893  0.00  0.00    +0.000 N 
ATOM     34  C   UNL     1       4.105   2.259  19.130  0.00  0.00    +0.000 C 
ATOM     35  O   UNL     1       4.775   1.801  20.048  0.00  0.00    +0.000 OA
ATOM     36  H   UNL     1       4.812   0.945  17.761  0.00  0.00    +0.000 HD
ATOM     37  H   UNL     1       3.804   2.160  17.065  0.00  0.00    +0.000 HD
ENDBRANCH  27  34
ENDBRANCH  26  30
ENDBRANCH  20  26
ENDBRANCH   1  23
TORSDOF 5
ENDMDL
MODEL 9
REMARK VINA RESULT:      -7.9      2.810     11.264
REMARK  Name = 
REMARK  5 active torsions:
REMARK  status: ('A' for Active; 'I' for Inactive)
REMARK    1  A    between atoms: C_2  and  C_4
REMARK    2  A    between atoms: C_7  and  C_8
REMARK    3  A    between atoms: C_8  and  N_9
REMARK    4  A    between atoms: C_12  and  C_13
REMARK    5  A    between atoms: N_20  and  C_21
REMARK                            x       y       z     vdW  Elec       q    Type
REMARK                         _______ _______ _______ _____ _____    ______ ____
ROOT
ATOM      1  C   UNL     1      -1.458  13.101  20.642  0.00  0.00    +0.000 A 
ATOM      2  C   UNL     1      -1.196  12.291  21.777  0.00  0.00    +0.000 A 
ATOM      3  C   UNL     1      -1.998  12.391  22.918  0.00  0.00    +0.000 A 
ATOM      4  C   UNL     1      -2.995  13.348  22.888  0.00  0.00    +0.000 A 
ATOM      5  C   UNL     1      -3.030  14.345  21.926  0.00  0.00    +0.000 A 
ATOM      6  C   UNL     1      -2.227  14.259  20.801  0.00  0.00    +0.000 A 
ATOM      7  C   UNL     1      -4.283  15.193  22.005  0.00  0.00    +0.000 C 
ATOM      8  N   UNL     1      -5.099  14.039  22.401  0.00  0.00    +0.000 N 
ATOM      9  C   UNL     1      -4.422  13.112  23.182  0.00  0.00    +0.000 C 
ATOM     10  O   UNL     1      -4.880  12.126  23.729  0.00  0.00    +0.000 OA
ENDROOT
BRANCH   8  11
ATOM     11  C   UNL     1      -6.390  13.873  21.713  0.00  0.00    +0.000 C 
ATOM     12  C   UNL     1      -6.707  12.428  21.375  0.00  0.00    +0.000 C 
ATOM     13  C   UNL     1      -5.903  11.972  20.166  0.00  0.00    +0.000 C 
ATOM     14  C   UNL     1      -5.831  12.996  19.034  0.00  0.00    +0.000 C 
ATOM     15  O   UNL     1      -5.713  12.635  17.866  0.00  0.00    +0.000 OA
ATOM     16  N   UNL     1      -5.820  14.324  19.383  0.00  0.00    +0.000 N 
ATOM     17  C   UNL     1      -6.666  14.651  20.415  0.00  0.00    +0.000 C 
ATOM     18  O   UNL     1      -7.732  15.241  20.232  0.00  0.00    +0.000 OA
ATOM     19  H   UNL     1      -4.862  14.499  19.693  0.00  0.00    +0.000 HD
ENDBRANCH   8  11
BRANCH   1  23
ATOM     20  N   UNL     1       0.613  10.079  19.520  0.00  0.00    +0.000 NA
ATOM     21  C   UNL     1      -0.852   9.977  19.586  0.00  0.00    +0.000 C 
ATOM     22  C   UNL     1      -1.630  11.127  18.902  0.00  0.00    +0.000 C 
ATOM     23  C   UNL     1      -1.136  12.552  19.242  0.00  0.00    +0.000 C 
ATOM     24  C   UNL     1       0.390  12.532  19.006  0.00  0.00    +0.000 C 
ATOM     25  C   UNL     1       1.088  11.440  19.829  0.00  0.00    +0.000 C 
BRANCH  20  26
ATOM     26  C   UNL     1       1.251   9.142  20.489  0.00  0.00    +0.000 C 
BRANCH  26  30
ATOM     27  C   UNL     1       2.445   5.391  18.691  0.00  0.00    +0.000 A 
ATOM     28  C   UNL     1       2.011   5.410  20.024  0.00  0.00    +0.000 A 
ATOM     29  C   UNL     1       1.696   6.625  20.649  0.00  0.00    +0.000 A 
ATOM     30  C   UNL     1       1.824   7.837  19.962  0.00  0.00    +0.000 A 
ATOM     31  C   UNL     1       2.337   7.809  18.650  0.00  0.00    +0.000 A 
ATOM     32  C   UNL     1       2.661   6.599  18.026  0.00  0.00    +0.000 A 
BRANCH  27  34
ATOM     33  N   UNL     1       3.805   3.473  18.045  0.00  0.00    +0.000 N 
ATOM     34  C   UNL     1       2.610   4.125  17.921  0.00  0.00    +0.000 C 
ATOM     35  O   UNL     1       1.694   3.636  17.270  0.00  0.00    +0.000 OA
ATOM     36  H   UNL     1       3.832   2.529  17.683  0.00  0.00    +0.000 HD
ATOM     37  H   UNL     1       4.474   3.708  18.766  0.00  0.00    +0.000 HD
ENDBRANCH  27  34
ENDBRANCH  26  30
ENDBRANCH  20  26
ENDBRANCH   1  23
TORSDOF 5
ENDMDL
