MODEL 1
REMARK VINA RESULT:      -7.3      0.000      0.000
REMARK  Name = 
REMARK  8 active torsions:
REMARK  status: ('A' for Active; 'I' for Inactive)
REMARK    1  A    between atoms: N_1  and  S_2
REMARK    2  A    between atoms: S_2  and  C_5
REMARK    3  A    between atoms: C_8  and  N_9
REMARK    4  A    between atoms: N_12  and  C_13
REMARK    5  A    between atoms: C_13  and  C_14
REMARK    6  A    between atoms: N_16  and  C_17
REMARK    7  A    between atoms: C_17  and  C_18
REMARK    8  A    between atoms: C_18  and  O_20
REMARK                            x       y       z     vdW  Elec       q    Type
REMARK                         _______ _______ _______ _____ _____    ______ ____
ROOT
ATOM      1  N   UNL     1       3.591   5.648  17.467  0.00  0.00    +0.000 N 
ATOM      2  C   UNL     1       4.948   5.679  17.205  0.00  0.00    +0.000 C 
ATOM      3  O   UNL     1       5.757   6.469  17.679  0.00  0.00    +0.000 OA
ATOM      4  N   UNL     1       5.379   4.699  16.349  0.00  0.00    +0.000 N 
ATOM      5  H   UNL     1       3.055   4.926  17.015  0.00  0.00    +0.000 HD
ATOM      6  H   UNL     1       4.744   4.155  15.782  0.00  0.00    +0.000 HD
ENDROOT
BRANCH   1  10
ATOM      7  C   UNL     1       1.572   8.195  20.183  0.00  0.00    +0.000 A 
ATOM      8  C   UNL     1       1.862   8.658  18.908  0.00  0.00    +0.000 A 
ATOM      9  C   UNL     1       2.518   7.817  18.008  0.00  0.00    +0.000 A 
ATOM     10  C   UNL     1       2.904   6.515  18.358  0.00  0.00    +0.000 A 
ATOM     11  C   UNL     1       2.600   6.064  19.651  0.00  0.00    +0.000 A 
ATOM     12  C   UNL     1       1.938   6.901  20.565  0.00  0.00    +0.000 A 
BRANCH   7  13
ATOM     13  S   UNL     1       0.703   9.245  21.309  0.00  0.00    +0.000 S 
ATOM     14  O   UNL     1      -0.484   8.558  21.770  0.00  0.00    +0.000 OA
ATOM     15  O   UNL     1       0.667  10.584  20.782  0.00  0.00    +0.000 OA
BRANCH  13  16
ATOM     16  N   UNL     1       1.754   9.309  22.617  0.00  0.00    +0.000 NA
ATOM     17  H   UNL     1       1.225   9.467  23.474  0.00  0.00    +0.000 HD
ATOM     18  H   UNL     1       2.483  10.009  22.454  0.00  0.00    +0.000 HD
ENDBRANCH  13  16
ENDBRANCH   7  13
ENDBRANCH   1  10
BRANCH   4  19
ATOM     19  C   UNL     1       6.793   4.696  15.997  0.00  0.00    +0.000 C 
BRANCH  19  20
ATOM     20  C   UNL     1       7.059   4.699  14.496  0.00  0.00    +0.000 C 
ATOM     21  O   UNL     1       7.799   5.520  13.949  0.00  0.00    +0.000 OA
ATOM     22  N   UNL     1       6.421   3.694  13.808  0.00  0.00    +0.000 N 
ATOM     23  H   UNL     1       5.827   3.024  14.289  0.00  0.00    +0.000 HD
BRANCH  22  24
ATOM     24  C   UNL     1       6.570   3.550  12.371  0.00  0.00    +0.000 C 
BRANCH  24  25
ATOM     25  C   UNL     1       5.428   2.737  11.774  0.00  0.00    +0.000 C 
ATOM     26  O   UNL     1       4.298   3.169  11.593  0.00  0.00    +0.000 OA
BRANCH  25  27
ATOM     27  O   UNL     1       5.781   1.469  11.458  0.00  0.00    +0.000 OA
ATOM     28  H   UNL     1       5.317   1.103  10.679  0.00  0.00    +0.000 HD
ENDBRANCH  25  27
ENDBRANCH  24  25
ENDBRANCH  22  24
ENDBRANCH  19  20
ENDBRANCH   4  19
TORSDOF 8
ENDMDL
MODEL 2
REMARK VINA RESULT:      -7.1      1.115      1.521
REMARK  Name = 
REMARK  8 active torsions:
REMARK  status: ('A' for Active; 'I' for Inactive)
REMARK    1  A    between atoms: N_1  and  S_2
REMARK    2  A    between atoms: S_2  and  C_5
REMARK    3  A    between atoms: C_8  and  N_9
REMARK    4  A    between atoms: N_12  and  C_13
REMARK    5  A    between atoms: C_13  and  C_14
REMARK    6  A    between atoms: N_16  and  C_17
REMARK    7  A    between atoms: C_17  and  C_18
REMARK    8  A    between atoms: C_18  and  O_20
REMARK                            x       y       z     vdW  Elec       q    Type
REMARK                         _______ _______ _______ _____ _____    ______ ____
ROOT
ATOM      1  N   UNL     1       3.198   5.816  17.603  0.00  0.00    +0.000 N 
ATOM      2  C   UNL     1       4.558   5.636  17.429  0.00  0.00    +0.000 C 
ATOM      3  O   UNL     1       5.445   6.362  17.866  0.00  0.00    +0.000 OA
ATOM      4  N   UNL     1       4.890   4.514  16.715  0.00  0.00    +0.000 N 
ATOM      5  H   UNL     1       2.591   5.124  17.199  0.00  0.00    +0.000 HD
ATOM      6  H   UNL     1       4.215   3.997  16.170  0.00  0.00    +0.000 HD
ENDROOT
BRANCH   1  10
ATOM      7  C   UNL     1       1.367   8.969  19.760  0.00  0.00    +0.000 A 
ATOM      8  C   UNL     1       1.740   7.815  20.433  0.00  0.00    +0.000 A 
ATOM      9  C   UNL     1       2.352   6.778  19.727  0.00  0.00    +0.000 A 
ATOM     10  C   UNL     1       2.596   6.865  18.348  0.00  0.00    +0.000 A 
ATOM     11  C   UNL     1       2.213   8.040  17.685  0.00  0.00    +0.000 A 
ATOM     12  C   UNL     1       1.597   9.090  18.386  0.00  0.00    +0.000 A 
BRANCH   7  13
ATOM     13  S   UNL     1       0.630  10.299  20.662  0.00  0.00    +0.000 S 
ATOM     14  O   UNL     1       1.113  10.265  22.024  0.00  0.00    +0.000 OA
ATOM     15  O   UNL     1      -0.770  10.376  20.338  0.00  0.00    +0.000 OA
BRANCH  13  16
ATOM     16  N   UNL     1       1.329  11.645  19.941  0.00  0.00    +0.000 NA
ATOM     17  H   UNL     1       1.091  12.480  20.475  0.00  0.00    +0.000 HD
ATOM     18  H   UNL     1       1.060  11.701  18.955  0.00  0.00    +0.000 HD
ENDBRANCH  13  16
ENDBRANCH   7  13
ENDBRANCH   1  10
BRANCH   4  19
ATOM     19  C   UNL     1       6.306   4.282  16.458  0.00  0.00    +0.000 C 
BRANCH  19  20
ATOM     20  C   UNL     1       6.720   4.508  15.008  0.00  0.00    +0.000 C 
ATOM     21  O   UNL     1       7.464   5.427  14.660  0.00  0.00    +0.000 OA
ATOM     22  N   UNL     1       6.209   3.585  14.125  0.00  0.00    +0.000 N 
ATOM     23  H   UNL     1       5.608   2.831  14.445  0.00  0.00    +0.000 HD
BRANCH  22  24
ATOM     24  C   UNL     1       6.507   3.653  12.707  0.00  0.00    +0.000 C 
BRANCH  24  25
ATOM     25  C   UNL     1       5.506   2.845  11.890  0.00  0.00    +0.000 C 
ATOM     26  O   UNL     1       4.406   3.259  11.548  0.00  0.00    +0.000 OA
BRANCH  25  27
ATOM     27  O   UNL     1       5.948   1.606  11.573  0.00  0.00    +0.000 OA
ATOM     28  H   UNL     1       6.196   1.493  10.634  0.00  0.00    +0.000 HD
ENDBRANCH  25  27
ENDBRANCH  24  25
ENDBRANCH  22  24
ENDBRANCH  19  20
ENDBRANCH   4  19
TORSDOF 8
ENDMDL
MODEL 3
REMARK VINA RESULT:      -7.1      0.863      1.041
REMARK  Name = 
REMARK  8 active torsions:
REMARK  status: ('A' for Active; 'I' for Inactive)
REMARK    1  A    between atoms: N_1  and  S_2
REMARK    2  A    between atoms: S_2  and  C_5
REMARK    3  A    between atoms: C_8  and  N_9
REMARK    4  A    between atoms: N_12  and  C_13
REMARK    5  A    between atoms: C_13  and  C_14
REMARK    6  A    between atoms: N_16  and  C_17
REMARK    7  A    between atoms: C_17  and  C_18
REMARK    8  A    between atoms: C_18  and  O_20
REMARK                            x       y       z     vdW  Elec       q    Type
REMARK                         _______ _______ _______ _____ _____    ______ ____
ROOT
ATOM      1  N   UNL     1       3.387   5.215  17.771  0.00  0.00    +0.000 N 
ATOM      2  C   UNL     1       4.717   5.239  17.396  0.00  0.00    +0.000 C 
ATOM      3  O   UNL     1       5.546   6.081  17.723  0.00  0.00    +0.000 OA
ATOM      4  N   UNL     1       5.098   4.186  16.603  0.00  0.00    +0.000 N 
ATOM      5  H   UNL     1       2.831   4.446  17.436  0.00  0.00    +0.000 HD
ATOM      6  H   UNL     1       4.430   3.582  16.145  0.00  0.00    +0.000 HD
ENDROOT
BRANCH   1  10
ATOM      7  C   UNL     1       1.529   7.976  20.391  0.00  0.00    +0.000 A 
ATOM      8  C   UNL     1       1.963   8.409  19.147  0.00  0.00    +0.000 A 
ATOM      9  C   UNL     1       2.567   7.500  18.278  0.00  0.00    +0.000 A 
ATOM     10  C   UNL     1       2.757   6.155  18.629  0.00  0.00    +0.000 A 
ATOM     11  C   UNL     1       2.310   5.735  19.890  0.00  0.00    +0.000 A 
ATOM     12  C   UNL     1       1.700   6.642  20.773  0.00  0.00    +0.000 A 
BRANCH   7  13
ATOM     13  S   UNL     1       0.726   9.118  21.475  0.00  0.00    +0.000 S 
ATOM     14  O   UNL     1       1.662   9.534  22.495  0.00  0.00    +0.000 OA
ATOM     15  O   UNL     1      -0.593   8.634  21.787  0.00  0.00    +0.000 OA
BRANCH  13  16
ATOM     16  N   UNL     1       0.488  10.447  20.476  0.00  0.00    +0.000 NA
ATOM     17  H   UNL     1       0.117  10.137  19.578  0.00  0.00    +0.000 HD
ATOM     18  H   UNL     1       1.351  10.990  20.394  0.00  0.00    +0.000 HD
ENDBRANCH  13  16
ENDBRANCH   7  13
ENDBRANCH   1  10
BRANCH   4  19
ATOM     19  C   UNL     1       6.478   4.167  16.136  0.00  0.00    +0.000 C 
BRANCH  19  20
ATOM     20  C   UNL     1       6.637   4.480  14.653  0.00  0.00    +0.000 C 
ATOM     21  O   UNL     1       7.027   5.572  14.237  0.00  0.00    +0.000 OA
ATOM     22  N   UNL     1       6.328   3.430  13.820  0.00  0.00    +0.000 N 
ATOM     23  H   UNL     1       6.020   2.536  14.194  0.00  0.00    +0.000 HD
BRANCH  22  24
ATOM     24  C   UNL     1       6.428   3.557  12.378  0.00  0.00    +0.000 C 
BRANCH  24  25
ATOM     25  C   UNL     1       5.373   2.714  11.671  0.00  0.00    +0.000 C 
ATOM     26  O   UNL     1       4.303   3.150  11.267  0.00  0.00    +0.000 OA
BRANCH  25  27
ATOM     27  O   UNL     1       5.728   1.416  11.531  0.00  0.00    +0.000 OA
ATOM     28  H   UNL     1       6.693   1.262  11.500  0.00  0.00    +0.000 HD
ENDBRANCH  25  27
ENDBRANCH  24  25
ENDBRANCH  22  24
ENDBRANCH  19  20
ENDBRANCH   4  19
TORSDOF 8
ENDMDL
MODEL 4
REMARK VINA RESULT:      -6.8      1.396      1.630
REMARK  Name = 
REMARK  8 active torsions:
REMARK  status: ('A' for Active; 'I' for Inactive)
REMARK    1  A    between atoms: N_1  and  S_2
REMARK    2  A    between atoms: S_2  and  C_5
REMARK    3  A    between atoms: C_8  and  N_9
REMARK    4  A    between atoms: N_12  and  C_13
REMARK    5  A    between atoms: C_13  and  C_14
REMARK    6  A    between atoms: N_16  and  C_17
REMARK    7  A    between atoms: C_17  and  C_18
REMARK    8  A    between atoms: C_18  and  O_20
REMARK                            x       y       z     vdW  Elec       q    Type
REMARK                         _______ _______ _______ _____ _____    ______ ____
ROOT
ATOM      1  N   UNL     1       3.503   5.783  17.791  0.00  0.00    +0.000 N 
ATOM      2  C   UNL     1       4.849   5.725  17.481  0.00  0.00    +0.000 C 
ATOM      3  O   UNL     1       5.641   6.660  17.521  0.00  0.00    +0.000 OA
ATOM      4  N   UNL     1       5.291   4.477  17.123  0.00  0.00    +0.000 N 
ATOM      5  H   UNL     1       2.982   4.925  17.728  0.00  0.00    +0.000 HD
ATOM      6  H   UNL     1       4.660   3.726  16.881  0.00  0.00    +0.000 HD
ENDROOT
BRANCH   1  10
ATOM      7  C   UNL     1       1.461   9.215  19.206  0.00  0.00    +0.000 A 
ATOM      8  C   UNL     1       1.906   9.184  17.893  0.00  0.00    +0.000 A 
ATOM      9  C   UNL     1       2.570   8.051  17.421  0.00  0.00    +0.000 A 
ATOM     10  C   UNL     1       2.812   6.939  18.241  0.00  0.00    +0.000 A 
ATOM     11  C   UNL     1       2.353   6.988  19.566  0.00  0.00    +0.000 A 
ATOM     12  C   UNL     1       1.682   8.123  20.051  0.00  0.00    +0.000 A 
BRANCH   7  13
ATOM     13  S   UNL     1       0.582  10.632  19.791  0.00  0.00    +0.000 S 
ATOM     14  O   UNL     1       1.536  11.642  20.193  0.00  0.00    +0.000 OA
ATOM     15  O   UNL     1      -0.499  10.206  20.641  0.00  0.00    +0.000 OA
BRANCH  13  16
ATOM     16  N   UNL     1      -0.150  11.198  18.389  0.00  0.00    +0.000 NA
ATOM     17  H   UNL     1      -0.751  11.990  18.614  0.00  0.00    +0.000 HD
ATOM     18  H   UNL     1      -0.639  10.437  17.912  0.00  0.00    +0.000 HD
ENDBRANCH  13  16
ENDBRANCH   7  13
ENDBRANCH   1  10
BRANCH   4  19
ATOM     19  C   UNL     1       6.692   4.350  16.743  0.00  0.00    +0.000 C 
BRANCH  19  20
ATOM     20  C   UNL     1       6.967   4.647  15.273  0.00  0.00    +0.000 C 
ATOM     21  O   UNL     1       7.710   5.558  14.903  0.00  0.00    +0.000 OA
ATOM     22  N   UNL     1       6.332   3.798  14.398  0.00  0.00    +0.000 N 
ATOM     23  H   UNL     1       5.734   3.048  14.735  0.00  0.00    +0.000 HD
BRANCH  22  24
ATOM     24  C   UNL     1       6.488   3.939  12.962  0.00  0.00    +0.000 C 
BRANCH  24  25
ATOM     25  C   UNL     1       5.533   3.023  12.206  0.00  0.00    +0.000 C 
ATOM     26  O   UNL     1       4.401   3.341  11.867  0.00  0.00    +0.000 OA
BRANCH  25  27
ATOM     27  O   UNL     1       6.057   1.804  11.941  0.00  0.00    +0.000 OA
ATOM     28  H   UNL     1       7.010   1.812  11.725  0.00  0.00    +0.000 HD
ENDBRANCH  25  27
ENDBRANCH  24  25
ENDBRANCH  22  24
ENDBRANCH  19  20
ENDBRANCH   4  19
TORSDOF 8
ENDMDL
MODEL 5
REMARK VINA RESULT:      -6.7      1.031      1.560
REMARK  Name = 
REMARK  8 active torsions:
REMARK  status: ('A' for Active; 'I' for Inactive)
REMARK    1  A    between atoms: N_1  and  S_2
REMARK    2  A    between atoms: S_2  and  C_5
REMARK    3  A    between atoms: C_8  and  N_9
REMARK    4  A    between atoms: N_12  and  C_13
REMARK    5  A    between atoms: C_13  and  C_14
REMARK    6  A    between atoms: N_16  and  C_17
REMARK    7  A    between atoms: C_17  and  C_18
REMARK    8  A    between atoms: C_18  and  O_20
REMARK                            x       y       z     vdW  Elec       q    Type
REMARK                         _______ _______ _______ _____ _____    ______ ____
ROOT
ATOM      1  N   UNL     1       3.326   4.872  18.110  0.00  0.00    +0.000 N 
ATOM      2  C   UNL     1       4.615   4.948  17.618  0.00  0.00    +0.000 C 
ATOM      3  O   UNL     1       5.409   5.863  17.809  0.00  0.00    +0.000 OA
ATOM      4  N   UNL     1       4.999   3.862  16.874  0.00  0.00    +0.000 N 
ATOM      5  H   UNL     1       2.798   4.047  17.883  0.00  0.00    +0.000 HD
ATOM      6  H   UNL     1       4.338   3.185  16.521  0.00  0.00    +0.000 HD
ENDROOT
BRANCH   1  10
ATOM      7  C   UNL     1       1.466   7.789  20.556  0.00  0.00    +0.000 A 
ATOM      8  C   UNL     1       1.551   6.480  21.008  0.00  0.00    +0.000 A 
ATOM      9  C   UNL     1       2.172   5.519  20.208  0.00  0.00    +0.000 A 
ATOM     10  C   UNL     1       2.708   5.836  18.951  0.00  0.00    +0.000 A 
ATOM     11  C   UNL     1       2.613   7.165  18.512  0.00  0.00    +0.000 A 
ATOM     12  C   UNL     1       1.991   8.141  19.309  0.00  0.00    +0.000 A 
BRANCH   7  13
ATOM     13  S   UNL     1       0.717   9.014  21.586  0.00  0.00    +0.000 S 
ATOM     14  O   UNL     1       1.659   9.403  22.612  0.00  0.00    +0.000 OA
ATOM     15  O   UNL     1      -0.636   8.625  21.885  0.00  0.00    +0.000 OA
BRANCH  13  16
ATOM     16  N   UNL     1       0.584  10.322  20.541  0.00  0.00    +0.000 NA
ATOM     17  H   UNL     1      -0.060  11.008  20.933  0.00  0.00    +0.000 HD
ATOM     18  H   UNL     1       0.319  10.004  19.605  0.00  0.00    +0.000 HD
ENDBRANCH  13  16
ENDBRANCH   7  13
ENDBRANCH   1  10
BRANCH   4  19
ATOM     19  C   UNL     1       6.333   3.892  16.289  0.00  0.00    +0.000 C 
BRANCH  19  20
ATOM     20  C   UNL     1       6.365   4.357  14.837  0.00  0.00    +0.000 C 
ATOM     21  O   UNL     1       6.444   5.544  14.516  0.00  0.00    +0.000 OA
ATOM     22  N   UNL     1       6.321   3.335  13.918  0.00  0.00    +0.000 N 
ATOM     23  H   UNL     1       6.268   2.364  14.215  0.00  0.00    +0.000 HD
BRANCH  22  24
ATOM     24  C   UNL     1       6.347   3.602  12.492  0.00  0.00    +0.000 C 
BRANCH  24  25
ATOM     25  C   UNL     1       5.348   2.727  11.745  0.00  0.00    +0.000 C 
ATOM     26  O   UNL     1       4.250   3.110  11.362  0.00  0.00    +0.000 OA
BRANCH  25  27
ATOM     27  O   UNL     1       5.789   1.464  11.541  0.00  0.00    +0.000 OA
ATOM     28  H   UNL     1       5.573   0.839  12.261  0.00  0.00    +0.000 HD
ENDBRANCH  25  27
ENDBRANCH  24  25
ENDBRANCH  22  24
ENDBRANCH  19  20
ENDBRANCH   4  19
TORSDOF 8
ENDMDL
MODEL 6
REMARK VINA RESULT:      -6.7      2.995      4.477
REMARK  Name = 
REMARK  8 active torsions:
REMARK  status: ('A' for Active; 'I' for Inactive)
REMARK    1  A    between atoms: N_1  and  S_2
REMARK    2  A    between atoms: S_2  and  C_5
REMARK    3  A    between atoms: C_8  and  N_9
REMARK    4  A    between atoms: N_12  and  C_13
REMARK    5  A    between atoms: C_13  and  C_14
REMARK    6  A    between atoms: N_16  and  C_17
REMARK    7  A    between atoms: C_17  and  C_18
REMARK    8  A    between atoms: C_18  and  O_20
REMARK                            x       y       z     vdW  Elec       q    Type
REMARK                         _______ _______ _______ _____ _____    ______ ____
ROOT
ATOM      1  N   UNL     1       2.004   7.642  20.393  0.00  0.00    +0.000 N 
ATOM      2  C   UNL     1       2.521   6.690  19.535  0.00  0.00    +0.000 C 
ATOM      3  O   UNL     1       2.381   6.662  18.317  0.00  0.00    +0.000 OA
ATOM      4  N   UNL     1       3.271   5.723  20.154  0.00  0.00    +0.000 N 
ATOM      5  H   UNL     1       2.220   7.542  21.370  0.00  0.00    +0.000 HD
ATOM      6  H   UNL     1       3.257   5.581  21.154  0.00  0.00    +0.000 HD
ENDROOT
BRANCH   1  10
ATOM      7  C   UNL     1      -0.283  11.037  19.300  0.00  0.00    +0.000 A 
ATOM      8  C   UNL     1       0.675  10.553  18.421  0.00  0.00    +0.000 A 
ATOM      9  C   UNL     1       1.423   9.429  18.774  0.00  0.00    +0.000 A 
ATOM     10  C   UNL     1       1.242   8.775  20.002  0.00  0.00    +0.000 A 
ATOM     11  C   UNL     1       0.268   9.277  20.877  0.00  0.00    +0.000 A 
ATOM     12  C   UNL     1      -0.492  10.408  20.531  0.00  0.00    +0.000 A 
BRANCH   7  13
ATOM     13  S   UNL     1      -1.259  12.435  18.835  0.00  0.00    +0.000 S 
ATOM     14  O   UNL     1      -0.404  13.598  18.753  0.00  0.00    +0.000 OA
ATOM     15  O   UNL     1      -2.488  12.428  19.584  0.00  0.00    +0.000 OA
BRANCH  13  16
ATOM     16  N   UNL     1      -1.696  12.052  17.259  0.00  0.00    +0.000 NA
ATOM     17  H   UNL     1      -2.664  11.730  17.242  0.00  0.00    +0.000 HD
ATOM     18  H   UNL     1      -1.036  11.379  16.860  0.00  0.00    +0.000 HD
ENDBRANCH  13  16
ENDBRANCH   7  13
ENDBRANCH   1  10
BRANCH   4  19
ATOM     19  C   UNL     1       3.814   4.662  19.315  0.00  0.00    +0.000 C 
BRANCH  19  20
ATOM     20  C   UNL     1       5.244   4.910  18.848  0.00  0.00    +0.000 C 
ATOM     21  O   UNL     1       6.231   4.587  19.513  0.00  0.00    +0.000 OA
ATOM     22  N   UNL     1       5.339   5.505  17.612  0.00  0.00    +0.000 N 
ATOM     23  H   UNL     1       4.505   5.749  17.082  0.00  0.00    +0.000 HD
BRANCH  22  24
ATOM     24  C   UNL     1       6.627   5.809  17.017  0.00  0.00    +0.000 C 
BRANCH  24  25
ATOM     25  C   UNL     1       6.912   4.909  15.821  0.00  0.00    +0.000 C 
ATOM     26  O   UNL     1       7.555   5.256  14.839  0.00  0.00    +0.000 OA
BRANCH  25  27
ATOM     27  O   UNL     1       6.379   3.671  15.941  0.00  0.00    +0.000 OA
ATOM     28  H   UNL     1       6.918   2.959  15.544  0.00  0.00    +0.000 HD
ENDBRANCH  25  27
ENDBRANCH  24  25
ENDBRANCH  22  24
ENDBRANCH  19  20
ENDBRANCH   4  19
TORSDOF 8
ENDMDL
MODEL 7
REMARK VINA RESULT:      -6.7      3.051      4.512
REMARK  Name = 
REMARK  8 active torsions:
REMARK  status: ('A' for Active; 'I' for Inactive)
REMARK    1  A    between atoms: N_1  and  S_2
REMARK    2  A    between atoms: S_2  and  C_5
REMARK    3  A    between atoms: C_8  and  N_9
REMARK    4  A    between atoms: N_12  and  C_13
REMARK    5  A    between atoms: C_13  and  C_14
REMARK    6  A    between atoms: N_16  and  C_17
REMARK    7  A    between atoms: C_17  and  C_18
REMARK    8  A    between atoms: C_18  and  O_20
REMARK                            x       y       z     vdW  Elec       q    Type
REMARK                         _______ _______ _______ _____ _____    ______ ____
ROOT
ATOM      1  N   UNL     1       2.227   7.519  20.266  0.00  0.00    +0.000 N 
ATOM      2  C   UNL     1       2.628   6.464  19.468  0.00  0.00    +0.000 C 
ATOM      3  O   UNL     1       2.306   6.280  18.299  0.00  0.00    +0.000 OA
ATOM      4  N   UNL     1       3.482   5.585  20.082  0.00  0.00    +0.000 N 
ATOM      5  H   UNL     1       2.590   7.545  21.204  0.00  0.00    +0.000 HD
ATOM      6  H   UNL     1       3.622   5.573  21.083  0.00  0.00    +0.000 HD
ENDROOT
BRANCH   1  10
ATOM      7  C   UNL     1      -0.254  10.698  18.968  0.00  0.00    +0.000 A 
ATOM      8  C   UNL     1      -0.456  10.151  20.227  0.00  0.00    +0.000 A 
ATOM      9  C   UNL     1       0.366   9.111  20.661  0.00  0.00    +0.000 A 
ATOM     10  C   UNL     1       1.391   8.591  19.856  0.00  0.00    +0.000 A 
ATOM     11  C   UNL     1       1.581   9.157  18.587  0.00  0.00    +0.000 A 
ATOM     12  C   UNL     1       0.760  10.206  18.140  0.00  0.00    +0.000 A 
BRANCH   7  13
ATOM     13  S   UNL     1      -1.267  12.044  18.435  0.00  0.00    +0.000 S 
ATOM     14  O   UNL     1      -0.433  13.208  18.233  0.00  0.00    +0.000 OA
ATOM     15  O   UNL     1      -2.468  12.081  19.228  0.00  0.00    +0.000 OA
BRANCH  13  16
ATOM     16  N   UNL     1      -1.756  11.538  16.910  0.00  0.00    +0.000 NA
ATOM     17  H   UNL     1      -2.773  11.579  16.847  0.00  0.00    +0.000 HD
ATOM     18  H   UNL     1      -1.372  10.612  16.703  0.00  0.00    +0.000 HD
ENDBRANCH  13  16
ENDBRANCH   7  13
ENDBRANCH   1  10
BRANCH   4  19
ATOM     19  C   UNL     1       3.915   4.427  19.312  0.00  0.00    +0.000 C 
BRANCH  19  20
ATOM     20  C   UNL     1       5.339   4.531  18.778  0.00  0.00    +0.000 C 
ATOM     21  O   UNL     1       6.297   4.846  19.486  0.00  0.00    +0.000 OA
ATOM     22  N   UNL     1       5.464   4.222  17.444  0.00  0.00    +0.000 N 
ATOM     23  H   UNL     1       4.656   3.953  16.889  0.00  0.00    +0.000 HD
BRANCH  22  24
ATOM     24  C   UNL     1       6.752   4.267  16.777  0.00  0.00    +0.000 C 
BRANCH  24  25
ATOM     25  C   UNL     1       6.886   5.515  15.912  0.00  0.00    +0.000 C 
ATOM     26  O   UNL     1       6.362   6.590  16.172  0.00  0.00    +0.000 OA
BRANCH  25  27
ATOM     27  O   UNL     1       7.647   5.324  14.809  0.00  0.00    +0.000 OA
ATOM     28  H   UNL     1       8.609   5.401  14.964  0.00  0.00    +0.000 HD
ENDBRANCH  25  27
ENDBRANCH  24  25
ENDBRANCH  22  24
ENDBRANCH  19  20
ENDBRANCH   4  19
TORSDOF 8
ENDMDL
MODEL 8
REMARK VINA RESULT:      -6.7      2.999      4.353
REMARK  Name = 
REMARK  8 active torsions:
REMARK  status: ('A' for Active; 'I' for Inactive)
REMARK    1  A    between atoms: N_1  and  S_2
REMARK    2  A    between atoms: S_2  and  C_5
REMARK    3  A    between atoms: C_8  and  N_9
REMARK    4  A    between atoms: N_12  and  C_13
REMARK    5  A    between atoms: C_13  and  C_14
REMARK    6  A    between atoms: N_16  and  C_17
REMARK    7  A    between atoms: C_17  and  C_18
REMARK    8  A    between atoms: C_18  and  O_20
REMARK                            x       y       z     vdW  Elec       q    Type
REMARK                         _______ _______ _______ _____ _____    ______ ____
ROOT
ATOM      1  N   UNL     1       2.373   7.415  20.195  0.00  0.00    +0.000 N 
ATOM      2  C   UNL     1       2.729   6.303  19.454  0.00  0.00    +0.000 C 
ATOM      3  O   UNL     1       2.337   6.032  18.324  0.00  0.00    +0.000 OA
ATOM      4  N   UNL     1       3.623   5.472  20.079  0.00  0.00    +0.000 N 
ATOM      5  H   UNL     1       2.792   7.511  21.104  0.00  0.00    +0.000 HD
ATOM      6  H   UNL     1       3.823   5.534  21.067  0.00  0.00    +0.000 HD
ENDROOT
BRANCH   1  10
ATOM      7  C   UNL     1      -0.211  10.537  18.962  0.00  0.00    +0.000 A 
ATOM      8  C   UNL     1       0.705  10.019  18.059  0.00  0.00    +0.000 A 
ATOM      9  C   UNL     1       1.551   8.983  18.459  0.00  0.00    +0.000 A 
ATOM     10  C   UNL     1       1.509   8.453  19.757  0.00  0.00    +0.000 A 
ATOM     11  C   UNL     1       0.575   8.989  20.657  0.00  0.00    +0.000 A 
ATOM     12  C   UNL     1      -0.282  10.030  20.264  0.00  0.00    +0.000 A 
BRANCH   7  13
ATOM     13  S   UNL     1      -1.311  11.818  18.442  0.00  0.00    +0.000 S 
ATOM     14  O   UNL     1      -0.551  13.029  18.224  0.00  0.00    +0.000 OA
ATOM     15  O   UNL     1      -2.499  11.786  19.255  0.00  0.00    +0.000 OA
BRANCH  13  16
ATOM     16  N   UNL     1      -1.793  11.278  16.927  0.00  0.00    +0.000 NA
ATOM     17  H   UNL     1      -2.573  10.628  17.028  0.00  0.00    +0.000 HD
ATOM     18  H   UNL     1      -0.997  10.883  16.420  0.00  0.00    +0.000 HD
ENDBRANCH  13  16
ENDBRANCH   7  13
ENDBRANCH   1  10
BRANCH   4  19
ATOM     19  C   UNL     1       4.012   4.259  19.372  0.00  0.00    +0.000 C 
BRANCH  19  20
ATOM     20  C   UNL     1       5.341   4.369  18.633  0.00  0.00    +0.000 C 
ATOM     21  O   UNL     1       6.387   4.716  19.185  0.00  0.00    +0.000 OA
ATOM     22  N   UNL     1       5.276   4.027  17.303  0.00  0.00    +0.000 N 
ATOM     23  H   UNL     1       4.399   3.733  16.879  0.00  0.00    +0.000 HD
BRANCH  22  24
ATOM     24  C   UNL     1       6.451   4.073  16.453  0.00  0.00    +0.000 C 
BRANCH  24  25
ATOM     25  C   UNL     1       6.640   5.456  15.841  0.00  0.00    +0.000 C 
ATOM     26  O   UNL     1       6.068   5.844  14.831  0.00  0.00    +0.000 OA
BRANCH  25  27
ATOM     27  O   UNL     1       7.516   6.229  16.524  0.00  0.00    +0.000 OA
ATOM     28  H   UNL     1       7.448   6.155  17.496  0.00  0.00    +0.000 HD
ENDBRANCH  25  27
ENDBRANCH  24  25
ENDBRANCH  22  24
ENDBRANCH  19  20
ENDBRANCH   4  19
TORSDOF 8
ENDMDL
MODEL 9
REMARK VINA RESULT:      -6.7      3.820      4.954
REMARK  Name = 
REMARK  8 active torsions:
REMARK  status: ('A' for Active; 'I' for Inactive)
REMARK    1  A    between atoms: N_1  and  S_2
REMARK    2  A    between atoms: S_2  and  C_5
REMARK    3  A    between atoms: C_8  and  N_9
REMARK    4  A    between atoms: N_12  and  C_13
REMARK    5  A    between atoms: C_13  and  C_14
REMARK    6  A    between atoms: N_16  and  C_17
REMARK    7  A    between atoms: C_17  and  C_18
REMARK    8  A    between atoms: C_18  and  O_20
REMARK                            x       y       z     vdW  Elec       q    Type
REMARK                         _______ _______ _______ _____ _____    ______ ____
ROOT
ATOM      1  N   UNL     1       2.309   7.568  20.158  0.00  0.00    +0.000 N 
ATOM      2  C   UNL     1       2.664   6.467  19.401  0.00  0.00    +0.000 C 
ATOM      3  O   UNL     1       2.266   6.208  18.271  0.00  0.00    +0.000 OA
ATOM      4  N   UNL     1       3.566   5.633  20.010  0.00  0.00    +0.000 N 
ATOM      5  H   UNL     1       2.734   7.656  21.065  0.00  0.00    +0.000 HD
ATOM      6  H   UNL     1       3.774   5.684  20.997  0.00  0.00    +0.000 HD
ENDROOT
BRANCH   1  10
ATOM      7  C   UNL     1      -0.298  10.693  18.980  0.00  0.00    +0.000 A 
ATOM      8  C   UNL     1       0.632  10.207  18.072  0.00  0.00    +0.000 A 
ATOM      9  C   UNL     1       1.485   9.171  18.454  0.00  0.00    +0.000 A 
ATOM     10  C   UNL     1       1.438   8.609  19.738  0.00  0.00    +0.000 A 
ATOM     11  C   UNL     1       0.490   9.111  20.642  0.00  0.00    +0.000 A 
ATOM     12  C   UNL     1      -0.375  10.153  20.268  0.00  0.00    +0.000 A 
BRANCH   7  13
ATOM     13  S   UNL     1      -1.408  11.975  18.483  0.00  0.00    +0.000 S 
ATOM     14  O   UNL     1      -0.681  13.224  18.415  0.00  0.00    +0.000 OA
ATOM     15  O   UNL     1      -2.648  11.839  19.201  0.00  0.00    +0.000 OA
BRANCH  13  16
ATOM     16  N   UNL     1      -1.761  11.543  16.899  0.00  0.00    +0.000 NA
ATOM     17  H   UNL     1      -1.390  10.612  16.708  0.00  0.00    +0.000 HD
ATOM     18  H   UNL     1      -1.421  12.258  16.250  0.00  0.00    +0.000 HD
ENDBRANCH  13  16
ENDBRANCH   7  13
ENDBRANCH   1  10
BRANCH   4  19
ATOM     19  C   UNL     1       3.956   4.430  19.286  0.00  0.00    +0.000 C 
BRANCH  19  20
ATOM     20  C   UNL     1       5.272   4.559  18.528  0.00  0.00    +0.000 C 
ATOM     21  O   UNL     1       5.430   4.128  17.384  0.00  0.00    +0.000 OA
ATOM     22  N   UNL     1       6.260   5.216  19.223  0.00  0.00    +0.000 N 
ATOM     23  H   UNL     1       6.095   5.571  20.161  0.00  0.00    +0.000 HD
BRANCH  22  24
ATOM     24  C   UNL     1       7.575   5.428  18.646  0.00  0.00    +0.000 C 
BRANCH  24  25
ATOM     25  C   UNL     1       7.569   6.594  17.665  0.00  0.00    +0.000 C 
ATOM     26  O   UNL     1       7.691   7.767  17.992  0.00  0.00    +0.000 OA
BRANCH  25  27
ATOM     27  O   UNL     1       7.413   6.210  16.376  0.00  0.00    +0.000 OA
ATOM     28  H   UNL     1       6.704   6.684  15.897  0.00  0.00    +0.000 HD
ENDBRANCH  25  27
ENDBRANCH  24  25
ENDBRANCH  22  24
ENDBRANCH  19  20
ENDBRANCH   4  19
TORSDOF 8
ENDMDL
