MODEL 1
REMARK VINA RESULT:      -7.2      0.000      0.000
REMARK  Name = 
REMARK  6 active torsions:
REMARK  status: ('A' for Active; 'I' for Inactive)
REMARK    1  A    between atoms: N_1  and  C_2
REMARK    2  A    between atoms: C_8  and  C_9
REMARK    3  A    between atoms: C_9  and  N_10
REMARK    4  A    between atoms: N_10  and  C_11
REMARK    5  A    between atoms: C_11  and  N_13
REMARK    6  A    between atoms: N_13  and  C_14
REMARK                            x       y       z     vdW  Elec       q    Type
REMARK                         _______ _______ _______ _____ _____    ______ ____
ROOT
ATOM      1  N   UNL     1       5.827   3.869  17.288  0.00  0.00    +0.000 N 
ATOM      2  H   UNL     1       6.414   3.081  17.026  0.00  0.00    +0.000 HD
ENDROOT
BRANCH   1   3
ATOM      3  C   UNL     1       5.872   4.271  18.590  0.00  0.00    +0.000 C 
ATOM      4  S   UNL     1       6.803   5.519  19.184  0.00  0.00    +0.000 S 
BRANCH   3   5
ATOM      5  N   UNL     1       5.103   3.524  19.443  0.00  0.00    +0.000 N 
ATOM      6  H   UNL     1       5.601   3.014  20.168  0.00  0.00    +0.000 HD
BRANCH   5   7
ATOM      7  C   UNL     1       3.692   3.576  19.587  0.00  0.00    +0.000 A 
ATOM      8  C   UNL     1       3.066   4.655  20.229  0.00  0.00    +0.000 A 
ATOM      9  C   UNL     1       1.685   4.667  20.430  0.00  0.00    +0.000 A 
ATOM     10  C   UNL     1       0.909   3.601  19.984  0.00  0.00    +0.000 A 
ATOM     11  C   UNL     1       1.517   2.517  19.347  0.00  0.00    +0.000 A 
ATOM     12  C   UNL     1       2.903   2.496  19.166  0.00  0.00    +0.000 A 
ATOM     13 CL   UNL     1       3.604   1.132  18.367  0.00  0.00    +0.000 Cl
ENDBRANCH   5   7
ENDBRANCH   3   5
ENDBRANCH   1   3
BRANCH   1  14
ATOM     14  C   UNL     1       5.051   4.441  16.204  0.00  0.00    +0.000 C 
BRANCH  14  21
ATOM     15  C   UNL     1       6.967   5.122  14.700  0.00  0.00    +0.000 A 
ATOM     16  N   UNL     1       7.629   5.107  13.523  0.00  0.00    +0.000 NA
ATOM     17  C   UNL     1       7.102   4.318  12.553  0.00  0.00    +0.000 A 
ATOM     18  C   UNL     1       5.953   3.576  12.741  0.00  0.00    +0.000 A 
ATOM     19 CL   UNL     1       5.304   2.586  11.504  0.00  0.00    +0.000 Cl
ATOM     20  N   UNL     1       5.272   3.579  13.901  0.00  0.00    +0.000 NA
ATOM     21  C   UNL     1       5.793   4.371  14.887  0.00  0.00    +0.000 A 
BRANCH  15  22
ATOM     22  N   UNL     1       7.501   5.954  15.678  0.00  0.00    +0.000 N 
ATOM     23  H   UNL     1       7.040   6.858  15.586  0.00  0.00    +0.000 HD
ATOM     24  H   UNL     1       8.508   6.052  15.599  0.00  0.00    +0.000 HD
ENDBRANCH  15  22
ENDBRANCH  14  21
ENDBRANCH   1  14
TORSDOF 6
ENDMDL
MODEL 2
REMARK VINA RESULT:      -7.0      3.385      4.118
REMARK  Name = 
REMARK  6 active torsions:
REMARK  status: ('A' for Active; 'I' for Inactive)
REMARK    1  A    between atoms: N_1  and  C_2
REMARK    2  A    between atoms: C_8  and  C_9
REMARK    3  A    between atoms: C_9  and  N_10
REMARK    4  A    between atoms: N_10  and  C_11
REMARK    5  A    between atoms: C_11  and  N_13
REMARK    6  A    between atoms: N_13  and  C_14
REMARK                            x       y       z     vdW  Elec       q    Type
REMARK                         _______ _______ _______ _____ _____    ______ ____
ROOT
ATOM      1  N   UNL     1       4.806   2.938  17.367  0.00  0.00    +0.000 N 
ATOM      2  H   UNL     1       5.403   2.118  17.442  0.00  0.00    +0.000 HD
ENDROOT
BRANCH   1   3
ATOM      3  C   UNL     1       3.732   3.003  18.204  0.00  0.00    +0.000 C 
ATOM      4  S   UNL     1       2.294   2.188  17.996  0.00  0.00    +0.000 S 
BRANCH   3   5
ATOM      5  N   UNL     1       3.886   3.859  19.263  0.00  0.00    +0.000 N 
ATOM      6  H   UNL     1       4.748   3.766  19.795  0.00  0.00    +0.000 HD
BRANCH   5   7
ATOM      7  C   UNL     1       3.108   5.010  19.550  0.00  0.00    +0.000 A 
ATOM      8  C   UNL     1       3.243   6.185  18.795  0.00  0.00    +0.000 A 
ATOM      9  C   UNL     1       2.526   7.336  19.125  0.00  0.00    +0.000 A 
ATOM     10  C   UNL     1       1.658   7.326  20.213  0.00  0.00    +0.000 A 
ATOM     11  C   UNL     1       1.515   6.166  20.977  0.00  0.00    +0.000 A 
ATOM     12  C   UNL     1       2.250   5.020  20.659  0.00  0.00    +0.000 A 
ATOM     13 CL   UNL     1       2.032   3.609  21.635  0.00  0.00    +0.000 Cl
ENDBRANCH   5   7
ENDBRANCH   3   5
ENDBRANCH   1   3
BRANCH   1  14
ATOM     14  C   UNL     1       5.227   3.913  16.378  0.00  0.00    +0.000 C 
BRANCH  14  21
ATOM     15  C   UNL     1       6.130   6.275  16.398  0.00  0.00    +0.000 A 
ATOM     16  N   UNL     1       6.909   7.255  16.906  0.00  0.00    +0.000 NA
ATOM     17  C   UNL     1       7.614   6.939  18.021  0.00  0.00    +0.000 A 
ATOM     18  C   UNL     1       7.553   5.691  18.610  0.00  0.00    +0.000 A 
ATOM     19 CL   UNL     1       8.450   5.312  20.018  0.00  0.00    +0.000 Cl
ATOM     20  N   UNL     1       6.791   4.697  18.120  0.00  0.00    +0.000 NA
ATOM     21  C   UNL     1       6.077   5.003  16.995  0.00  0.00    +0.000 A 
BRANCH  15  22
ATOM     22  N   UNL     1       5.434   6.602  15.240  0.00  0.00    +0.000 N 
ATOM     23  H   UNL     1       4.704   5.901  15.122  0.00  0.00    +0.000 HD
ATOM     24  H   UNL     1       6.034   6.641  14.422  0.00  0.00    +0.000 HD
ENDBRANCH  15  22
ENDBRANCH  14  21
ENDBRANCH   1  14
TORSDOF 6
ENDMDL
MODEL 3
REMARK VINA RESULT:      -7.0      3.337      4.241
REMARK  Name = 
REMARK  6 active torsions:
REMARK  status: ('A' for Active; 'I' for Inactive)
REMARK    1  A    between atoms: N_1  and  C_2
REMARK    2  A    between atoms: C_8  and  C_9
REMARK    3  A    between atoms: C_9  and  N_10
REMARK    4  A    between atoms: N_10  and  C_11
REMARK    5  A    between atoms: C_11  and  N_13
REMARK    6  A    between atoms: N_13  and  C_14
REMARK                            x       y       z     vdW  Elec       q    Type
REMARK                         _______ _______ _______ _____ _____    ______ ____
ROOT
ATOM      1  N   UNL     1       3.240   4.305  18.696  0.00  0.00    +0.000 N 
ATOM      2  H   UNL     1       2.802   4.300  17.778  0.00  0.00    +0.000 HD
ENDROOT
BRANCH   1   3
ATOM      3  C   UNL     1       2.559   4.918  19.706  0.00  0.00    +0.000 C 
ATOM      4  S   UNL     1       1.263   4.272  20.529  0.00  0.00    +0.000 S 
BRANCH   3   5
ATOM      5  N   UNL     1       2.991   6.186  19.996  0.00  0.00    +0.000 N 
ATOM      6  H   UNL     1       3.940   6.268  20.350  0.00  0.00    +0.000 HD
BRANCH   5   7
ATOM      7  C   UNL     1       2.364   7.405  19.629  0.00  0.00    +0.000 A 
ATOM      8  C   UNL     1       1.445   8.035  20.482  0.00  0.00    +0.000 A 
ATOM      9  C   UNL     1       0.779   9.196  20.086  0.00  0.00    +0.000 A 
ATOM     10  C   UNL     1       1.028   9.748  18.833  0.00  0.00    +0.000 A 
ATOM     11  C   UNL     1       1.937   9.131  17.971  0.00  0.00    +0.000 A 
ATOM     12  C   UNL     1       2.588   7.956  18.359  0.00  0.00    +0.000 A 
ATOM     13 CL   UNL     1       3.707   7.236  17.254  0.00  0.00    +0.000 Cl
ENDBRANCH   5   7
ENDBRANCH   3   5
ENDBRANCH   1   3
BRANCH   1  14
ATOM     14  C   UNL     1       4.522   3.629  18.766  0.00  0.00    +0.000 C 
BRANCH  14  21
ATOM     15  C   UNL     1       6.623   4.825  18.024  0.00  0.00    +0.000 A 
ATOM     16  N   UNL     1       7.462   5.295  17.076  0.00  0.00    +0.000 NA
ATOM     17  C   UNL     1       7.125   5.017  15.791  0.00  0.00    +0.000 A 
ATOM     18  C   UNL     1       5.991   4.303  15.458  0.00  0.00    +0.000 A 
ATOM     19 CL   UNL     1       5.584   3.961  13.830  0.00  0.00    +0.000 Cl
ATOM     20  N   UNL     1       5.137   3.831  16.383  0.00  0.00    +0.000 NA
ATOM     21  C   UNL     1       5.465   4.106  17.682  0.00  0.00    +0.000 A 
BRANCH  15  22
ATOM     22  N   UNL     1       6.964   5.140  19.335  0.00  0.00    +0.000 N 
ATOM     23  H   UNL     1       6.910   4.277  19.873  0.00  0.00    +0.000 HD
ATOM     24  H   UNL     1       6.363   5.854  19.734  0.00  0.00    +0.000 HD
ENDBRANCH  15  22
ENDBRANCH  14  21
ENDBRANCH   1  14
TORSDOF 6
ENDMDL
MODEL 4
REMARK VINA RESULT:      -6.9      4.199      5.522
REMARK  Name = 
REMARK  6 active torsions:
REMARK  status: ('A' for Active; 'I' for Inactive)
REMARK    1  A    between atoms: N_1  and  C_2
REMARK    2  A    between atoms: C_8  and  C_9
REMARK    3  A    between atoms: C_9  and  N_10
REMARK    4  A    between atoms: N_10  and  C_11
REMARK    5  A    between atoms: C_11  and  N_13
REMARK    6  A    between atoms: N_13  and  C_14
REMARK                            x       y       z     vdW  Elec       q    Type
REMARK                         _______ _______ _______ _____ _____    ______ ____
ROOT
ATOM      1  N   UNL     1       2.514   5.656  18.214  0.00  0.00    +0.000 N 
ATOM      2  H   UNL     1       1.808   6.119  17.647  0.00  0.00    +0.000 HD
ENDROOT
BRANCH   1   3
ATOM      3  C   UNL     1       2.417   5.798  19.566  0.00  0.00    +0.000 C 
ATOM      4  S   UNL     1       2.014   4.587  20.637  0.00  0.00    +0.000 S 
BRANCH   3   5
ATOM      5  N   UNL     1       2.634   7.071  20.022  0.00  0.00    +0.000 N 
ATOM      6  H   UNL     1       3.603   7.373  20.071  0.00  0.00    +0.000 HD
BRANCH   5   7
ATOM      7  C   UNL     1       1.663   8.092  20.197  0.00  0.00    +0.000 A 
ATOM      8  C   UNL     1       0.886   8.163  21.363  0.00  0.00    +0.000 A 
ATOM      9  C   UNL     1      -0.115   9.126  21.499  0.00  0.00    +0.000 A 
ATOM     10  C   UNL     1      -0.348  10.036  20.473  0.00  0.00    +0.000 A 
ATOM     11  C   UNL     1       0.414   9.976  19.304  0.00  0.00    +0.000 A 
ATOM     12  C   UNL     1       1.402   8.998  19.160  0.00  0.00    +0.000 A 
ATOM     13 CL   UNL     1       2.320   8.971  17.694  0.00  0.00    +0.000 Cl
ENDBRANCH   5   7
ENDBRANCH   3   5
ENDBRANCH   1   3
BRANCH   1  14
ATOM     14  C   UNL     1       3.502   4.902  17.464  0.00  0.00    +0.000 C 
BRANCH  14  21
ATOM     15  C   UNL     1       5.630   4.378  18.725  0.00  0.00    +0.000 A 
ATOM     16  N   UNL     1       6.876   4.682  19.150  0.00  0.00    +0.000 NA
ATOM     17  C   UNL     1       7.386   5.860  18.708  0.00  0.00    +0.000 A 
ATOM     18  C   UNL     1       6.681   6.710  17.880  0.00  0.00    +0.000 A 
ATOM     19 CL   UNL     1       7.343   8.192  17.333  0.00  0.00    +0.000 Cl
ATOM     20  N   UNL     1       5.437   6.434  17.449  0.00  0.00    +0.000 NA
ATOM     21  C   UNL     1       4.912   5.250  17.888  0.00  0.00    +0.000 A 
BRANCH  15  22
ATOM     22  N   UNL     1       5.108   3.182  19.206  0.00  0.00    +0.000 N 
ATOM     23  H   UNL     1       5.079   2.532  18.422  0.00  0.00    +0.000 HD
ATOM     24  H   UNL     1       4.186   3.296  19.616  0.00  0.00    +0.000 HD
ENDBRANCH  15  22
ENDBRANCH  14  21
ENDBRANCH   1  14
TORSDOF 6
ENDMDL
MODEL 5
REMARK VINA RESULT:      -6.9      2.219      2.605
REMARK  Name = 
REMARK  6 active torsions:
REMARK  status: ('A' for Active; 'I' for Inactive)
REMARK    1  A    between atoms: N_1  and  C_2
REMARK    2  A    between atoms: C_8  and  C_9
REMARK    3  A    between atoms: C_9  and  N_10
REMARK    4  A    between atoms: N_10  and  C_11
REMARK    5  A    between atoms: C_11  and  N_13
REMARK    6  A    between atoms: N_13  and  C_14
REMARK                            x       y       z     vdW  Elec       q    Type
REMARK                         _______ _______ _______ _____ _____    ______ ____
ROOT
ATOM      1  N   UNL     1       4.327   3.132  17.045  0.00  0.00    +0.000 N 
ATOM      2  H   UNL     1       4.290   2.657  16.147  0.00  0.00    +0.000 HD
ENDROOT
BRANCH   1   3
ATOM      3  C   UNL     1       3.395   2.777  17.975  0.00  0.00    +0.000 C 
ATOM      4  S   UNL     1       3.490   1.453  18.981  0.00  0.00    +0.000 S 
BRANCH   3   5
ATOM      5  N   UNL     1       2.289   3.585  18.009  0.00  0.00    +0.000 N 
ATOM      6  H   UNL     1       1.420   3.174  17.679  0.00  0.00    +0.000 HD
BRANCH   5   7
ATOM      7  C   UNL     1       2.165   4.833  18.675  0.00  0.00    +0.000 A 
ATOM      8  C   UNL     1       2.565   6.028  18.059  0.00  0.00    +0.000 A 
ATOM      9  C   UNL     1       2.507   7.242  18.744  0.00  0.00    +0.000 A 
ATOM     10  C   UNL     1       2.039   7.279  20.054  0.00  0.00    +0.000 A 
ATOM     11  C   UNL     1       1.641   6.098  20.683  0.00  0.00    +0.000 A 
ATOM     12  C   UNL     1       1.720   4.879  20.003  0.00  0.00    +0.000 A 
ATOM     13 CL   UNL     1       1.210   3.447  20.828  0.00  0.00    +0.000 Cl
ENDBRANCH   5   7
ENDBRANCH   3   5
ENDBRANCH   1   3
BRANCH   1  14
ATOM     14  C   UNL     1       5.398   4.103  17.180  0.00  0.00    +0.000 C 
BRANCH  14  21
ATOM     15  C   UNL     1       7.155   5.273  15.789  0.00  0.00    +0.000 A 
ATOM     16  N   UNL     1       7.772   5.542  14.618  0.00  0.00    +0.000 NA
ATOM     17  C   UNL     1       7.318   4.860  13.535  0.00  0.00    +0.000 A 
ATOM     18  C   UNL     1       6.284   3.949  13.610  0.00  0.00    +0.000 A 
ATOM     19 CL   UNL     1       5.726   3.099  12.233  0.00  0.00    +0.000 Cl
ATOM     20  N   UNL     1       5.649   3.670  14.762  0.00  0.00    +0.000 NA
ATOM     21  C   UNL     1       6.097   4.351  15.861  0.00  0.00    +0.000 A 
BRANCH  15  22
ATOM     22  N   UNL     1       7.610   5.997  16.885  0.00  0.00    +0.000 N 
ATOM     23  H   UNL     1       6.802   6.466  17.290  0.00  0.00    +0.000 HD
ATOM     24  H   UNL     1       8.332   6.667  16.639  0.00  0.00    +0.000 HD
ENDBRANCH  15  22
ENDBRANCH  14  21
ENDBRANCH   1  14
TORSDOF 6
ENDMDL
MODEL 6
REMARK VINA RESULT:      -6.9      2.112      2.596
REMARK  Name = 
REMARK  6 active torsions:
REMARK  status: ('A' for Active; 'I' for Inactive)
REMARK    1  A    between atoms: N_1  and  C_2
REMARK    2  A    between atoms: C_8  and  C_9
REMARK    3  A    between atoms: C_9  and  N_10
REMARK    4  A    between atoms: N_10  and  C_11
REMARK    5  A    between atoms: C_11  and  N_13
REMARK    6  A    between atoms: N_13  and  C_14
REMARK                            x       y       z     vdW  Elec       q    Type
REMARK                         _______ _______ _______ _____ _____    ______ ____
ROOT
ATOM      1  N   UNL     1       4.677   5.552  18.999  0.00  0.00    +0.000 N 
ATOM      2  H   UNL     1       5.355   5.937  19.653  0.00  0.00    +0.000 HD
ENDROOT
BRANCH   1   3
ATOM      3  C   UNL     1       3.596   6.325  18.698  0.00  0.00    +0.000 C 
ATOM      4  S   UNL     1       3.549   7.504  17.522  0.00  0.00    +0.000 S 
BRANCH   3   5
ATOM      5  N   UNL     1       2.499   6.103  19.489  0.00  0.00    +0.000 N 
ATOM      6  H   UNL     1       1.856   6.883  19.596  0.00  0.00    +0.000 HD
BRANCH   5   7
ATOM      7  C   UNL     1       2.033   4.851  19.968  0.00  0.00    +0.000 A 
ATOM      8  C   UNL     1       2.211   4.475  21.308  0.00  0.00    +0.000 A 
ATOM      9  C   UNL     1       1.813   3.215  21.757  0.00  0.00    +0.000 A 
ATOM     10  C   UNL     1       1.225   2.315  20.873  0.00  0.00    +0.000 A 
ATOM     11  C   UNL     1       1.045   2.673  19.535  0.00  0.00    +0.000 A 
ATOM     12  C   UNL     1       1.463   3.928  19.081  0.00  0.00    +0.000 A 
ATOM     13 CL   UNL     1       1.211   4.322  17.416  0.00  0.00    +0.000 Cl
ENDBRANCH   5   7
ENDBRANCH   3   5
ENDBRANCH   1   3
BRANCH   1  14
ATOM     14  C   UNL     1       5.004   4.235  18.484  0.00  0.00    +0.000 C 
BRANCH  14  21
ATOM     15  C   UNL     1       7.147   4.606  17.193  0.00  0.00    +0.000 A 
ATOM     16  N   UNL     1       7.848   4.723  16.045  0.00  0.00    +0.000 NA
ATOM     17  C   UNL     1       7.148   4.532  14.898  0.00  0.00    +0.000 A 
ATOM     18  C   UNL     1       5.799   4.242  14.890  0.00  0.00    +0.000 A 
ATOM     19 CL   UNL     1       4.934   4.003  13.431  0.00  0.00    +0.000 Cl
ATOM     20  N   UNL     1       5.077   4.127  16.019  0.00  0.00    +0.000 NA
ATOM     21  C   UNL     1       5.771   4.318  17.182  0.00  0.00    +0.000 A 
BRANCH  15  22
ATOM     22  N   UNL     1       7.868   4.830  18.361  0.00  0.00    +0.000 N 
ATOM     23  H   UNL     1       8.000   5.837  18.442  0.00  0.00    +0.000 HD
ATOM     24  H   UNL     1       8.760   4.347  18.367  0.00  0.00    +0.000 HD
ENDBRANCH  15  22
ENDBRANCH  14  21
ENDBRANCH   1  14
TORSDOF 6
ENDMDL
MODEL 7
REMARK VINA RESULT:      -6.9      2.065      2.274
REMARK  Name = 
REMARK  6 active torsions:
REMARK  status: ('A' for Active; 'I' for Inactive)
REMARK    1  A    between atoms: N_1  and  C_2
REMARK    2  A    between atoms: C_8  and  C_9
REMARK    3  A    between atoms: C_9  and  N_10
REMARK    4  A    between atoms: N_10  and  C_11
REMARK    5  A    between atoms: C_11  and  N_13
REMARK    6  A    between atoms: N_13  and  C_14
REMARK                            x       y       z     vdW  Elec       q    Type
REMARK                         _______ _______ _______ _____ _____    ______ ____
ROOT
ATOM      1  N   UNL     1       4.363   6.255  17.966  0.00  0.00    +0.000 N 
ATOM      2  H   UNL     1       4.983   7.058  18.047  0.00  0.00    +0.000 HD
ENDROOT
BRANCH   1   3
ATOM      3  C   UNL     1       3.023   6.497  18.031  0.00  0.00    +0.000 C 
ATOM      4  S   UNL     1       2.320   7.996  18.220  0.00  0.00    +0.000 S 
BRANCH   3   5
ATOM      5  N   UNL     1       2.239   5.375  17.976  0.00  0.00    +0.000 N 
ATOM      6  H   UNL     1       1.937   5.082  17.051  0.00  0.00    +0.000 HD
BRANCH   5   7
ATOM      7  C   UNL     1       2.008   4.443  19.022  0.00  0.00    +0.000 A 
ATOM      8  C   UNL     1       1.730   4.873  20.328  0.00  0.00    +0.000 A 
ATOM      9  C   UNL     1       1.573   3.954  21.367  0.00  0.00    +0.000 A 
ATOM     10  C   UNL     1       1.686   2.590  21.111  0.00  0.00    +0.000 A 
ATOM     11  C   UNL     1       1.967   2.147  19.817  0.00  0.00    +0.000 A 
ATOM     12  C   UNL     1       2.145   3.070  18.781  0.00  0.00    +0.000 A 
ATOM     13 CL   UNL     1       2.487   2.466  17.197  0.00  0.00    +0.000 Cl
ENDBRANCH   5   7
ENDBRANCH   3   5
ENDBRANCH   1   3
BRANCH   1  14
ATOM     14  C   UNL     1       5.033   4.982  17.774  0.00  0.00    +0.000 C 
BRANCH  14  21
ATOM     15  C   UNL     1       7.010   5.494  16.283  0.00  0.00    +0.000 A 
ATOM     16  N   UNL     1       7.646   5.484  15.091  0.00  0.00    +0.000 NA
ATOM     17  C   UNL     1       6.990   4.874  14.071  0.00  0.00    +0.000 A 
ATOM     18  C   UNL     1       5.744   4.300  14.227  0.00  0.00    +0.000 A 
ATOM     19 CL   UNL     1       4.933   3.535  12.927  0.00  0.00    +0.000 Cl
ATOM     20  N   UNL     1       5.087   4.304  15.401  0.00  0.00    +0.000 NA
ATOM     21  C   UNL     1       5.737   4.917  16.437  0.00  0.00    +0.000 A 
BRANCH  15  22
ATOM     22  N   UNL     1       7.679   6.145  17.313  0.00  0.00    +0.000 N 
ATOM     23  H   UNL     1       8.158   6.944  16.901  0.00  0.00    +0.000 HD
ATOM     24  H   UNL     1       8.335   5.540  17.796  0.00  0.00    +0.000 HD
ENDBRANCH  15  22
ENDBRANCH  14  21
ENDBRANCH   1  14
TORSDOF 6
ENDMDL
MODEL 8
REMARK VINA RESULT:      -6.9      3.616      5.265
REMARK  Name = 
REMARK  6 active torsions:
REMARK  status: ('A' for Active; 'I' for Inactive)
REMARK    1  A    between atoms: N_1  and  C_2
REMARK    2  A    between atoms: C_8  and  C_9
REMARK    3  A    between atoms: C_9  and  N_10
REMARK    4  A    between atoms: N_10  and  C_11
REMARK    5  A    between atoms: C_11  and  N_13
REMARK    6  A    between atoms: N_13  and  C_14
REMARK                            x       y       z     vdW  Elec       q    Type
REMARK                         _______ _______ _______ _____ _____    ______ ____
ROOT
ATOM      1  N   UNL     1       3.260   3.514  21.006  0.00  0.00    +0.000 N 
ATOM      2  H   UNL     1       3.510   3.487  21.992  0.00  0.00    +0.000 HD
ENDROOT
BRANCH   1   3
ATOM      3  C   UNL     1       2.290   4.396  20.634  0.00  0.00    +0.000 C 
ATOM      4  S   UNL     1       0.786   3.986  20.045  0.00  0.00    +0.000 S 
BRANCH   3   5
ATOM      5  N   UNL     1       2.651   5.714  20.732  0.00  0.00    +0.000 N 
ATOM      6  H   UNL     1       3.261   5.958  21.508  0.00  0.00    +0.000 HD
BRANCH   5   7
ATOM      7  C   UNL     1       2.477   6.721  19.747  0.00  0.00    +0.000 A 
ATOM      8  C   UNL     1       3.130   6.645  18.507  0.00  0.00    +0.000 A 
ATOM      9  C   UNL     1       3.011   7.672  17.570  0.00  0.00    +0.000 A 
ATOM     10  C   UNL     1       2.231   8.788  17.858  0.00  0.00    +0.000 A 
ATOM     11  C   UNL     1       1.578   8.882  19.089  0.00  0.00    +0.000 A 
ATOM     12  C   UNL     1       1.715   7.862  20.036  0.00  0.00    +0.000 A 
ATOM     13 CL   UNL     1       0.881   8.025  21.542  0.00  0.00    +0.000 Cl
ENDBRANCH   5   7
ENDBRANCH   3   5
ENDBRANCH   1   3
BRANCH   1  14
ATOM     14  C   UNL     1       4.011   2.604  20.160  0.00  0.00    +0.000 C 
BRANCH  14  21
ATOM     15  C   UNL     1       4.034   3.177  17.697  0.00  0.00    +0.000 A 
ATOM     16  N   UNL     1       4.574   3.772  16.611  0.00  0.00    +0.000 NA
ATOM     17  C   UNL     1       5.688   4.515  16.830  0.00  0.00    +0.000 A 
ATOM     18  C   UNL     1       6.251   4.658  18.082  0.00  0.00    +0.000 A 
ATOM     19 CL   UNL     1       7.657   5.601  18.338  0.00  0.00    +0.000 Cl
ATOM     20  N   UNL     1       5.738   4.071  19.177  0.00  0.00    +0.000 NA
ATOM     21  C   UNL     1       4.615   3.317  18.970  0.00  0.00    +0.000 A 
BRANCH  15  22
ATOM     22  N   UNL     1       2.909   2.396  17.456  0.00  0.00    +0.000 N 
ATOM     23  H   UNL     1       3.161   1.433  17.673  0.00  0.00    +0.000 HD
ATOM     24  H   UNL     1       2.576   2.476  16.500  0.00  0.00    +0.000 HD
ENDBRANCH  15  22
ENDBRANCH  14  21
ENDBRANCH   1  14
TORSDOF 6
ENDMDL
MODEL 9
REMARK VINA RESULT:      -6.9      1.245      1.649
REMARK  Name = 
REMARK  6 active torsions:
REMARK  status: ('A' for Active; 'I' for Inactive)
REMARK    1  A    between atoms: N_1  and  C_2
REMARK    2  A    between atoms: C_8  and  C_9
REMARK    3  A    between atoms: C_9  and  N_10
REMARK    4  A    between atoms: N_10  and  C_11
REMARK    5  A    between atoms: C_11  and  N_13
REMARK    6  A    between atoms: N_13  and  C_14
REMARK                            x       y       z     vdW  Elec       q    Type
REMARK                         _______ _______ _______ _____ _____    ______ ____
ROOT
ATOM      1  N   UNL     1       5.941   3.867  17.156  0.00  0.00    +0.000 N 
ATOM      2  H   UNL     1       6.544   3.092  16.889  0.00  0.00    +0.000 HD
ENDROOT
BRANCH   1   3
ATOM      3  C   UNL     1       5.994   4.277  18.455  0.00  0.00    +0.000 C 
ATOM      4  S   UNL     1       6.947   5.512  19.040  0.00  0.00    +0.000 S 
BRANCH   3   5
ATOM      5  N   UNL     1       5.213   3.549  19.314  0.00  0.00    +0.000 N 
ATOM      6  H   UNL     1       5.616   3.342  20.223  0.00  0.00    +0.000 HD
BRANCH   5   7
ATOM      7  C   UNL     1       3.828   3.268  19.177  0.00  0.00    +0.000 A 
ATOM      8  C   UNL     1       3.378   1.987  18.824  0.00  0.00    +0.000 A 
ATOM      9  C   UNL     1       2.021   1.734  18.622  0.00  0.00    +0.000 A 
ATOM     10  C   UNL     1       1.092   2.759  18.778  0.00  0.00    +0.000 A 
ATOM     11  C   UNL     1       1.524   4.041  19.125  0.00  0.00    +0.000 A 
ATOM     12  C   UNL     1       2.887   4.298  19.306  0.00  0.00    +0.000 A 
ATOM     13 CL   UNL     1       3.366   5.903  19.739  0.00  0.00    +0.000 Cl
ENDBRANCH   5   7
ENDBRANCH   3   5
ENDBRANCH   1   3
BRANCH   1  14
ATOM     14  C   UNL     1       5.136   4.414  16.079  0.00  0.00    +0.000 C 
BRANCH  14  21
ATOM     15  C   UNL     1       7.029   5.060  14.531  0.00  0.00    +0.000 A 
ATOM     16  N   UNL     1       7.665   5.029  13.340  0.00  0.00    +0.000 NA
ATOM     17  C   UNL     1       7.107   4.242  12.386  0.00  0.00    +0.000 A 
ATOM     18  C   UNL     1       5.953   3.515  12.604  0.00  0.00    +0.000 A 
ATOM     19 CL   UNL     1       5.265   2.526  11.387  0.00  0.00    +0.000 Cl
ATOM     20  N   UNL     1       5.297   3.535  13.778  0.00  0.00    +0.000 NA
ATOM     21  C   UNL     1       5.849   4.326  14.747  0.00  0.00    +0.000 A 
BRANCH  15  22
ATOM     22  N   UNL     1       7.594   5.892  15.491  0.00  0.00    +0.000 N 
ATOM     23  H   UNL     1       8.533   6.125  15.169  0.00  0.00    +0.000 HD
ATOM     24  H   UNL     1       7.624   5.462  16.410  0.00  0.00    +0.000 HD
ENDBRANCH  15  22
ENDBRANCH  14  21
ENDBRANCH   1  14
TORSDOF 6
ENDMDL
