MODEL 1
REMARK VINA RESULT:      -6.3      0.000      0.000
REMARK  Name = 
REMARK  5 active torsions:
REMARK  status: ('A' for Active; 'I' for Inactive)
REMARK    1  A    between atoms: C_2  and  C_3
REMARK    2  A    between atoms: C_3  and  N_4
REMARK    3  A    between atoms: N_4  and  C_5
REMARK    4  A    between atoms: C_8  and  S_9
REMARK    5  A    between atoms: S_9  and  N_10
REMARK                            x       y       z     vdW  Elec       q    Type
REMARK                         _______ _______ _______ _____ _____    ______ ____
ROOT
ATOM      1  C   UNL     1       2.699   4.466  17.710  0.00  0.00    +0.000 A 
ATOM      2  C   UNL     1       3.182   5.762  17.952  0.00  0.00    +0.000 A 
ATOM      3  C   UNL     1       4.471   6.162  17.551  0.00  0.00    +0.000 A 
ATOM      4  C   UNL     1       5.339   5.219  16.997  0.00  0.00    +0.000 A 
ATOM      5  C   UNL     1       4.883   3.927  16.743  0.00  0.00    +0.000 A 
ATOM      6  C   UNL     1       3.571   3.567  17.086  0.00  0.00    +0.000 A 
ENDROOT
BRANCH   4   7
ATOM      7  S   UNL     1       7.047   5.616  16.700  0.00  0.00    +0.000 S 
ATOM      8  O   UNL     1       7.233   7.024  16.904  0.00  0.00    +0.000 OA
ATOM      9  O   UNL     1       7.871   4.609  17.342  0.00  0.00    +0.000 OA
BRANCH   7  10
ATOM     10  N   UNL     1       7.172   5.338  15.055  0.00  0.00    +0.000 NA
ATOM     11  H   UNL     1       7.614   6.073  14.510  0.00  0.00    +0.000 HD
ATOM     12  H   UNL     1       6.444   4.762  14.640  0.00  0.00    +0.000 HD
ENDBRANCH   7  10
ENDBRANCH   4   7
BRANCH   1  13
ATOM     13  N   UNL     1       1.404   4.132  18.079  0.00  0.00    +0.000 N 
ATOM     14  H   UNL     1       0.646   4.695  17.717  0.00  0.00    +0.000 HD
BRANCH  13  15
ATOM     15  C   UNL     1       1.048   2.837  18.644  0.00  0.00    +0.000 C 
BRANCH  15  17
ATOM     16  C   UNL     1       1.452   2.799  21.439  0.00  0.00    +0.000 C 
ATOM     17  C   UNL     1       1.266   2.817  20.148  0.00  0.00    +0.000 C 
ENDBRANCH  15  17
ENDBRANCH  13  15
ENDBRANCH   1  13
TORSDOF 5
ENDMDL
MODEL 2
REMARK VINA RESULT:      -6.3      1.055      1.087
REMARK  Name = 
REMARK  5 active torsions:
REMARK  status: ('A' for Active; 'I' for Inactive)
REMARK    1  A    between atoms: C_2  and  C_3
REMARK    2  A    between atoms: C_3  and  N_4
REMARK    3  A    between atoms: N_4  and  C_5
REMARK    4  A    between atoms: C_8  and  S_9
REMARK    5  A    between atoms: S_9  and  N_10
REMARK                            x       y       z     vdW  Elec       q    Type
REMARK                         _______ _______ _______ _____ _____    ______ ____
ROOT
ATOM      1  C   UNL     1       2.750   4.377  17.749  0.00  0.00    +0.000 A 
ATOM      2  C   UNL     1       3.203   5.606  18.258  0.00  0.00    +0.000 A 
ATOM      3  C   UNL     1       4.513   6.066  18.030  0.00  0.00    +0.000 A 
ATOM      4  C   UNL     1       5.428   5.236  17.379  0.00  0.00    +0.000 A 
ATOM      5  C   UNL     1       5.003   4.014  16.862  0.00  0.00    +0.000 A 
ATOM      6  C   UNL     1       3.673   3.603  17.038  0.00  0.00    +0.000 A 
ENDROOT
BRANCH   4   7
ATOM      7  S   UNL     1       7.149   5.674  17.283  0.00  0.00    +0.000 S 
ATOM      8  O   UNL     1       7.466   5.992  15.920  0.00  0.00    +0.000 OA
ATOM      9  O   UNL     1       7.462   6.554  18.393  0.00  0.00    +0.000 OA
BRANCH   7  10
ATOM     10  N   UNL     1       7.884   4.212  17.629  0.00  0.00    +0.000 NA
ATOM     11  H   UNL     1       7.967   3.975  18.614  0.00  0.00    +0.000 HD
ATOM     12  H   UNL     1       8.587   3.894  16.967  0.00  0.00    +0.000 HD
ENDBRANCH   7  10
ENDBRANCH   4   7
BRANCH   1  13
ATOM     13  N   UNL     1       1.436   3.986  17.957  0.00  0.00    +0.000 N 
ATOM     14  H   UNL     1       0.711   4.453  17.428  0.00  0.00    +0.000 HD
BRANCH  13  15
ATOM     15  C   UNL     1       1.072   2.730  18.600  0.00  0.00    +0.000 C 
BRANCH  15  17
ATOM     16  C   UNL     1       1.563   2.829  21.379  0.00  0.00    +0.000 C 
ATOM     17  C   UNL     1       1.337   2.784  20.095  0.00  0.00    +0.000 C 
ENDBRANCH  15  17
ENDBRANCH  13  15
ENDBRANCH   1  13
TORSDOF 5
ENDMDL
MODEL 3
REMARK VINA RESULT:      -6.3      1.060      1.704
REMARK  Name = 
REMARK  5 active torsions:
REMARK  status: ('A' for Active; 'I' for Inactive)
REMARK    1  A    between atoms: C_2  and  C_3
REMARK    2  A    between atoms: C_3  and  N_4
REMARK    3  A    between atoms: N_4  and  C_5
REMARK    4  A    between atoms: C_8  and  S_9
REMARK    5  A    between atoms: S_9  and  N_10
REMARK                            x       y       z     vdW  Elec       q    Type
REMARK                         _______ _______ _______ _____ _____    ______ ____
ROOT
ATOM      1  C   UNL     1       2.737   4.397  17.889  0.00  0.00    +0.000 A 
ATOM      2  C   UNL     1       3.562   3.583  17.094  0.00  0.00    +0.000 A 
ATOM      3  C   UNL     1       4.934   3.852  16.930  0.00  0.00    +0.000 A 
ATOM      4  C   UNL     1       5.474   5.017  17.477  0.00  0.00    +0.000 A 
ATOM      5  C   UNL     1       4.678   5.839  18.272  0.00  0.00    +0.000 A 
ATOM      6  C   UNL     1       3.328   5.517  18.481  0.00  0.00    +0.000 A 
ENDROOT
BRANCH   4   7
ATOM      7  S   UNL     1       7.137   5.518  17.094  0.00  0.00    +0.000 S 
ATOM      8  O   UNL     1       7.278   5.591  15.668  0.00  0.00    +0.000 OA
ATOM      9  O   UNL     1       7.505   6.606  17.982  0.00  0.00    +0.000 OA
BRANCH   7  10
ATOM     10  N   UNL     1       8.011   4.187  17.605  0.00  0.00    +0.000 NA
ATOM     11  H   UNL     1       7.467   3.400  17.949  0.00  0.00    +0.000 HD
ATOM     12  H   UNL     1       8.934   4.375  17.987  0.00  0.00    +0.000 HD
ENDBRANCH   7  10
ENDBRANCH   4   7
BRANCH   1  13
ATOM     13  N   UNL     1       1.401   4.066  18.061  0.00  0.00    +0.000 N 
ATOM     14  H   UNL     1       0.716   4.537  17.484  0.00  0.00    +0.000 HD
BRANCH  13  15
ATOM     15  C   UNL     1       0.963   2.855  18.742  0.00  0.00    +0.000 C 
BRANCH  15  17
ATOM     16  C   UNL     1       1.670   2.916  21.476  0.00  0.00    +0.000 C 
ATOM     17  C   UNL     1       1.343   2.887  20.213  0.00  0.00    +0.000 C 
ENDBRANCH  15  17
ENDBRANCH  13  15
ENDBRANCH   1  13
TORSDOF 5
ENDMDL
MODEL 4
REMARK VINA RESULT:      -6.2      1.007      1.256
REMARK  Name = 
REMARK  5 active torsions:
REMARK  status: ('A' for Active; 'I' for Inactive)
REMARK    1  A    between atoms: C_2  and  C_3
REMARK    2  A    between atoms: C_3  and  N_4
REMARK    3  A    between atoms: N_4  and  C_5
REMARK    4  A    between atoms: C_8  and  S_9
REMARK    5  A    between atoms: S_9  and  N_10
REMARK                            x       y       z     vdW  Elec       q    Type
REMARK                         _______ _______ _______ _____ _____    ______ ____
ROOT
ATOM      1  C   UNL     1       2.840   4.595  17.812  0.00  0.00    +0.000 A 
ATOM      2  C   UNL     1       3.434   5.868  17.828  0.00  0.00    +0.000 A 
ATOM      3  C   UNL     1       4.682   6.113  17.226  0.00  0.00    +0.000 A 
ATOM      4  C   UNL     1       5.407   5.046  16.693  0.00  0.00    +0.000 A 
ATOM      5  C   UNL     1       4.839   3.773  16.660  0.00  0.00    +0.000 A 
ATOM      6  C   UNL     1       3.563   3.562  17.204  0.00  0.00    +0.000 A 
ENDROOT
BRANCH   4   7
ATOM      7  S   UNL     1       7.083   5.267  16.140  0.00  0.00    +0.000 S 
ATOM      8  O   UNL     1       7.926   4.352  16.856  0.00  0.00    +0.000 OA
ATOM      9  O   UNL     1       7.080   5.371  14.693  0.00  0.00    +0.000 OA
BRANCH   7  10
ATOM     10  N   UNL     1       7.424   6.800  16.716  0.00  0.00    +0.000 NA
ATOM     11  H   UNL     1       7.113   7.574  16.135  0.00  0.00    +0.000 HD
ATOM     12  H   UNL     1       8.262   6.891  17.283  0.00  0.00    +0.000 HD
ENDBRANCH   7  10
ENDBRANCH   4   7
BRANCH   1  13
ATOM     13  N   UNL     1       1.586   4.410  18.376  0.00  0.00    +0.000 N 
ATOM     14  H   UNL     1       0.894   5.136  18.244  0.00  0.00    +0.000 HD
BRANCH  13  15
ATOM     15  C   UNL     1       1.099   3.112  18.822  0.00  0.00    +0.000 C 
BRANCH  15  17
ATOM     16  C   UNL     1       1.569   2.743  21.582  0.00  0.00    +0.000 C 
ATOM     17  C   UNL     1       1.351   2.914  20.308  0.00  0.00    +0.000 C 
ENDBRANCH  15  17
ENDBRANCH  13  15
ENDBRANCH   1  13
TORSDOF 5
ENDMDL
MODEL 5
REMARK VINA RESULT:      -6.2      0.997      1.788
REMARK  Name = 
REMARK  5 active torsions:
REMARK  status: ('A' for Active; 'I' for Inactive)
REMARK    1  A    between atoms: C_2  and  C_3
REMARK    2  A    between atoms: C_3  and  N_4
REMARK    3  A    between atoms: N_4  and  C_5
REMARK    4  A    between atoms: C_8  and  S_9
REMARK    5  A    between atoms: S_9  and  N_10
REMARK                            x       y       z     vdW  Elec       q    Type
REMARK                         _______ _______ _______ _____ _____    ______ ____
ROOT
ATOM      1  C   UNL     1       2.556   4.333  17.775  0.00  0.00    +0.000 A 
ATOM      2  C   UNL     1       3.396   3.363  17.203  0.00  0.00    +0.000 A 
ATOM      3  C   UNL     1       4.723   3.653  16.837  0.00  0.00    +0.000 A 
ATOM      4  C   UNL     1       5.191   4.965  16.937  0.00  0.00    +0.000 A 
ATOM      5  C   UNL     1       4.379   5.945  17.505  0.00  0.00    +0.000 A 
ATOM      6  C   UNL     1       3.082   5.620  17.929  0.00  0.00    +0.000 A 
ENDROOT
BRANCH   4   7
ATOM      7  S   UNL     1       6.773   5.424  16.265  0.00  0.00    +0.000 S 
ATOM      8  O   UNL     1       7.785   4.614  16.881  0.00  0.00    +0.000 OA
ATOM      9  O   UNL     1       6.638   5.561  14.827  0.00  0.00    +0.000 OA
BRANCH   7  10
ATOM     10  N   UNL     1       6.952   6.974  16.865  0.00  0.00    +0.000 NA
ATOM     11  H   UNL     1       6.562   7.144  17.789  0.00  0.00    +0.000 HD
ATOM     12  H   UNL     1       6.980   7.722  16.178  0.00  0.00    +0.000 HD
ENDBRANCH   7  10
ENDBRANCH   4   7
BRANCH   1  13
ATOM     13  N   UNL     1       1.270   3.989  18.165  0.00  0.00    +0.000 N 
ATOM     14  H   UNL     1       0.497   4.495  17.754  0.00  0.00    +0.000 HD
BRANCH  13  15
ATOM     15  C   UNL     1       0.951   2.735  18.835  0.00  0.00    +0.000 C 
BRANCH  15  17
ATOM     16  C   UNL     1       1.621   2.848  21.576  0.00  0.00    +0.000 C 
ATOM     17  C   UNL     1       1.312   2.796  20.310  0.00  0.00    +0.000 C 
ENDBRANCH  15  17
ENDBRANCH  13  15
ENDBRANCH   1  13
TORSDOF 5
ENDMDL
MODEL 6
REMARK VINA RESULT:      -6.1      1.762      2.391
REMARK  Name = 
REMARK  5 active torsions:
REMARK  status: ('A' for Active; 'I' for Inactive)
REMARK    1  A    between atoms: C_2  and  C_3
REMARK    2  A    between atoms: C_3  and  N_4
REMARK    3  A    between atoms: N_4  and  C_5
REMARK    4  A    between atoms: C_8  and  S_9
REMARK    5  A    between atoms: S_9  and  N_10
REMARK                            x       y       z     vdW  Elec       q    Type
REMARK                         _______ _______ _______ _____ _____    ______ ____
ROOT
ATOM      1  C   UNL     1       3.497   5.702  19.336  0.00  0.00    +0.000 A 
ATOM      2  C   UNL     1       4.622   4.937  19.682  0.00  0.00    +0.000 A 
ATOM      3  C   UNL     1       5.699   4.755  18.794  0.00  0.00    +0.000 A 
ATOM      4  C   UNL     1       5.605   5.252  17.493  0.00  0.00    +0.000 A 
ATOM      5  C   UNL     1       4.501   6.018  17.125  0.00  0.00    +0.000 A 
ATOM      6  C   UNL     1       3.469   6.247  18.048  0.00  0.00    +0.000 A 
ENDROOT
BRANCH   4   7
ATOM      7  S   UNL     1       6.829   4.841  16.269  0.00  0.00    +0.000 S 
ATOM      8  O   UNL     1       6.305   3.806  15.426  0.00  0.00    +0.000 OA
ATOM      9  O   UNL     1       7.391   6.074  15.750  0.00  0.00    +0.000 OA
BRANCH   7  10
ATOM     10  N   UNL     1       8.023   4.148  17.212  0.00  0.00    +0.000 NA
ATOM     11  H   UNL     1       8.223   4.613  18.095  0.00  0.00    +0.000 HD
ATOM     12  H   UNL     1       8.762   3.659  16.714  0.00  0.00    +0.000 HD
ENDBRANCH   7  10
ENDBRANCH   4   7
BRANCH   1  13
ATOM     13  N   UNL     1       2.481   5.894  20.261  0.00  0.00    +0.000 N 
ATOM     14  H   UNL     1       2.003   6.786  20.264  0.00  0.00    +0.000 HD
BRANCH  13  15
ATOM     15  C   UNL     1       1.831   4.798  20.967  0.00  0.00    +0.000 C 
BRANCH  15  17
ATOM     16  C   UNL     1       0.828   2.877  19.156  0.00  0.00    +0.000 C 
ATOM     17  C   UNL     1       1.291   3.764  19.993  0.00  0.00    +0.000 C 
ENDBRANCH  15  17
ENDBRANCH  13  15
ENDBRANCH   1  13
TORSDOF 5
ENDMDL
MODEL 7
REMARK VINA RESULT:      -6.1      1.817      2.147
REMARK  Name = 
REMARK  5 active torsions:
REMARK  status: ('A' for Active; 'I' for Inactive)
REMARK    1  A    between atoms: C_2  and  C_3
REMARK    2  A    between atoms: C_3  and  N_4
REMARK    3  A    between atoms: N_4  and  C_5
REMARK    4  A    between atoms: C_8  and  S_9
REMARK    5  A    between atoms: S_9  and  N_10
REMARK                            x       y       z     vdW  Elec       q    Type
REMARK                         _______ _______ _______ _____ _____    ______ ____
ROOT
ATOM      1  C   UNL     1       3.587   5.616  19.396  0.00  0.00    +0.000 A 
ATOM      2  C   UNL     1       3.534   6.255  18.146  0.00  0.00    +0.000 A 
ATOM      3  C   UNL     1       4.460   5.968  17.126  0.00  0.00    +0.000 A 
ATOM      4  C   UNL     1       5.528   5.110  17.391  0.00  0.00    +0.000 A 
ATOM      5  C   UNL     1       5.602   4.461  18.622  0.00  0.00    +0.000 A 
ATOM      6  C   UNL     1       4.629   4.707  19.603  0.00  0.00    +0.000 A 
ENDROOT
BRANCH   4   7
ATOM      7  S   UNL     1       6.849   4.906  16.218  0.00  0.00    +0.000 S 
ATOM      8  O   UNL     1       6.434   3.964  15.219  0.00  0.00    +0.000 OA
ATOM      9  O   UNL     1       7.382   6.217  15.894  0.00  0.00    +0.000 OA
BRANCH   7  10
ATOM     10  N   UNL     1       8.012   4.150  17.152  0.00  0.00    +0.000 NA
ATOM     11  H   UNL     1       8.842   4.698  17.363  0.00  0.00    +0.000 HD
ATOM     12  H   UNL     1       8.076   3.140  17.059  0.00  0.00    +0.000 HD
ENDBRANCH   7  10
ENDBRANCH   4   7
BRANCH   1  13
ATOM     13  N   UNL     1       2.624   5.895  20.355  0.00  0.00    +0.000 N 
ATOM     14  H   UNL     1       2.675   6.784  20.836  0.00  0.00    +0.000 HD
BRANCH  13  15
ATOM     15  C   UNL     1       1.365   5.168  20.452  0.00  0.00    +0.000 C 
BRANCH  15  17
ATOM     16  C   UNL     1       1.753   2.612  21.590  0.00  0.00    +0.000 C 
ATOM     17  C   UNL     1       1.574   3.793  21.064  0.00  0.00    +0.000 C 
ENDBRANCH  15  17
ENDBRANCH  13  15
ENDBRANCH   1  13
TORSDOF 5
ENDMDL
MODEL 8
REMARK VINA RESULT:      -6.0      1.308      1.565
REMARK  Name = 
REMARK  5 active torsions:
REMARK  status: ('A' for Active; 'I' for Inactive)
REMARK    1  A    between atoms: C_2  and  C_3
REMARK    2  A    between atoms: C_3  and  N_4
REMARK    3  A    between atoms: N_4  and  C_5
REMARK    4  A    between atoms: C_8  and  S_9
REMARK    5  A    between atoms: S_9  and  N_10
REMARK                            x       y       z     vdW  Elec       q    Type
REMARK                         _______ _______ _______ _____ _____    ______ ____
ROOT
ATOM      1  C   UNL     1       2.884   4.863  18.131  0.00  0.00    +0.000 A 
ATOM      2  C   UNL     1       3.650   6.036  18.226  0.00  0.00    +0.000 A 
ATOM      3  C   UNL     1       4.860   6.192  17.523  0.00  0.00    +0.000 A 
ATOM      4  C   UNL     1       5.375   5.115  16.799  0.00  0.00    +0.000 A 
ATOM      5  C   UNL     1       4.632   3.942  16.686  0.00  0.00    +0.000 A 
ATOM      6  C   UNL     1       3.394   3.831  17.337  0.00  0.00    +0.000 A 
ENDROOT
BRANCH   4   7
ATOM      7  S   UNL     1       7.008   5.186  16.097  0.00  0.00    +0.000 S 
ATOM      8  O   UNL     1       6.988   4.527  14.822  0.00  0.00    +0.000 OA
ATOM      9  O   UNL     1       7.532   6.526  16.286  0.00  0.00    +0.000 OA
BRANCH   7  10
ATOM     10  N   UNL     1       7.863   4.201  17.144  0.00  0.00    +0.000 NA
ATOM     11  H   UNL     1       7.444   4.051  18.059  0.00  0.00    +0.000 HD
ATOM     12  H   UNL     1       8.873   4.204  17.040  0.00  0.00    +0.000 HD
ENDBRANCH   7  10
ENDBRANCH   4   7
BRANCH   1  13
ATOM     13  N   UNL     1       1.674   4.773  18.803  0.00  0.00    +0.000 N 
ATOM     14  H   UNL     1       0.918   4.270  18.357  0.00  0.00    +0.000 HD
BRANCH  13  15
ATOM     15  C   UNL     1       1.535   5.035  20.229  0.00  0.00    +0.000 C 
BRANCH  15  17
ATOM     16  C   UNL     1       1.965   2.687  21.739  0.00  0.00    +0.000 C 
ATOM     17  C   UNL     1       1.767   3.771  21.042  0.00  0.00    +0.000 C 
ENDBRANCH  15  17
ENDBRANCH  13  15
ENDBRANCH   1  13
TORSDOF 5
ENDMDL
MODEL 9
REMARK VINA RESULT:      -6.0      1.574      1.758
REMARK  Name = 
REMARK  5 active torsions:
REMARK  status: ('A' for Active; 'I' for Inactive)
REMARK    1  A    between atoms: C_2  and  C_3
REMARK    2  A    between atoms: C_3  and  N_4
REMARK    3  A    between atoms: N_4  and  C_5
REMARK    4  A    between atoms: C_8  and  S_9
REMARK    5  A    between atoms: S_9  and  N_10
REMARK                            x       y       z     vdW  Elec       q    Type
REMARK                         _______ _______ _______ _____ _____    ______ ____
ROOT
ATOM      1  C   UNL     1       3.284   2.898  17.994  0.00  0.00    +0.000 A 
ATOM      2  C   UNL     1       4.171   3.086  19.068  0.00  0.00    +0.000 A 
ATOM      3  C   UNL     1       5.295   3.926  18.964  0.00  0.00    +0.000 A 
ATOM      4  C   UNL     1       5.607   4.504  17.732  0.00  0.00    +0.000 A 
ATOM      5  C   UNL     1       4.742   4.336  16.652  0.00  0.00    +0.000 A 
ATOM      6  C   UNL     1       3.588   3.551  16.795  0.00  0.00    +0.000 A 
ENDROOT
BRANCH   4   7
ATOM      7  S   UNL     1       7.141   5.373  17.494  0.00  0.00    +0.000 S 
ATOM      8  O   UNL     1       7.219   5.800  16.127  0.00  0.00    +0.000 OA
ATOM      9  O   UNL     1       7.338   6.272  18.616  0.00  0.00    +0.000 OA
BRANCH   7  10
ATOM     10  N   UNL     1       8.255   4.140  17.687  0.00  0.00    +0.000 NA
ATOM     11  H   UNL     1       9.210   4.353  17.409  0.00  0.00    +0.000 HD
ATOM     12  H   UNL     1       7.897   3.193  17.600  0.00  0.00    +0.000 HD
ENDBRANCH   7  10
ENDBRANCH   4   7
BRANCH   1  13
ATOM     13  N   UNL     1       2.162   2.098  18.157  0.00  0.00    +0.000 N 
ATOM     14  H   UNL     1       2.272   1.098  18.052  0.00  0.00    +0.000 HD
BRANCH  13  15
ATOM     15  C   UNL     1       0.946   2.560  18.813  0.00  0.00    +0.000 C 
BRANCH  15  17
ATOM     16  C   UNL     1       1.343   2.872  21.592  0.00  0.00    +0.000 C 
ATOM     17  C   UNL     1       1.160   2.728  20.308  0.00  0.00    +0.000 C 
ENDBRANCH  15  17
ENDBRANCH  13  15
ENDBRANCH   1  13
TORSDOF 5
ENDMDL
