MODEL 1
REMARK VINA RESULT:      -6.7      0.000      0.000
REMARK  Name = 
REMARK  3 active torsions:
REMARK  status: ('A' for Active; 'I' for Inactive)
REMARK    1  A    between atoms: C_2  and  C_3
REMARK    2  A    between atoms: C_2  and  C_13
REMARK    3  A    between atoms: C_7  and  C_8
REMARK                            x       y       z     vdW  Elec       q    Type
REMARK                         _______ _______ _______ _____ _____    ______ ____
ROOT
ATOM      1  C   UNL     1       4.456   4.293  18.258  0.00  0.00    +0.000 A 
ATOM      2  C   UNL     1       3.883   3.718  17.119  0.00  0.00    +0.000 A 
ATOM      3  C   UNL     1       2.565   3.257  17.155  0.00  0.00    +0.000 A 
ATOM      4  C   UNL     1       1.817   3.355  18.330  0.00  0.00    +0.000 A 
ATOM      5  C   UNL     1       2.378   3.909  19.489  0.00  0.00    +0.000 A 
ATOM      6  C   UNL     1       3.702   4.380  19.440  0.00  0.00    +0.000 A 
ENDROOT
BRANCH   5   7
ATOM      7  C   UNL     1       1.583   4.001  20.770  0.00  0.00    +0.000 C 
ATOM      8  F   UNL     1       0.738   2.947  20.960  0.00  0.00    +0.000 F 
ATOM      9  F   UNL     1       2.381   4.039  21.872  0.00  0.00    +0.000 F 
ATOM     10  F   UNL     1       0.806   5.116  20.826  0.00  0.00    +0.000 F 
ENDBRANCH   5   7
BRANCH   1  12
ATOM     11  O   UNL     1       6.537   4.637  19.254  0.00  0.00    +0.000 OA
ATOM     12  C   UNL     1       5.838   4.862  18.265  0.00  0.00    +0.000 C 
BRANCH  12  13
ATOM     13  C   UNL     1       6.299   5.675  17.067  0.00  0.00    +0.000 C 
ATOM     14 CL   UNL     1       7.435   6.927  17.607  0.00  0.00    +0.000 Cl
ATOM     15 CL   UNL     1       7.081   4.617  15.869  0.00  0.00    +0.000 Cl
ENDBRANCH  12  13
ENDBRANCH   1  12
TORSDOF 3
ENDMDL
MODEL 2
REMARK VINA RESULT:      -6.7      0.796      1.451
REMARK  Name = 
REMARK  3 active torsions:
REMARK  status: ('A' for Active; 'I' for Inactive)
REMARK    1  A    between atoms: C_2  and  C_3
REMARK    2  A    between atoms: C_2  and  C_13
REMARK    3  A    between atoms: C_7  and  C_8
REMARK                            x       y       z     vdW  Elec       q    Type
REMARK                         _______ _______ _______ _____ _____    ______ ____
ROOT
ATOM      1  C   UNL     1       4.459   4.299  18.251  0.00  0.00    +0.000 A 
ATOM      2  C   UNL     1       3.898   3.649  17.146  0.00  0.00    +0.000 A 
ATOM      3  C   UNL     1       2.592   3.158  17.211  0.00  0.00    +0.000 A 
ATOM      4  C   UNL     1       1.844   3.301  18.382  0.00  0.00    +0.000 A 
ATOM      5  C   UNL     1       2.393   3.931  19.507  0.00  0.00    +0.000 A 
ATOM      6  C   UNL     1       3.704   4.432  19.428  0.00  0.00    +0.000 A 
ENDROOT
BRANCH   5   7
ATOM      7  C   UNL     1       1.598   4.073  20.783  0.00  0.00    +0.000 C 
ATOM      8  F   UNL     1       2.376   4.150  21.900  0.00  0.00    +0.000 F 
ATOM      9  F   UNL     1       0.827   5.195  20.790  0.00  0.00    +0.000 F 
ATOM     10  F   UNL     1       0.750   3.030  20.991  0.00  0.00    +0.000 F 
ENDBRANCH   5   7
BRANCH   1  12
ATOM     11  O   UNL     1       6.652   4.467  19.024  0.00  0.00    +0.000 OA
ATOM     12  C   UNL     1       5.826   4.902  18.222  0.00  0.00    +0.000 C 
BRANCH  12  13
ATOM     13  C   UNL     1       6.117   6.004  17.216  0.00  0.00    +0.000 C 
ATOM     14 CL   UNL     1       4.695   7.055  17.068  0.00  0.00    +0.000 Cl
ATOM     15 CL   UNL     1       7.528   6.955  17.736  0.00  0.00    +0.000 Cl
ENDBRANCH  12  13
ENDBRANCH   1  12
TORSDOF 3
ENDMDL
MODEL 3
REMARK VINA RESULT:      -6.7      0.829      1.258
REMARK  Name = 
REMARK  3 active torsions:
REMARK  status: ('A' for Active; 'I' for Inactive)
REMARK    1  A    between atoms: C_2  and  C_3
REMARK    2  A    between atoms: C_2  and  C_13
REMARK    3  A    between atoms: C_7  and  C_8
REMARK                            x       y       z     vdW  Elec       q    Type
REMARK                         _______ _______ _______ _____ _____    ______ ____
ROOT
ATOM      1  C   UNL     1       4.455   4.381  18.168  0.00  0.00    +0.000 A 
ATOM      2  C   UNL     1       3.913   3.595  17.146  0.00  0.00    +0.000 A 
ATOM      3  C   UNL     1       2.638   3.041  17.290  0.00  0.00    +0.000 A 
ATOM      4  C   UNL     1       1.905   3.256  18.458  0.00  0.00    +0.000 A 
ATOM      5  C   UNL     1       2.437   4.025  19.502  0.00  0.00    +0.000 A 
ATOM      6  C   UNL     1       3.716   4.587  19.344  0.00  0.00    +0.000 A 
ENDROOT
BRANCH   5   7
ATOM      7  C   UNL     1       1.659   4.247  20.778  0.00  0.00    +0.000 C 
ATOM      8  F   UNL     1       2.437   4.231  21.897  0.00  0.00    +0.000 F 
ATOM      9  F   UNL     1       1.018   5.448  20.789  0.00  0.00    +0.000 F 
ATOM     10  F   UNL     1       0.700   3.304  20.978  0.00  0.00    +0.000 F 
ENDBRANCH   5   7
BRANCH   1  12
ATOM     11  O   UNL     1       6.778   4.403  18.372  0.00  0.00    +0.000 OA
ATOM     12  C   UNL     1       5.784   5.054  18.047  0.00  0.00    +0.000 C 
BRANCH  12  13
ATOM     13  C   UNL     1       5.836   6.484  17.536  0.00  0.00    +0.000 C 
ATOM     14 CL   UNL     1       7.521   7.040  17.513  0.00  0.00    +0.000 Cl
ATOM     15 CL   UNL     1       5.139   6.579  15.902  0.00  0.00    +0.000 Cl
ENDBRANCH  12  13
ENDBRANCH   1  12
TORSDOF 3
ENDMDL
MODEL 4
REMARK VINA RESULT:      -6.7      1.127      1.700
REMARK  Name = 
REMARK  3 active torsions:
REMARK  status: ('A' for Active; 'I' for Inactive)
REMARK    1  A    between atoms: C_2  and  C_3
REMARK    2  A    between atoms: C_2  and  C_13
REMARK    3  A    between atoms: C_7  and  C_8
REMARK                            x       y       z     vdW  Elec       q    Type
REMARK                         _______ _______ _______ _____ _____    ______ ____
ROOT
ATOM      1  C   UNL     1       4.938   4.668  18.640  0.00  0.00    +0.000 A 
ATOM      2  C   UNL     1       4.634   3.822  17.570  0.00  0.00    +0.000 A 
ATOM      3  C   UNL     1       3.361   3.255  17.465  0.00  0.00    +0.000 A 
ATOM      4  C   UNL     1       2.391   3.519  18.434  0.00  0.00    +0.000 A 
ATOM      5  C   UNL     1       2.681   4.349  19.525  0.00  0.00    +0.000 A 
ATOM      6  C   UNL     1       3.961   4.923  19.617  0.00  0.00    +0.000 A 
ENDROOT
BRANCH   5   7
ATOM      7  C   UNL     1       1.644   4.625  20.589  0.00  0.00    +0.000 C 
ATOM      8  F   UNL     1       1.442   5.954  20.817  0.00  0.00    +0.000 F 
ATOM      9  F   UNL     1       0.424   4.114  20.265  0.00  0.00    +0.000 F 
ATOM     10  F   UNL     1       1.973   4.086  21.793  0.00  0.00    +0.000 F 
ENDBRANCH   5   7
BRANCH   1  12
ATOM     11  O   UNL     1       6.864   5.214  19.837  0.00  0.00    +0.000 OA
ATOM     12  C   UNL     1       6.259   5.355  18.774  0.00  0.00    +0.000 C 
BRANCH  12  13
ATOM     13  C   UNL     1       6.776   6.177  17.605  0.00  0.00    +0.000 C 
ATOM     14 CL   UNL     1       5.418   7.019  16.832  0.00  0.00    +0.000 Cl
ATOM     15 CL   UNL     1       7.984   7.356  18.167  0.00  0.00    +0.000 Cl
ENDBRANCH  12  13
ENDBRANCH   1  12
TORSDOF 3
ENDMDL
MODEL 5
REMARK VINA RESULT:      -6.7      4.817      5.873
REMARK  Name = 
REMARK  3 active torsions:
REMARK  status: ('A' for Active; 'I' for Inactive)
REMARK    1  A    between atoms: C_2  and  C_3
REMARK    2  A    between atoms: C_2  and  C_13
REMARK    3  A    between atoms: C_7  and  C_8
REMARK                            x       y       z     vdW  Elec       q    Type
REMARK                         _______ _______ _______ _____ _____    ______ ____
ROOT
ATOM      1  C   UNL     1       3.316   4.896  17.550  0.00  0.00    +0.000 A 
ATOM      2  C   UNL     1       3.332   6.270  17.814  0.00  0.00    +0.000 A 
ATOM      3  C   UNL     1       4.353   7.071  17.297  0.00  0.00    +0.000 A 
ATOM      4  C   UNL     1       5.370   6.504  16.526  0.00  0.00    +0.000 A 
ATOM      5  C   UNL     1       5.383   5.127  16.265  0.00  0.00    +0.000 A 
ATOM      6  C   UNL     1       4.346   4.331  16.781  0.00  0.00    +0.000 A 
ENDROOT
BRANCH   5   7
ATOM      7  C   UNL     1       6.490   4.502  15.448  0.00  0.00    +0.000 C 
ATOM      8  F   UNL     1       6.848   5.246  14.363  0.00  0.00    +0.000 F 
ATOM      9  F   UNL     1       7.630   4.327  16.171  0.00  0.00    +0.000 F 
ATOM     10  F   UNL     1       6.156   3.275  14.965  0.00  0.00    +0.000 F 
ENDBRANCH   5   7
BRANCH   1  12
ATOM     11  O   UNL     1       1.157   4.028  17.395  0.00  0.00    +0.000 OA
ATOM     12  C   UNL     1       2.217   3.998  18.020  0.00  0.00    +0.000 C 
BRANCH  12  13
ATOM     13  C   UNL     1       2.467   3.108  19.226  0.00  0.00    +0.000 C 
ATOM     14 CL   UNL     1       0.946   2.879  20.112  0.00  0.00    +0.000 Cl
ATOM     15 CL   UNL     1       3.114   1.534  18.707  0.00  0.00    +0.000 Cl
ENDBRANCH  12  13
ENDBRANCH   1  12
TORSDOF 3
ENDMDL
MODEL 6
REMARK VINA RESULT:      -6.6      4.706      5.688
REMARK  Name = 
REMARK  3 active torsions:
REMARK  status: ('A' for Active; 'I' for Inactive)
REMARK    1  A    between atoms: C_2  and  C_3
REMARK    2  A    between atoms: C_2  and  C_13
REMARK    3  A    between atoms: C_7  and  C_8
REMARK                            x       y       z     vdW  Elec       q    Type
REMARK                         _______ _______ _______ _____ _____    ______ ____
ROOT
ATOM      1  C   UNL     1       4.401   4.639  18.036  0.00  0.00    +0.000 A 
ATOM      2  C   UNL     1       4.269   6.024  18.182  0.00  0.00    +0.000 A 
ATOM      3  C   UNL     1       4.628   6.876  17.135  0.00  0.00    +0.000 A 
ATOM      4  C   UNL     1       5.134   6.352  15.943  0.00  0.00    +0.000 A 
ATOM      5  C   UNL     1       5.292   4.968  15.783  0.00  0.00    +0.000 A 
ATOM      6  C   UNL     1       4.918   4.119  16.838  0.00  0.00    +0.000 A 
ENDROOT
BRANCH   5   7
ATOM      7  C   UNL     1       5.856   4.394  14.505  0.00  0.00    +0.000 C 
ATOM      8  F   UNL     1       4.916   4.198  13.537  0.00  0.00    +0.000 F 
ATOM      9  F   UNL     1       6.799   5.203  13.947  0.00  0.00    +0.000 F 
ATOM     10  F   UNL     1       6.455   3.187  14.692  0.00  0.00    +0.000 F 
ENDBRANCH   5   7
BRANCH   1  12
ATOM     11  O   UNL     1       4.857   3.032  19.663  0.00  0.00    +0.000 OA
ATOM     12  C   UNL     1       3.974   3.673  19.094  0.00  0.00    +0.000 C 
BRANCH  12  13
ATOM     13  C   UNL     1       2.493   3.541  19.406  0.00  0.00    +0.000 C 
ATOM     14 CL   UNL     1       2.065   4.661  20.715  0.00  0.00    +0.000 Cl
ATOM     15 CL   UNL     1       1.523   3.896  17.958  0.00  0.00    +0.000 Cl
ENDBRANCH  12  13
ENDBRANCH   1  12
TORSDOF 3
ENDMDL
MODEL 7
REMARK VINA RESULT:      -6.6      0.941      1.666
REMARK  Name = 
REMARK  3 active torsions:
REMARK  status: ('A' for Active; 'I' for Inactive)
REMARK    1  A    between atoms: C_2  and  C_3
REMARK    2  A    between atoms: C_2  and  C_13
REMARK    3  A    between atoms: C_7  and  C_8
REMARK                            x       y       z     vdW  Elec       q    Type
REMARK                         _______ _______ _______ _____ _____    ______ ____
ROOT
ATOM      1  C   UNL     1       4.596   4.410  18.070  0.00  0.00    +0.000 A 
ATOM      2  C   UNL     1       3.960   3.660  17.075  0.00  0.00    +0.000 A 
ATOM      3  C   UNL     1       2.603   3.349  17.192  0.00  0.00    +0.000 A 
ATOM      4  C   UNL     1       1.878   3.771  18.309  0.00  0.00    +0.000 A 
ATOM      5  C   UNL     1       2.500   4.506  19.327  0.00  0.00    +0.000 A 
ATOM      6  C   UNL     1       3.863   4.823  19.195  0.00  0.00    +0.000 A 
ENDROOT
BRANCH   5   7
ATOM      7  C   UNL     1       1.728   4.949  20.548  0.00  0.00    +0.000 C 
ATOM      8  F   UNL     1       1.575   6.301  20.630  0.00  0.00    +0.000 F 
ATOM      9  F   UNL     1       0.470   4.430  20.580  0.00  0.00    +0.000 F 
ATOM     10  F   UNL     1       2.323   4.570  21.710  0.00  0.00    +0.000 F 
ENDBRANCH   5   7
BRANCH   1  12
ATOM     11  O   UNL     1       6.791   4.440  18.855  0.00  0.00    +0.000 OA
ATOM     12  C   UNL     1       6.027   4.830  17.972  0.00  0.00    +0.000 C 
BRANCH  12  13
ATOM     13  C   UNL     1       6.453   5.701  16.802  0.00  0.00    +0.000 C 
ATOM     14 CL   UNL     1       7.015   4.667  15.473  0.00  0.00    +0.000 Cl
ATOM     15 CL   UNL     1       5.092   6.709  16.257  0.00  0.00    +0.000 Cl
ENDBRANCH  12  13
ENDBRANCH   1  12
TORSDOF 3
ENDMDL
MODEL 8
REMARK VINA RESULT:      -6.6      0.943      1.473
REMARK  Name = 
REMARK  3 active torsions:
REMARK  status: ('A' for Active; 'I' for Inactive)
REMARK    1  A    between atoms: C_2  and  C_3
REMARK    2  A    between atoms: C_2  and  C_13
REMARK    3  A    between atoms: C_7  and  C_8
REMARK                            x       y       z     vdW  Elec       q    Type
REMARK                         _______ _______ _______ _____ _____    ______ ____
ROOT
ATOM      1  C   UNL     1       4.636   4.333  18.061  0.00  0.00    +0.000 A 
ATOM      2  C   UNL     1       3.995   3.561  17.087  0.00  0.00    +0.000 A 
ATOM      3  C   UNL     1       2.649   3.218  17.239  0.00  0.00    +0.000 A 
ATOM      4  C   UNL     1       1.941   3.632  18.370  0.00  0.00    +0.000 A 
ATOM      5  C   UNL     1       2.569   4.390  19.367  0.00  0.00    +0.000 A 
ATOM      6  C   UNL     1       3.921   4.739  19.199  0.00  0.00    +0.000 A 
ENDROOT
BRANCH   5   7
ATOM      7  C   UNL     1       1.816   4.826  20.602  0.00  0.00    +0.000 C 
ATOM      8  F   UNL     1       2.327   4.312  21.757  0.00  0.00    +0.000 F 
ATOM      9  F   UNL     1       1.825   6.178  20.762  0.00  0.00    +0.000 F 
ATOM     10  F   UNL     1       0.508   4.456  20.576  0.00  0.00    +0.000 F 
ENDBRANCH   5   7
BRANCH   1  12
ATOM     11  O   UNL     1       6.850   4.417  18.788  0.00  0.00    +0.000 OA
ATOM     12  C   UNL     1       6.054   4.787  17.924  0.00  0.00    +0.000 C 
BRANCH  12  13
ATOM     13  C   UNL     1       6.429   5.665  16.743  0.00  0.00    +0.000 C 
ATOM     14 CL   UNL     1       6.992   4.643  15.405  0.00  0.00    +0.000 Cl
ATOM     15 CL   UNL     1       5.028   6.632  16.224  0.00  0.00    +0.000 Cl
ENDBRANCH  12  13
ENDBRANCH   1  12
TORSDOF 3
ENDMDL
MODEL 9
REMARK VINA RESULT:      -6.6      1.700      2.358
REMARK  Name = 
REMARK  3 active torsions:
REMARK  status: ('A' for Active; 'I' for Inactive)
REMARK    1  A    between atoms: C_2  and  C_3
REMARK    2  A    between atoms: C_2  and  C_13
REMARK    3  A    between atoms: C_7  and  C_8
REMARK                            x       y       z     vdW  Elec       q    Type
REMARK                         _______ _______ _______ _____ _____    ______ ____
ROOT
ATOM      1  C   UNL     1       4.905   5.068  18.577  0.00  0.00    +0.000 A 
ATOM      2  C   UNL     1       4.109   6.129  18.131  0.00  0.00    +0.000 A 
ATOM      3  C   UNL     1       2.731   5.956  17.983  0.00  0.00    +0.000 A 
ATOM      4  C   UNL     1       2.142   4.721  18.265  0.00  0.00    +0.000 A 
ATOM      5  C   UNL     1       2.924   3.640  18.694  0.00  0.00    +0.000 A 
ATOM      6  C   UNL     1       4.308   3.827  18.851  0.00  0.00    +0.000 A 
ENDROOT
BRANCH   5   7
ATOM      7  C   UNL     1       2.298   2.295  18.983  0.00  0.00    +0.000 C 
ATOM      8  F   UNL     1       1.116   2.097  18.332  0.00  0.00    +0.000 F 
ATOM      9  F   UNL     1       3.103   1.261  18.614  0.00  0.00    +0.000 F 
ATOM     10  F   UNL     1       2.031   2.114  20.304  0.00  0.00    +0.000 F 
ENDBRANCH   5   7
BRANCH   1  12
ATOM     11  O   UNL     1       6.758   5.190  19.987  0.00  0.00    +0.000 OA
ATOM     12  C   UNL     1       6.374   5.209  18.817  0.00  0.00    +0.000 C 
BRANCH  12  13
ATOM     13  C   UNL     1       7.298   5.363  17.621  0.00  0.00    +0.000 C 
ATOM     14 CL   UNL     1       6.622   4.478  16.238  0.00  0.00    +0.000 Cl
ATOM     15 CL   UNL     1       7.491   7.083  17.210  0.00  0.00    +0.000 Cl
ENDBRANCH  12  13
ENDBRANCH   1  12
TORSDOF 3
ENDMDL
