MODEL 1
REMARK VINA RESULT:      -8.1      0.000      0.000
REMARK  Name = 
REMARK  12 active torsions:
REMARK  status: ('A' for Active; 'I' for Inactive)
REMARK    1  A    between atoms: C_1  and  N_2
REMARK    2  A    between atoms: N_2  and  C_3
REMARK    3  A    between atoms: C_4  and  C_6
REMARK    4  A    between atoms: C_11  and  N_12
REMARK    5  A    between atoms: N_12  and  C_13
REMARK    6  A    between atoms: C_13  and  C_14
REMARK    7  A    between atoms: C_14  and  C_15
REMARK    8  A    between atoms: C_15  and  N_16
REMARK    9  A    between atoms: N_19  and  C_20
REMARK   10  A    between atoms: C_25  and  O_26
REMARK   11  A    between atoms: O_26  and  C_27
REMARK   12  A    between atoms: C_27  and  C_28
REMARK                            x       y       z     vdW  Elec       q    Type
REMARK                         _______ _______ _______ _____ _____    ______ ____
ROOT
ATOM      1  N   UNL     1       3.222   2.400  19.561  0.00  0.00    +0.000 NA
ATOM      2  C   UNL     1       3.071   2.085  18.123  0.00  0.00    +0.000 C 
ATOM      3  C   UNL     1       2.987   3.336  17.221  0.00  0.00    +0.000 C 
ATOM      4  N   UNL     1       4.201   4.169  17.367  0.00  0.00    +0.000 N 
ATOM      5  C   UNL     1       4.493   4.523  18.773  0.00  0.00    +0.000 C 
ATOM      6  C   UNL     1       4.416   3.273  19.704  0.00  0.00    +0.000 C 
ENDROOT
BRANCH   4   7
ATOM      7  C   UNL     1       5.074   4.411  16.308  0.00  0.00    +0.000 A 
ATOM      8  C   UNL     1       5.141   3.487  15.237  0.00  0.00    +0.000 A 
ATOM      9  C   UNL     1       5.962   3.649  14.116  0.00  0.00    +0.000 A 
ATOM     10  C   UNL     1       6.829   4.719  14.057  0.00  0.00    +0.000 A 
ATOM     11  C   UNL     1       6.826   5.644  15.091  0.00  0.00    +0.000 A 
ATOM     12  C   UNL     1       5.916   5.553  16.173  0.00  0.00    +0.000 A 
BRANCH  12  13
ATOM     13  O   UNL     1       5.792   6.601  17.073  0.00  0.00    +0.000 OA
BRANCH  13  14
ATOM     14  C   UNL     1       7.038   7.145  17.552  0.00  0.00    +0.000 C 
BRANCH  14  15
ATOM     15  C   UNL     1       7.733   6.306  18.615  0.00  0.00    +0.000 C 
ATOM     16  F   UNL     1       8.251   5.155  18.146  0.00  0.00    +0.000 F 
ATOM     17  F   UNL     1       8.752   7.015  19.167  0.00  0.00    +0.000 F 
ATOM     18  F   UNL     1       6.882   5.999  19.624  0.00  0.00    +0.000 F 
ENDBRANCH  14  15
ENDBRANCH  13  14
ENDBRANCH  12  13
ENDBRANCH   4   7
BRANCH   1  19
ATOM     19  C   UNL     1       2.010   2.992  20.157  0.00  0.00    +0.000 C 
BRANCH  19  20
ATOM     20  C   UNL     1       2.269   4.240  21.038  0.00  0.00    +0.000 C 
BRANCH  20  21
ATOM     21  C   UNL     1       1.460   5.434  20.539  0.00  0.00    +0.000 C 
BRANCH  21  22
ATOM     22  N   UNL     1       1.926   6.734  21.076  0.00  0.00    +0.000 N 
ATOM     23  H   UNL     1       1.305   7.078  21.818  0.00  0.00    +0.000 HD
BRANCH  22  29
ATOM     24  C   UNL     1       1.424   8.999  20.188  0.00  0.00    +0.000 A 
ATOM     25  C   UNL     1       1.292   9.783  19.032  0.00  0.00    +0.000 A 
ATOM     26  C   UNL     1       1.820   9.364  17.818  0.00  0.00    +0.000 A 
ATOM     27  C   UNL     1       2.430   8.132  17.785  0.00  0.00    +0.000 A 
ATOM     28  N   UNL     1       2.473   7.304  18.844  0.00  0.00    +0.000 NA
ATOM     29  C   UNL     1       1.925   7.699  20.032  0.00  0.00    +0.000 A 
BRANCH  24  33
ATOM     30  C   UNL     1      -0.785  10.608  22.868  0.00  0.00    +0.000 C 
ATOM     31  N   UNL     1      -0.287  10.246  21.549  0.00  0.00    +0.000 N 
ATOM     32  C   UNL     1      -1.074  10.697  20.404  0.00  0.00    +0.000 C 
ATOM     33  C   UNL     1       0.908   9.503  21.490  0.00  0.00    +0.000 C 
ATOM     34  O   UNL     1       1.551   9.223  22.508  0.00  0.00    +0.000 OA
ENDBRANCH  24  33
ENDBRANCH  22  29
ENDBRANCH  21  22
ENDBRANCH  20  21
ENDBRANCH  19  20
ENDBRANCH   1  19
TORSDOF 10
ENDMDL
MODEL 2
REMARK VINA RESULT:      -8.1      5.346      7.757
REMARK  Name = 
REMARK  12 active torsions:
REMARK  status: ('A' for Active; 'I' for Inactive)
REMARK    1  A    between atoms: C_1  and  N_2
REMARK    2  A    between atoms: N_2  and  C_3
REMARK    3  A    between atoms: C_4  and  C_6
REMARK    4  A    between atoms: C_11  and  N_12
REMARK    5  A    between atoms: N_12  and  C_13
REMARK    6  A    between atoms: C_13  and  C_14
REMARK    7  A    between atoms: C_14  and  C_15
REMARK    8  A    between atoms: C_15  and  N_16
REMARK    9  A    between atoms: N_19  and  C_20
REMARK   10  A    between atoms: C_25  and  O_26
REMARK   11  A    between atoms: O_26  and  C_27
REMARK   12  A    between atoms: C_27  and  C_28
REMARK                            x       y       z     vdW  Elec       q    Type
REMARK                         _______ _______ _______ _____ _____    ______ ____
ROOT
ATOM      1  N   UNL     1       7.066   7.309  17.058  0.00  0.00    +0.000 NA
ATOM      2  C   UNL     1       7.429   6.104  17.835  0.00  0.00    +0.000 C 
ATOM      3  C   UNL     1       6.432   5.776  18.969  0.00  0.00    +0.000 C 
ATOM      4  N   UNL     1       5.074   5.560  18.425  0.00  0.00    +0.000 N 
ATOM      5  C   UNL     1       4.602   6.682  17.585  0.00  0.00    +0.000 C 
ATOM      6  C   UNL     1       5.684   7.112  16.547  0.00  0.00    +0.000 C 
ENDROOT
BRANCH   4   7
ATOM      7  C   UNL     1       4.410   4.340  18.534  0.00  0.00    +0.000 A 
ATOM      8  C   UNL     1       3.892   3.939  19.790  0.00  0.00    +0.000 A 
ATOM      9  C   UNL     1       3.187   2.749  20.001  0.00  0.00    +0.000 A 
ATOM     10  C   UNL     1       3.042   1.852  18.964  0.00  0.00    +0.000 A 
ATOM     11  C   UNL     1       3.552   2.179  17.716  0.00  0.00    +0.000 A 
ATOM     12  C   UNL     1       4.163   3.433  17.463  0.00  0.00    +0.000 A 
BRANCH  12  13
ATOM     13  O   UNL     1       4.467   3.813  16.165  0.00  0.00    +0.000 OA
BRANCH  13  14
ATOM     14  C   UNL     1       5.804   3.492  15.732  0.00  0.00    +0.000 C 
BRANCH  14  15
ATOM     15  C   UNL     1       6.244   4.187  14.451  0.00  0.00    +0.000 C 
ATOM     16  F   UNL     1       5.354   5.084  13.986  0.00  0.00    +0.000 F 
ATOM     17  F   UNL     1       7.413   4.847  14.663  0.00  0.00    +0.000 F 
ATOM     18  F   UNL     1       6.480   3.285  13.467  0.00  0.00    +0.000 F 
ENDBRANCH  14  15
ENDBRANCH  13  14
ENDBRANCH  12  13
ENDBRANCH   4   7
BRANCH   1  19
ATOM     19  C   UNL     1       7.217   8.562  17.821  0.00  0.00    +0.000 C 
BRANCH  19  20
ATOM     20  C   UNL     1       8.657   8.841  18.322  0.00  0.00    +0.000 C 
BRANCH  20  21
ATOM     21  C   UNL     1       8.928  10.342  18.382  0.00  0.00    +0.000 C 
BRANCH  21  22
ATOM     22  N   UNL     1      10.145  10.695  19.151  0.00  0.00    +0.000 N 
ATOM     23  H   UNL     1      10.547   9.872  19.616  0.00  0.00    +0.000 HD
BRANCH  22  29
ATOM     24  C   UNL     1      10.257  12.963  20.159  0.00  0.00    +0.000 A 
ATOM     25  C   UNL     1      10.022  13.727  21.312  0.00  0.00    +0.000 A 
ATOM     26  C   UNL     1       9.203  13.255  22.329  0.00  0.00    +0.000 A 
ATOM     27  C   UNL     1       8.676  11.993  22.183  0.00  0.00    +0.000 A 
ATOM     28  N   UNL     1       8.972  11.188  21.148  0.00  0.00    +0.000 NA
ATOM     29  C   UNL     1       9.805  11.636  20.161  0.00  0.00    +0.000 A 
BRANCH  24  33
ATOM     30  C   UNL     1      11.428  15.006  17.141  0.00  0.00    +0.000 C 
ATOM     31  N   UNL     1      10.528  14.419  18.124  0.00  0.00    +0.000 N 
ATOM     32  C   UNL     1       9.125  14.814  18.047  0.00  0.00    +0.000 C 
ATOM     33  C   UNL     1      11.085  13.520  19.055  0.00  0.00    +0.000 C 
ATOM     34  O   UNL     1      12.274  13.184  19.005  0.00  0.00    +0.000 OA
ENDBRANCH  24  33
ENDBRANCH  22  29
ENDBRANCH  21  22
ENDBRANCH  20  21
ENDBRANCH  19  20
ENDBRANCH   1  19
TORSDOF 10
ENDMDL
MODEL 3
REMARK VINA RESULT:      -7.9      5.241      7.347
REMARK  Name = 
REMARK  12 active torsions:
REMARK  status: ('A' for Active; 'I' for Inactive)
REMARK    1  A    between atoms: C_1  and  N_2
REMARK    2  A    between atoms: N_2  and  C_3
REMARK    3  A    between atoms: C_4  and  C_6
REMARK    4  A    between atoms: C_11  and  N_12
REMARK    5  A    between atoms: N_12  and  C_13
REMARK    6  A    between atoms: C_13  and  C_14
REMARK    7  A    between atoms: C_14  and  C_15
REMARK    8  A    between atoms: C_15  and  N_16
REMARK    9  A    between atoms: N_19  and  C_20
REMARK   10  A    between atoms: C_25  and  O_26
REMARK   11  A    between atoms: O_26  and  C_27
REMARK   12  A    between atoms: C_27  and  C_28
REMARK                            x       y       z     vdW  Elec       q    Type
REMARK                         _______ _______ _______ _____ _____    ______ ____
ROOT
ATOM      1  N   UNL     1       7.699   6.691  17.595  0.00  0.00    +0.000 NA
ATOM      2  C   UNL     1       7.573   5.374  18.258  0.00  0.00    +0.000 C 
ATOM      3  C   UNL     1       6.417   5.305  19.280  0.00  0.00    +0.000 C 
ATOM      4  N   UNL     1       5.123   5.596  18.626  0.00  0.00    +0.000 N 
ATOM      5  C   UNL     1       5.125   6.875  17.885  0.00  0.00    +0.000 C 
ATOM      6  C   UNL     1       6.385   7.006  16.974  0.00  0.00    +0.000 C 
ENDROOT
BRANCH   4   7
ATOM      7  C   UNL     1       4.092   4.660  18.555  0.00  0.00    +0.000 A 
ATOM      8  C   UNL     1       3.325   4.382  19.713  0.00  0.00    +0.000 A 
ATOM      9  C   UNL     1       2.254   3.482  19.743  0.00  0.00    +0.000 A 
ATOM     10  C   UNL     1       1.953   2.746  18.618  0.00  0.00    +0.000 A 
ATOM     11  C   UNL     1       2.689   2.956  17.461  0.00  0.00    +0.000 A 
ATOM     12  C   UNL     1       3.698   3.949  17.386  0.00  0.00    +0.000 A 
BRANCH  12  13
ATOM     13  O   UNL     1       4.263   4.281  16.164  0.00  0.00    +0.000 OA
BRANCH  13  14
ATOM     14  C   UNL     1       5.458   3.549  15.825  0.00  0.00    +0.000 C 
BRANCH  14  15
ATOM     15  C   UNL     1       6.298   4.175  14.720  0.00  0.00    +0.000 C 
ATOM     16  F   UNL     1       7.551   4.487  15.101  0.00  0.00    +0.000 F 
ATOM     17  F   UNL     1       6.395   3.314  13.672  0.00  0.00    +0.000 F 
ATOM     18  F   UNL     1       5.713   5.301  14.246  0.00  0.00    +0.000 F 
ENDBRANCH  14  15
ENDBRANCH  13  14
ENDBRANCH  12  13
ENDBRANCH   4   7
BRANCH   1  19
ATOM     19  C   UNL     1       8.170   7.756  18.500  0.00  0.00    +0.000 C 
BRANCH  19  20
ATOM     20  C   UNL     1       8.100   9.185  17.904  0.00  0.00    +0.000 C 
BRANCH  20  21
ATOM     21  C   UNL     1       9.286  10.025  18.372  0.00  0.00    +0.000 C 
BRANCH  21  22
ATOM     22  N   UNL     1       8.893  11.327  18.963  0.00  0.00    +0.000 N 
ATOM     23  H   UNL     1       7.911  11.550  18.762  0.00  0.00    +0.000 HD
BRANCH  22  29
ATOM     24  C   UNL     1       9.442  13.722  18.598  0.00  0.00    +0.000 A 
ATOM     25  C   UNL     1      10.173  14.635  17.823  0.00  0.00    +0.000 A 
ATOM     26  C   UNL     1      11.239  14.214  17.038  0.00  0.00    +0.000 A 
ATOM     27  C   UNL     1      11.513  12.867  17.013  0.00  0.00    +0.000 A 
ATOM     28  N   UNL     1      10.763  11.951  17.650  0.00  0.00    +0.000 NA
ATOM     29  C   UNL     1       9.693  12.358  18.398  0.00  0.00    +0.000 A 
BRANCH  24  33
ATOM     30  C   UNL     1       7.478  14.958  21.643  0.00  0.00    +0.000 C 
ATOM     31  N   UNL     1       8.561  14.373  20.865  0.00  0.00    +0.000 N 
ATOM     32  C   UNL     1       9.770  14.004  21.596  0.00  0.00    +0.000 C 
ATOM     33  C   UNL     1       8.347  14.209  19.482  0.00  0.00    +0.000 C 
ATOM     34  O   UNL     1       7.264  14.484  18.953  0.00  0.00    +0.000 OA
ENDBRANCH  24  33
ENDBRANCH  22  29
ENDBRANCH  21  22
ENDBRANCH  20  21
ENDBRANCH  19  20
ENDBRANCH   1  19
TORSDOF 10
ENDMDL
MODEL 4
REMARK VINA RESULT:      -7.9      5.315      7.443
REMARK  Name = 
REMARK  12 active torsions:
REMARK  status: ('A' for Active; 'I' for Inactive)
REMARK    1  A    between atoms: C_1  and  N_2
REMARK    2  A    between atoms: N_2  and  C_3
REMARK    3  A    between atoms: C_4  and  C_6
REMARK    4  A    between atoms: C_11  and  N_12
REMARK    5  A    between atoms: N_12  and  C_13
REMARK    6  A    between atoms: C_13  and  C_14
REMARK    7  A    between atoms: C_14  and  C_15
REMARK    8  A    between atoms: C_15  and  N_16
REMARK    9  A    between atoms: N_19  and  C_20
REMARK   10  A    between atoms: C_25  and  O_26
REMARK   11  A    between atoms: O_26  and  C_27
REMARK   12  A    between atoms: C_27  and  C_28
REMARK                            x       y       z     vdW  Elec       q    Type
REMARK                         _______ _______ _______ _____ _____    ______ ____
ROOT
ATOM      1  N   UNL     1       7.658   6.578  17.558  0.00  0.00    +0.000 NA
ATOM      2  C   UNL     1       7.429   5.259  18.188  0.00  0.00    +0.000 C 
ATOM      3  C   UNL     1       6.256   5.249  19.193  0.00  0.00    +0.000 C 
ATOM      4  N   UNL     1       4.996   5.648  18.531  0.00  0.00    +0.000 N 
ATOM      5  C   UNL     1       5.100   6.941  17.821  0.00  0.00    +0.000 C 
ATOM      6  C   UNL     1       6.380   7.001  16.929  0.00  0.00    +0.000 C 
ENDROOT
BRANCH   4   7
ATOM      7  C   UNL     1       3.902   4.791  18.425  0.00  0.00    +0.000 A 
ATOM      8  C   UNL     1       2.757   5.022  19.227  0.00  0.00    +0.000 A 
ATOM      9  C   UNL     1       1.599   4.239  19.179  0.00  0.00    +0.000 A 
ATOM     10  C   UNL     1       1.566   3.122  18.372  0.00  0.00    +0.000 A 
ATOM     11  C   UNL     1       2.669   2.831  17.583  0.00  0.00    +0.000 A 
ATOM     12  C   UNL     1       3.801   3.682  17.536  0.00  0.00    +0.000 A 
BRANCH  12  13
ATOM     13  O   UNL     1       4.789   3.481  16.583  0.00  0.00    +0.000 OA
BRANCH  13  14
ATOM     14  C   UNL     1       4.626   4.237  15.367  0.00  0.00    +0.000 C 
BRANCH  14  15
ATOM     15  C   UNL     1       5.815   4.183  14.418  0.00  0.00    +0.000 C 
ATOM     16  F   UNL     1       5.508   3.729  13.188  0.00  0.00    +0.000 F 
ATOM     17  F   UNL     1       6.345   5.426  14.271  0.00  0.00    +0.000 F 
ATOM     18  F   UNL     1       6.799   3.397  14.919  0.00  0.00    +0.000 F 
ENDBRANCH  14  15
ENDBRANCH  13  14
ENDBRANCH  12  13
ENDBRANCH   4   7
BRANCH   1  19
ATOM     19  C   UNL     1       8.192   7.584  18.495  0.00  0.00    +0.000 C 
BRANCH  19  20
ATOM     20  C   UNL     1       8.155   9.040  17.965  0.00  0.00    +0.000 C 
BRANCH  20  21
ATOM     21  C   UNL     1       9.137   9.921  18.733  0.00  0.00    +0.000 C 
BRANCH  21  22
ATOM     22  N   UNL     1       8.846  11.371  18.622  0.00  0.00    +0.000 N 
ATOM     23  H   UNL     1       8.661  11.643  17.649  0.00  0.00    +0.000 HD
BRANCH  22  29
ATOM     24  C   UNL     1       9.932  13.483  19.352  0.00  0.00    +0.000 A 
ATOM     25  C   UNL     1      11.153  14.134  19.582  0.00  0.00    +0.000 A 
ATOM     26  C   UNL     1      12.333  13.415  19.721  0.00  0.00    +0.000 A 
ATOM     27  C   UNL     1      12.262  12.049  19.573  0.00  0.00    +0.000 A 
ATOM     28  N   UNL     1      11.132  11.403  19.237  0.00  0.00    +0.000 NA
ATOM     29  C   UNL     1       9.975  12.111  19.068  0.00  0.00    +0.000 A 
BRANCH  24  33
ATOM     30  C   UNL     1       6.881  15.600  20.283  0.00  0.00    +0.000 C 
ATOM     31  N   UNL     1       8.046  14.742  20.446  0.00  0.00    +0.000 N 
ATOM     32  C   UNL     1       8.454  14.442  21.815  0.00  0.00    +0.000 C 
ATOM     33  C   UNL     1       8.672  14.273  19.274  0.00  0.00    +0.000 C 
ATOM     34  O   UNL     1       8.218  14.516  18.151  0.00  0.00    +0.000 OA
ENDBRANCH  24  33
ENDBRANCH  22  29
ENDBRANCH  21  22
ENDBRANCH  20  21
ENDBRANCH  19  20
ENDBRANCH   1  19
TORSDOF 10
ENDMDL
MODEL 5
REMARK VINA RESULT:      -7.8      6.667      9.769
REMARK  Name = 
REMARK  12 active torsions:
REMARK  status: ('A' for Active; 'I' for Inactive)
REMARK    1  A    between atoms: C_1  and  N_2
REMARK    2  A    between atoms: N_2  and  C_3
REMARK    3  A    between atoms: C_4  and  C_6
REMARK    4  A    between atoms: C_11  and  N_12
REMARK    5  A    between atoms: N_12  and  C_13
REMARK    6  A    between atoms: C_13  and  C_14
REMARK    7  A    between atoms: C_14  and  C_15
REMARK    8  A    between atoms: C_15  and  N_16
REMARK    9  A    between atoms: N_19  and  C_20
REMARK   10  A    between atoms: C_25  and  O_26
REMARK   11  A    between atoms: O_26  and  C_27
REMARK   12  A    between atoms: C_27  and  C_28
REMARK                            x       y       z     vdW  Elec       q    Type
REMARK                         _______ _______ _______ _____ _____    ______ ____
ROOT
ATOM      1  N   UNL     1       9.568  10.920  18.080  0.00  0.00    +0.000 NA
ATOM      2  C   UNL     1       8.933  12.256  18.072  0.00  0.00    +0.000 C 
ATOM      3  C   UNL     1       8.590  12.785  19.483  0.00  0.00    +0.000 C 
ATOM      4  N   UNL     1       9.807  12.878  20.318  0.00  0.00    +0.000 N 
ATOM      5  C   UNL     1      10.565  11.610  20.376  0.00  0.00    +0.000 C 
ATOM      6  C   UNL     1      10.767  10.999  18.954  0.00  0.00    +0.000 C 
ENDROOT
BRANCH   4   7
ATOM      7  C   UNL     1      10.280  14.089  20.819  0.00  0.00    +0.000 A 
ATOM      8  C   UNL     1       9.723  14.614  22.011  0.00  0.00    +0.000 A 
ATOM      9  C   UNL     1      10.144  15.805  22.611  0.00  0.00    +0.000 A 
ATOM     10  C   UNL     1      11.099  16.580  21.989  0.00  0.00    +0.000 A 
ATOM     11  C   UNL     1      11.662  16.129  20.804  0.00  0.00    +0.000 A 
ATOM     12  C   UNL     1      11.329  14.868  20.250  0.00  0.00    +0.000 A 
BRANCH  12  13
ATOM     13  O   UNL     1      12.061  14.354  19.190  0.00  0.00    +0.000 OA
BRANCH  13  14
ATOM     14  C   UNL     1      12.221  15.247  18.070  0.00  0.00    +0.000 C 
BRANCH  14  15
ATOM     15  C   UNL     1      11.081  15.217  17.062  0.00  0.00    +0.000 C 
ATOM     16  F   UNL     1       9.860  15.312  17.621  0.00  0.00    +0.000 F 
ATOM     17  F   UNL     1      11.210  16.252  16.190  0.00  0.00    +0.000 F 
ATOM     18  F   UNL     1      11.115  14.081  16.324  0.00  0.00    +0.000 F 
ENDBRANCH  14  15
ENDBRANCH  13  14
ENDBRANCH  12  13
ENDBRANCH   4   7
BRANCH   1  19
ATOM     19  C   UNL     1       8.645   9.840  18.476  0.00  0.00    +0.000 C 
BRANCH  19  20
ATOM     20  C   UNL     1       8.358   8.799  17.365  0.00  0.00    +0.000 C 
BRANCH  20  21
ATOM     21  C   UNL     1       7.227   7.861  17.781  0.00  0.00    +0.000 C 
BRANCH  21  22
ATOM     22  N   UNL     1       7.645   6.445  17.905  0.00  0.00    +0.000 N 
ATOM     23  H   UNL     1       8.660   6.341  17.785  0.00  0.00    +0.000 HD
BRANCH  22  29
ATOM     24  C   UNL     1       5.884   4.878  17.121  0.00  0.00    +0.000 A 
ATOM     25  C   UNL     1       5.481   4.015  16.091  0.00  0.00    +0.000 A 
ATOM     26  C   UNL     1       6.050   4.095  14.827  0.00  0.00    +0.000 A 
ATOM     27  C   UNL     1       7.055   5.016  14.643  0.00  0.00    +0.000 A 
ATOM     28  N   UNL     1       7.546   5.777  15.636  0.00  0.00    +0.000 NA
ATOM     29  C   UNL     1       7.011   5.678  16.889  0.00  0.00    +0.000 A 
BRANCH  24  33
ATOM     30  C   UNL     1       3.386   5.370  19.980  0.00  0.00    +0.000 C 
ATOM     31  N   UNL     1       4.048   5.569  18.699  0.00  0.00    +0.000 N 
ATOM     32  C   UNL     1       3.445   6.542  17.793  0.00  0.00    +0.000 C 
ATOM     33  C   UNL     1       5.211   4.815  18.448  0.00  0.00    +0.000 C 
ATOM     34  O   UNL     1       5.696   4.063  19.301  0.00  0.00    +0.000 OA
ENDBRANCH  24  33
ENDBRANCH  22  29
ENDBRANCH  21  22
ENDBRANCH  20  21
ENDBRANCH  19  20
ENDBRANCH   1  19
TORSDOF 10
ENDMDL
MODEL 6
REMARK VINA RESULT:      -7.8      6.577      9.699
REMARK  Name = 
REMARK  12 active torsions:
REMARK  status: ('A' for Active; 'I' for Inactive)
REMARK    1  A    between atoms: C_1  and  N_2
REMARK    2  A    between atoms: N_2  and  C_3
REMARK    3  A    between atoms: C_4  and  C_6
REMARK    4  A    between atoms: C_11  and  N_12
REMARK    5  A    between atoms: N_12  and  C_13
REMARK    6  A    between atoms: C_13  and  C_14
REMARK    7  A    between atoms: C_14  and  C_15
REMARK    8  A    between atoms: C_15  and  N_16
REMARK    9  A    between atoms: N_19  and  C_20
REMARK   10  A    between atoms: C_25  and  O_26
REMARK   11  A    between atoms: O_26  and  C_27
REMARK   12  A    between atoms: C_27  and  C_28
REMARK                            x       y       z     vdW  Elec       q    Type
REMARK                         _______ _______ _______ _____ _____    ______ ____
ROOT
ATOM      1  N   UNL     1       9.932  10.633  18.578  0.00  0.00    +0.000 NA
ATOM      2  C   UNL     1      10.366  11.761  17.726  0.00  0.00    +0.000 C 
ATOM      3  C   UNL     1       9.443  12.997  17.817  0.00  0.00    +0.000 C 
ATOM      4  N   UNL     1       9.371  13.494  19.207  0.00  0.00    +0.000 N 
ATOM      5  C   UNL     1       8.985  12.447  20.177  0.00  0.00    +0.000 C 
ATOM      6  C   UNL     1       9.816  11.143  19.970  0.00  0.00    +0.000 C 
ENDROOT
BRANCH   4   7
ATOM      7  C   UNL     1       9.819  14.762  19.573  0.00  0.00    +0.000 A 
ATOM      8  C   UNL     1      11.089  14.901  20.185  0.00  0.00    +0.000 A 
ATOM      9  C   UNL     1      11.644  16.128  20.565  0.00  0.00    +0.000 A 
ATOM     10  C   UNL     1      10.903  17.281  20.424  0.00  0.00    +0.000 A 
ATOM     11  C   UNL     1       9.641  17.204  19.854  0.00  0.00    +0.000 A 
ATOM     12  C   UNL     1       9.117  15.983  19.358  0.00  0.00    +0.000 A 
BRANCH  12  13
ATOM     13  O   UNL     1       7.953  15.976  18.605  0.00  0.00    +0.000 OA
BRANCH  13  14
ATOM     14  C   UNL     1       6.733  15.911  19.370  0.00  0.00    +0.000 C 
BRANCH  14  15
ATOM     15  C   UNL     1       5.509  15.463  18.583  0.00  0.00    +0.000 C 
ATOM     16  F   UNL     1       4.678  14.665  19.279  0.00  0.00    +0.000 F 
ATOM     17  F   UNL     1       4.793  16.549  18.187  0.00  0.00    +0.000 F 
ATOM     18  F   UNL     1       5.873  14.805  17.455  0.00  0.00    +0.000 F 
ENDBRANCH  14  15
ENDBRANCH  13  14
ENDBRANCH  12  13
ENDBRANCH   4   7
BRANCH   1  19
ATOM     19  C   UNL     1       8.693   9.989  18.103  0.00  0.00    +0.000 C 
BRANCH  19  20
ATOM     20  C   UNL     1       8.475   8.547  18.628  0.00  0.00    +0.000 C 
BRANCH  20  21
ATOM     21  C   UNL     1       7.694   7.714  17.614  0.00  0.00    +0.000 C 
BRANCH  21  22
ATOM     22  N   UNL     1       7.596   6.280  17.974  0.00  0.00    +0.000 N 
ATOM     23  H   UNL     1       8.525   5.864  18.115  0.00  0.00    +0.000 HD
BRANCH  22  29
ATOM     24  C   UNL     1       5.812   4.794  17.090  0.00  0.00    +0.000 A 
ATOM     25  C   UNL     1       5.409   3.986  16.016  0.00  0.00    +0.000 A 
ATOM     26  C   UNL     1       6.007   4.103  14.768  0.00  0.00    +0.000 A 
ATOM     27  C   UNL     1       7.039   5.003  14.643  0.00  0.00    +0.000 A 
ATOM     28  N   UNL     1       7.528   5.709  15.677  0.00  0.00    +0.000 NA
ATOM     29  C   UNL     1       6.964   5.573  16.914  0.00  0.00    +0.000 A 
BRANCH  24  33
ATOM     30  C   UNL     1       3.297   5.279  19.935  0.00  0.00    +0.000 C 
ATOM     31  N   UNL     1       3.997   5.512  18.680  0.00  0.00    +0.000 N 
ATOM     32  C   UNL     1       3.482   6.581  17.829  0.00  0.00    +0.000 C 
ATOM     33  C   UNL     1       5.110   4.695  18.399  0.00  0.00    +0.000 C 
ATOM     34  O   UNL     1       5.524   3.857  19.208  0.00  0.00    +0.000 OA
ENDBRANCH  24  33
ENDBRANCH  22  29
ENDBRANCH  21  22
ENDBRANCH  20  21
ENDBRANCH  19  20
ENDBRANCH   1  19
TORSDOF 10
ENDMDL
MODEL 7
REMARK VINA RESULT:      -7.8      5.188      7.418
REMARK  Name = 
REMARK  12 active torsions:
REMARK  status: ('A' for Active; 'I' for Inactive)
REMARK    1  A    between atoms: C_1  and  N_2
REMARK    2  A    between atoms: N_2  and  C_3
REMARK    3  A    between atoms: C_4  and  C_6
REMARK    4  A    between atoms: C_11  and  N_12
REMARK    5  A    between atoms: N_12  and  C_13
REMARK    6  A    between atoms: C_13  and  C_14
REMARK    7  A    between atoms: C_14  and  C_15
REMARK    8  A    between atoms: C_15  and  N_16
REMARK    9  A    between atoms: N_19  and  C_20
REMARK   10  A    between atoms: C_25  and  O_26
REMARK   11  A    between atoms: O_26  and  C_27
REMARK   12  A    between atoms: C_27  and  C_28
REMARK                            x       y       z     vdW  Elec       q    Type
REMARK                         _______ _______ _______ _____ _____    ______ ____
ROOT
ATOM      1  N   UNL     1       7.018   7.286  17.132  0.00  0.00    +0.000 NA
ATOM      2  C   UNL     1       7.377   6.085  17.917  0.00  0.00    +0.000 C 
ATOM      3  C   UNL     1       6.361   5.748  19.031  0.00  0.00    +0.000 C 
ATOM      4  N   UNL     1       5.016   5.520  18.461  0.00  0.00    +0.000 N 
ATOM      5  C   UNL     1       4.550   6.637  17.613  0.00  0.00    +0.000 C 
ATOM      6  C   UNL     1       5.648   7.077  16.595  0.00  0.00    +0.000 C 
ENDROOT
BRANCH   4   7
ATOM      7  C   UNL     1       4.361   4.293  18.558  0.00  0.00    +0.000 A 
ATOM      8  C   UNL     1       3.834   3.883  19.807  0.00  0.00    +0.000 A 
ATOM      9  C   UNL     1       3.137   2.686  20.005  0.00  0.00    +0.000 A 
ATOM     10  C   UNL     1       3.008   1.793  18.963  0.00  0.00    +0.000 A 
ATOM     11  C   UNL     1       3.529   2.130  17.722  0.00  0.00    +0.000 A 
ATOM     12  C   UNL     1       4.132   3.390  17.480  0.00  0.00    +0.000 A 
BRANCH  12  13
ATOM     13  O   UNL     1       4.445   3.779  16.187  0.00  0.00    +0.000 OA
BRANCH  13  14
ATOM     14  C   UNL     1       5.794   3.485  15.771  0.00  0.00    +0.000 C 
BRANCH  14  15
ATOM     15  C   UNL     1       6.236   4.188  14.495  0.00  0.00    +0.000 C 
ATOM     16  F   UNL     1       5.350   5.094  14.040  0.00  0.00    +0.000 F 
ATOM     17  F   UNL     1       7.409   4.840  14.711  0.00  0.00    +0.000 F 
ATOM     18  F   UNL     1       6.465   3.294  13.504  0.00  0.00    +0.000 F 
ENDBRANCH  14  15
ENDBRANCH  13  14
ENDBRANCH  12  13
ENDBRANCH   4   7
BRANCH   1  19
ATOM     19  C   UNL     1       7.143   8.540  17.898  0.00  0.00    +0.000 C 
BRANCH  19  20
ATOM     20  C   UNL     1       8.586   8.874  18.354  0.00  0.00    +0.000 C 
BRANCH  20  21
ATOM     21  C   UNL     1       8.974  10.289  17.933  0.00  0.00    +0.000 C 
BRANCH  21  22
ATOM     22  N   UNL     1       9.267  11.189  19.074  0.00  0.00    +0.000 N 
ATOM     23  H   UNL     1       8.408  11.611  19.449  0.00  0.00    +0.000 HD
BRANCH  22  29
ATOM     24  C   UNL     1       9.624  13.499  18.234  0.00  0.00    +0.000 A 
ATOM     25  C   UNL     1      10.532  14.380  17.627  0.00  0.00    +0.000 A 
ATOM     26  C   UNL     1      11.893  14.102  17.605  0.00  0.00    +0.000 A 
ATOM     27  C   UNL     1      12.304  12.911  18.154  0.00  0.00    +0.000 A 
ATOM     28  N   UNL     1      11.452  11.991  18.639  0.00  0.00    +0.000 NA
ATOM     29  C   UNL     1      10.109  12.246  18.633  0.00  0.00    +0.000 A 
BRANCH  24  33
ATOM     30  C   UNL     1       6.287  15.057  19.281  0.00  0.00    +0.000 C 
ATOM     31  N   UNL     1       7.688  14.664  19.344  0.00  0.00    +0.000 N 
ATOM     32  C   UNL     1       8.454  15.144  20.491  0.00  0.00    +0.000 C 
ATOM     33  C   UNL     1       8.179  13.853  18.302  0.00  0.00    +0.000 C 
ATOM     34  O   UNL     1       7.444  13.430  17.403  0.00  0.00    +0.000 OA
ENDBRANCH  24  33
ENDBRANCH  22  29
ENDBRANCH  21  22
ENDBRANCH  20  21
ENDBRANCH  19  20
ENDBRANCH   1  19
TORSDOF 10
ENDMDL
MODEL 8
REMARK VINA RESULT:      -7.8      6.422      9.642
REMARK  Name = 
REMARK  12 active torsions:
REMARK  status: ('A' for Active; 'I' for Inactive)
REMARK    1  A    between atoms: C_1  and  N_2
REMARK    2  A    between atoms: N_2  and  C_3
REMARK    3  A    between atoms: C_4  and  C_6
REMARK    4  A    between atoms: C_11  and  N_12
REMARK    5  A    between atoms: N_12  and  C_13
REMARK    6  A    between atoms: C_13  and  C_14
REMARK    7  A    between atoms: C_14  and  C_15
REMARK    8  A    between atoms: C_15  and  N_16
REMARK    9  A    between atoms: N_19  and  C_20
REMARK   10  A    between atoms: C_25  and  O_26
REMARK   11  A    between atoms: O_26  and  C_27
REMARK   12  A    between atoms: C_27  and  C_28
REMARK                            x       y       z     vdW  Elec       q    Type
REMARK                         _______ _______ _______ _____ _____    ______ ____
ROOT
ATOM      1  N   UNL     1       9.621  10.936  18.105  0.00  0.00    +0.000 NA
ATOM      2  C   UNL     1       9.455  12.389  17.879  0.00  0.00    +0.000 C 
ATOM      3  C   UNL     1       8.578  13.084  18.943  0.00  0.00    +0.000 C 
ATOM      4  N   UNL     1       9.155  12.909  20.293  0.00  0.00    +0.000 N 
ATOM      5  C   UNL     1       9.413  11.493  20.633  0.00  0.00    +0.000 C 
ATOM      6  C   UNL     1      10.160  10.756  19.478  0.00  0.00    +0.000 C 
ENDROOT
BRANCH   4   7
ATOM      7  C   UNL     1       9.593  13.983  21.065  0.00  0.00    +0.000 A 
ATOM      8  C   UNL     1      10.561  14.871  20.536  0.00  0.00    +0.000 A 
ATOM      9  C   UNL     1      11.047  15.994  21.216  0.00  0.00    +0.000 A 
ATOM     10  C   UNL     1      10.640  16.233  22.511  0.00  0.00    +0.000 A 
ATOM     11  C   UNL     1       9.712  15.381  23.091  0.00  0.00    +0.000 A 
ATOM     12  C   UNL     1       9.125  14.310  22.371  0.00  0.00    +0.000 A 
BRANCH  12  13
ATOM     13  O   UNL     1       8.050  13.615  22.904  0.00  0.00    +0.000 OA
BRANCH  13  14
ATOM     14  C   UNL     1       8.395  12.621  23.889  0.00  0.00    +0.000 C 
BRANCH  14  15
ATOM     15  C   UNL     1       7.870  12.902  25.290  0.00  0.00    +0.000 C 
ATOM     16  F   UNL     1       7.014  13.939  25.351  0.00  0.00    +0.000 F 
ATOM     17  F   UNL     1       7.218  11.809  25.766  0.00  0.00    +0.000 F 
ATOM     18  F   UNL     1       8.889  13.152  26.148  0.00  0.00    +0.000 F 
ENDBRANCH  14  15
ENDBRANCH  13  14
ENDBRANCH  12  13
ENDBRANCH   4   7
BRANCH   1  19
ATOM     19  C   UNL     1       8.384  10.167  17.874  0.00  0.00    +0.000 C 
BRANCH  19  20
ATOM     20  C   UNL     1       8.446   8.692  18.346  0.00  0.00    +0.000 C 
BRANCH  20  21
ATOM     21  C   UNL     1       7.541   7.811  17.489  0.00  0.00    +0.000 C 
BRANCH  21  22
ATOM     22  N   UNL     1       7.567   6.380  17.875  0.00  0.00    +0.000 N 
ATOM     23  H   UNL     1       8.529   6.040  17.993  0.00  0.00    +0.000 HD
BRANCH  22  29
ATOM     24  C   UNL     1       5.841   4.790  17.059  0.00  0.00    +0.000 A 
ATOM     25  C   UNL     1       5.467   3.923  16.021  0.00  0.00    +0.000 A 
ATOM     26  C   UNL     1       6.057   4.013  14.767  0.00  0.00    +0.000 A 
ATOM     27  C   UNL     1       7.053   4.947  14.601  0.00  0.00    +0.000 A 
ATOM     28  N   UNL     1       7.516   5.714  15.604  0.00  0.00    +0.000 NA
ATOM     29  C   UNL     1       6.961   5.606  16.848  0.00  0.00    +0.000 A 
BRANCH  24  33
ATOM     30  C   UNL     1       3.347   5.341  19.912  0.00  0.00    +0.000 C 
ATOM     31  N   UNL     1       4.041   5.548  18.649  0.00  0.00    +0.000 N 
ATOM     32  C   UNL     1       3.530   6.608  17.785  0.00  0.00    +0.000 C 
ATOM     33  C   UNL     1       5.145   4.717  18.374  0.00  0.00    +0.000 C 
ATOM     34  O   UNL     1       5.558   3.889  19.194  0.00  0.00    +0.000 OA
ENDBRANCH  24  33
ENDBRANCH  22  29
ENDBRANCH  21  22
ENDBRANCH  20  21
ENDBRANCH  19  20
ENDBRANCH   1  19
TORSDOF 10
ENDMDL
MODEL 9
REMARK VINA RESULT:      -7.7      5.088      7.123
REMARK  Name = 
REMARK  12 active torsions:
REMARK  status: ('A' for Active; 'I' for Inactive)
REMARK    1  A    between atoms: C_1  and  N_2
REMARK    2  A    between atoms: N_2  and  C_3
REMARK    3  A    between atoms: C_4  and  C_6
REMARK    4  A    between atoms: C_11  and  N_12
REMARK    5  A    between atoms: N_12  and  C_13
REMARK    6  A    between atoms: C_13  and  C_14
REMARK    7  A    between atoms: C_14  and  C_15
REMARK    8  A    between atoms: C_15  and  N_16
REMARK    9  A    between atoms: N_19  and  C_20
REMARK   10  A    between atoms: C_25  and  O_26
REMARK   11  A    between atoms: O_26  and  C_27
REMARK   12  A    between atoms: C_27  and  C_28
REMARK                            x       y       z     vdW  Elec       q    Type
REMARK                         _______ _______ _______ _____ _____    ______ ____
ROOT
ATOM      1  N   UNL     1       7.557   6.099  17.268  0.00  0.00    +0.000 NA
ATOM      2  C   UNL     1       7.088   5.550  18.559  0.00  0.00    +0.000 C 
ATOM      3  C   UNL     1       5.595   5.828  18.843  0.00  0.00    +0.000 C 
ATOM      4  N   UNL     1       4.744   5.252  17.780  0.00  0.00    +0.000 N 
ATOM      5  C   UNL     1       5.136   5.690  16.424  0.00  0.00    +0.000 C 
ATOM      6  C   UNL     1       6.675   5.555  16.203  0.00  0.00    +0.000 C 
ENDROOT
BRANCH   4   7
ATOM      7  C   UNL     1       3.810   4.248  18.031  0.00  0.00    +0.000 A 
ATOM      8  C   UNL     1       4.173   2.894  17.826  0.00  0.00    +0.000 A 
ATOM      9  C   UNL     1       3.322   1.811  18.073  0.00  0.00    +0.000 A 
ATOM     10  C   UNL     1       2.021   2.044  18.462  0.00  0.00    +0.000 A 
ATOM     11  C   UNL     1       1.601   3.353  18.653  0.00  0.00    +0.000 A 
ATOM     12  C   UNL     1       2.488   4.450  18.521  0.00  0.00    +0.000 A 
BRANCH  12  13
ATOM     13  O   UNL     1       2.097   5.718  18.925  0.00  0.00    +0.000 OA
BRANCH  13  14
ATOM     14  C   UNL     1       1.938   6.676  17.861  0.00  0.00    +0.000 C 
BRANCH  14  15
ATOM     15  C   UNL     1       2.223   8.119  18.253  0.00  0.00    +0.000 C 
ATOM     16  F   UNL     1       2.005   8.381  19.556  0.00  0.00    +0.000 F 
ATOM     17  F   UNL     1       3.522   8.420  17.990  0.00  0.00    +0.000 F 
ATOM     18  F   UNL     1       1.470   8.978  17.523  0.00  0.00    +0.000 F 
ENDBRANCH  14  15
ENDBRANCH  13  14
ENDBRANCH  12  13
ENDBRANCH   4   7
BRANCH   1  19
ATOM     19  C   UNL     1       7.625   7.572  17.253  0.00  0.00    +0.000 C 
BRANCH  19  20
ATOM     20  C   UNL     1       8.384   8.194  18.454  0.00  0.00    +0.000 C 
BRANCH  20  21
ATOM     21  C   UNL     1       8.594   9.691  18.245  0.00  0.00    +0.000 C 
BRANCH  21  22
ATOM     22  N   UNL     1       9.173  10.380  19.423  0.00  0.00    +0.000 N 
ATOM     23  H   UNL     1       8.444  10.659  20.090  0.00  0.00    +0.000 HD
BRANCH  22  29
ATOM     24  C   UNL     1       9.802  12.766  19.711  0.00  0.00    +0.000 A 
ATOM     25  C   UNL     1      10.324  13.907  19.082  0.00  0.00    +0.000 A 
ATOM     26  C   UNL     1      11.026  13.808  17.888  0.00  0.00    +0.000 A 
ATOM     27  C   UNL     1      11.144  12.559  17.325  0.00  0.00    +0.000 A 
ATOM     28  N   UNL     1      10.559  11.462  17.838  0.00  0.00    +0.000 NA
ATOM     29  C   UNL     1       9.839  11.561  18.995  0.00  0.00    +0.000 A 
BRANCH  24  33
ATOM     30  C   UNL     1       7.309  13.727  22.452  0.00  0.00    +0.000 C 
ATOM     31  N   UNL     1       7.998  13.742  21.169  0.00  0.00    +0.000 N 
ATOM     32  C   UNL     1       7.470  14.646  20.152  0.00  0.00    +0.000 C 
ATOM     33  C   UNL     1       9.111  12.892  21.024  0.00  0.00    +0.000 C 
ATOM     34  O   UNL     1       9.536  12.208  21.962  0.00  0.00    +0.000 OA
ENDBRANCH  24  33
ENDBRANCH  22  29
ENDBRANCH  21  22
ENDBRANCH  20  21
ENDBRANCH  19  20
ENDBRANCH   1  19
TORSDOF 10
ENDMDL
