MODEL 1
REMARK VINA RESULT:      -9.0      0.000      0.000
REMARK  Name = 
REMARK  4 active torsions:
REMARK  status: ('A' for Active; 'I' for Inactive)
REMARK    1  A    between atoms: C_2  and  C_3
REMARK    2  A    between atoms: C_12  and  C_13
REMARK    3  A    between atoms: C_17  and  C_18
REMARK    4  A    between atoms: C_19  and  C_20
REMARK                            x       y       z     vdW  Elec       q    Type
REMARK                         _______ _______ _______ _____ _____    ______ ____
ROOT
ATOM      1  C   UNL     1      -0.334  11.948  19.413  0.00  0.00    +0.000 A 
ATOM      2  C   UNL     1       0.503  12.951  18.896  0.00  0.00    +0.000 A 
ATOM      3  C   UNL     1       1.723  12.636  18.301  0.00  0.00    +0.000 A 
ATOM      4  C   UNL     1       2.110  11.306  18.177  0.00  0.00    +0.000 A 
ATOM      5  C   UNL     1       1.281  10.276  18.639  0.00  0.00    +0.000 A 
ATOM      6  C   UNL     1       0.056  10.608  19.246  0.00  0.00    +0.000 A 
ENDROOT
BRANCH   1  16
ATOM      7  C   UNL     1      -5.131  12.417  19.294  0.00  0.00    +0.000 A 
ATOM      8  C   UNL     1      -6.363  12.684  19.916  0.00  0.00    +0.000 A 
ATOM      9  C   UNL     1      -6.405  13.030  21.266  0.00  0.00    +0.000 A 
ATOM     10 CL   UNL     1      -7.914  13.355  22.021  0.00  0.00    +0.000 Cl
ATOM     11  C   UNL     1      -5.232  13.113  22.008  0.00  0.00    +0.000 A 
ATOM     12  C   UNL     1      -4.009  12.847  21.382  0.00  0.00    +0.000 A 
ATOM     13  C   UNL     1      -2.771  12.923  22.160  0.00  0.00    +0.000 A 
ATOM     14  O   UNL     1      -2.758  13.231  23.344  0.00  0.00    +0.000 OA
ATOM     15  C   UNL     1      -1.532  12.603  21.448  0.00  0.00    +0.000 A 
ATOM     16  C   UNL     1      -1.576  12.299  20.142  0.00  0.00    +0.000 A 
ATOM     17  O   UNL     1      -2.748  12.237  19.403  0.00  0.00    +0.000 OA
ATOM     18  C   UNL     1      -3.945  12.502  20.033  0.00  0.00    +0.000 A 
BRANCH   7  20
ATOM     19  N   UNL     1      -5.108  11.740  16.790  0.00  0.00    +0.000 NA
ATOM     20  C   UNL     1      -5.117  12.059  17.905  0.00  0.00    +0.000 C 
ENDBRANCH   7  20
ENDBRANCH   1  16
BRANCH   5  21
ATOM     21  C   UNL     1       1.632   8.860  18.455  0.00  0.00    +0.000 C 
ATOM     22  C   UNL     1       2.811   8.424  17.978  0.00  0.00    +0.000 C 
BRANCH  22  23
ATOM     23  C   UNL     1       3.141   7.005  17.784  0.00  0.00    +0.000 A 
ATOM     24  C   UNL     1       4.354   6.646  17.210  0.00  0.00    +0.000 A 
ATOM     25  C   UNL     1       4.644   5.295  17.056  0.00  0.00    +0.000 A 
ATOM     26  C   UNL     1       3.716   4.336  17.478  0.00  0.00    +0.000 A 
ATOM     27  C   UNL     1       3.965   2.958  17.352  0.00  0.00    +0.000 A 
ATOM     28  C   UNL     1       3.019   2.031  17.786  0.00  0.00    +0.000 A 
ATOM     29  C   UNL     1       1.825   2.476  18.340  0.00  0.00    +0.000 A 
ATOM     30  C   UNL     1       1.580   3.847  18.461  0.00  0.00    +0.000 A 
ATOM     31  C   UNL     1       2.507   4.791  18.041  0.00  0.00    +0.000 A 
ATOM     32  N   UNL     1       2.226   6.095  18.190  0.00  0.00    +0.000 NA
ENDBRANCH  22  23
ENDBRANCH   5  21
TORSDOF 4
ENDMDL
MODEL 2
REMARK VINA RESULT:      -8.8      1.858      3.036
REMARK  Name = 
REMARK  4 active torsions:
REMARK  status: ('A' for Active; 'I' for Inactive)
REMARK    1  A    between atoms: C_2  and  C_3
REMARK    2  A    between atoms: C_12  and  C_13
REMARK    3  A    between atoms: C_17  and  C_18
REMARK    4  A    between atoms: C_19  and  C_20
REMARK                            x       y       z     vdW  Elec       q    Type
REMARK                         _______ _______ _______ _____ _____    ______ ____
ROOT
ATOM      1  C   UNL     1      -0.546  11.958  18.864  0.00  0.00    +0.000 A 
ATOM      2  C   UNL     1       0.240  13.121  18.932  0.00  0.00    +0.000 A 
ATOM      3  C   UNL     1       1.613  13.079  18.701  0.00  0.00    +0.000 A 
ATOM      4  C   UNL     1       2.220  11.876  18.357  0.00  0.00    +0.000 A 
ATOM      5  C   UNL     1       1.463  10.704  18.233  0.00  0.00    +0.000 A 
ATOM      6  C   UNL     1       0.079  10.759  18.479  0.00  0.00    +0.000 A 
ENDROOT
BRANCH   1  16
ATOM      7  C   UNL     1      -3.906  13.086  22.132  0.00  0.00    +0.000 A 
ATOM      8  C   UNL     1      -5.247  13.204  22.536  0.00  0.00    +0.000 A 
ATOM      9  C   UNL     1      -6.274  12.821  21.674  0.00  0.00    +0.000 A 
ATOM     10 CL   UNL     1      -7.912  12.968  22.174  0.00  0.00    +0.000 Cl
ATOM     11  C   UNL     1      -5.982  12.321  20.410  0.00  0.00    +0.000 A 
ATOM     12  C   UNL     1      -4.645  12.206  20.015  0.00  0.00    +0.000 A 
ATOM     13  C   UNL     1      -4.331  11.690  18.681  0.00  0.00    +0.000 A 
ATOM     14  O   UNL     1      -5.198  11.333  17.895  0.00  0.00    +0.000 OA
ATOM     15  C   UNL     1      -2.912  11.624  18.324  0.00  0.00    +0.000 A 
ATOM     16  C   UNL     1      -1.984  11.993  19.219  0.00  0.00    +0.000 A 
ATOM     17  O   UNL     1      -2.281  12.473  20.486  0.00  0.00    +0.000 OA
ATOM     18  C   UNL     1      -3.603  12.581  20.862  0.00  0.00    +0.000 A 
BRANCH   7  20
ATOM     19  N   UNL     1      -2.030  13.848  23.754  0.00  0.00    +0.000 NA
ATOM     20  C   UNL     1      -2.869  13.492  23.036  0.00  0.00    +0.000 C 
ENDBRANCH   7  20
ENDBRANCH   1  16
BRANCH   5  21
ATOM     21  C   UNL     1       2.067   9.435  17.801  0.00  0.00    +0.000 C 
ATOM     22  C   UNL     1       2.198   8.350  18.584  0.00  0.00    +0.000 C 
BRANCH  22  23
ATOM     23  C   UNL     1       2.821   7.094  18.143  0.00  0.00    +0.000 A 
ATOM     24  C   UNL     1       2.288   5.875  18.545  0.00  0.00    +0.000 A 
ATOM     25  C   UNL     1       2.890   4.705  18.096  0.00  0.00    +0.000 A 
ATOM     26  C   UNL     1       4.009   4.779  17.258  0.00  0.00    +0.000 A 
ATOM     27  C   UNL     1       4.647   3.626  16.771  0.00  0.00    +0.000 A 
ATOM     28  C   UNL     1       5.757   3.738  15.936  0.00  0.00    +0.000 A 
ATOM     29  C   UNL     1       6.233   4.997  15.591  0.00  0.00    +0.000 A 
ATOM     30  C   UNL     1       5.596   6.142  16.079  0.00  0.00    +0.000 A 
ATOM     31  C   UNL     1       4.487   6.058  16.909  0.00  0.00    +0.000 A 
ATOM     32  N   UNL     1       3.906   7.189  17.342  0.00  0.00    +0.000 NA
ENDBRANCH  22  23
ENDBRANCH   5  21
TORSDOF 4
ENDMDL
MODEL 3
REMARK VINA RESULT:      -8.8      1.803      2.597
REMARK  Name = 
REMARK  4 active torsions:
REMARK  status: ('A' for Active; 'I' for Inactive)
REMARK    1  A    between atoms: C_2  and  C_3
REMARK    2  A    between atoms: C_12  and  C_13
REMARK    3  A    between atoms: C_17  and  C_18
REMARK    4  A    between atoms: C_19  and  C_20
REMARK                            x       y       z     vdW  Elec       q    Type
REMARK                         _______ _______ _______ _____ _____    ______ ____
ROOT
ATOM      1  C   UNL     1      -0.461  11.830  18.970  0.00  0.00    +0.000 A 
ATOM      2  C   UNL     1       0.452  12.878  18.764  0.00  0.00    +0.000 A 
ATOM      3  C   UNL     1       1.760  12.626  18.356  0.00  0.00    +0.000 A 
ATOM      4  C   UNL     1       2.168  11.320  18.108  0.00  0.00    +0.000 A 
ATOM      5  C   UNL     1       1.273  10.253  18.257  0.00  0.00    +0.000 A 
ATOM      6  C   UNL     1      -0.042  10.520  18.678  0.00  0.00    +0.000 A 
ENDROOT
BRANCH   1  16
ATOM      7  C   UNL     1      -3.130  13.617  22.565  0.00  0.00    +0.000 A 
ATOM      8  C   UNL     1      -4.370  13.956  23.134  0.00  0.00    +0.000 A 
ATOM      9  C   UNL     1      -5.552  13.688  22.446  0.00  0.00    +0.000 A 
ATOM     10 CL   UNL     1      -7.065  14.104  23.147  0.00  0.00    +0.000 Cl
ATOM     11  C   UNL     1      -5.516  13.085  21.193  0.00  0.00    +0.000 A 
ATOM     12  C   UNL     1      -4.278  12.750  20.634  0.00  0.00    +0.000 A 
ATOM     13  C   UNL     1      -4.233  12.124  19.310  0.00  0.00    +0.000 A 
ATOM     14  O   UNL     1      -5.244  11.862  18.674  0.00  0.00    +0.000 OA
ATOM     15  C   UNL     1      -2.903  11.828  18.774  0.00  0.00    +0.000 A 
ATOM     16  C   UNL     1      -1.814  12.099  19.509  0.00  0.00    +0.000 A 
ATOM     17  O   UNL     1      -1.858  12.682  20.767  0.00  0.00    +0.000 OA
ATOM     18  C   UNL     1      -3.085  13.007  21.306  0.00  0.00    +0.000 A 
BRANCH   7  20
ATOM     19  N   UNL     1      -0.960  14.174  23.873  0.00  0.00    +0.000 NA
ATOM     20  C   UNL     1      -1.929  13.909  23.293  0.00  0.00    +0.000 C 
ENDBRANCH   7  20
ENDBRANCH   1  16
BRANCH   5  21
ATOM     21  C   UNL     1       1.657   8.871  17.931  0.00  0.00    +0.000 C 
ATOM     22  C   UNL     1       2.473   8.111  18.683  0.00  0.00    +0.000 C 
BRANCH  22  23
ATOM     23  C   UNL     1       2.862   6.737  18.335  0.00  0.00    +0.000 A 
ATOM     24  C   UNL     1       3.961   6.512  17.516  0.00  0.00    +0.000 A 
ATOM     25  C   UNL     1       4.313   5.200  17.220  0.00  0.00    +0.000 A 
ATOM     26  C   UNL     1       3.561   4.145  17.749  0.00  0.00    +0.000 A 
ATOM     27  C   UNL     1       3.882   2.802  17.487  0.00  0.00    +0.000 A 
ATOM     28  C   UNL     1       3.112   1.777  18.033  0.00  0.00    +0.000 A 
ATOM     29  C   UNL     1       2.021   2.090  18.836  0.00  0.00    +0.000 A 
ATOM     30  C   UNL     1       1.704   3.427  19.092  0.00  0.00    +0.000 A 
ATOM     31  C   UNL     1       2.457   4.466  18.564  0.00  0.00    +0.000 A 
ATOM     32  N   UNL     1       2.116   5.733  18.850  0.00  0.00    +0.000 NA
ENDBRANCH  22  23
ENDBRANCH   5  21
TORSDOF 4
ENDMDL
MODEL 4
REMARK VINA RESULT:      -8.8      9.246     10.638
REMARK  Name = 
REMARK  4 active torsions:
REMARK  status: ('A' for Active; 'I' for Inactive)
REMARK    1  A    between atoms: C_2  and  C_3
REMARK    2  A    between atoms: C_12  and  C_13
REMARK    3  A    between atoms: C_17  and  C_18
REMARK    4  A    between atoms: C_19  and  C_20
REMARK                            x       y       z     vdW  Elec       q    Type
REMARK                         _______ _______ _______ _____ _____    ______ ____
ROOT
ATOM      1  C   UNL     1       9.978  13.081  20.050  0.00  0.00    +0.000 A 
ATOM      2  C   UNL     1      10.703  13.515  18.926  0.00  0.00    +0.000 A 
ATOM      3  C   UNL     1      10.922  12.671  17.840  0.00  0.00    +0.000 A 
ATOM      4  C   UNL     1      10.386  11.388  17.841  0.00  0.00    +0.000 A 
ATOM      5  C   UNL     1       9.619  10.936  18.922  0.00  0.00    +0.000 A 
ATOM      6  C   UNL     1       9.413  11.795  20.017  0.00  0.00    +0.000 A 
ENDROOT
BRANCH   1  16
ATOM      7  C   UNL     1       8.224  13.624  24.507  0.00  0.00    +0.000 A 
ATOM      8  C   UNL     1       8.086  14.354  25.701  0.00  0.00    +0.000 A 
ATOM      9  C   UNL     1       8.688  15.605  25.831  0.00  0.00    +0.000 A 
ATOM     10 CL   UNL     1       8.515  16.492  27.293  0.00  0.00    +0.000 Cl
ATOM     11  C   UNL     1       9.430  16.141  24.785  0.00  0.00    +0.000 A 
ATOM     12  C   UNL     1       9.563  15.409  23.599  0.00  0.00    +0.000 A 
ATOM     13  C   UNL     1      10.352  15.963  22.497  0.00  0.00    +0.000 A 
ATOM     14  O   UNL     1      10.890  17.060  22.562  0.00  0.00    +0.000 OA
ATOM     15  C   UNL     1      10.472  15.131  21.298  0.00  0.00    +0.000 A 
ATOM     16  C   UNL     1       9.844  13.947  21.245  0.00  0.00    +0.000 A 
ATOM     17  O   UNL     1       9.089  13.427  22.286  0.00  0.00    +0.000 OA
ATOM     18  C   UNL     1       8.967  14.158  23.448  0.00  0.00    +0.000 A 
BRANCH   7  20
ATOM     19  N   UNL     1       7.067  11.309  24.331  0.00  0.00    +0.000 NA
ATOM     20  C   UNL     1       7.598  12.339  24.402  0.00  0.00    +0.000 C 
ENDBRANCH   7  20
ENDBRANCH   1  16
BRANCH   5  21
ATOM     21  C   UNL     1       8.981   9.612  18.917  0.00  0.00    +0.000 C 
ATOM     22  C   UNL     1       8.437   9.033  17.831  0.00  0.00    +0.000 C 
BRANCH  22  23
ATOM     23  C   UNL     1       7.787   7.716  17.846  0.00  0.00    +0.000 A 
ATOM     24  C   UNL     1       8.111   6.791  18.830  0.00  0.00    +0.000 A 
ATOM     25  C   UNL     1       7.464   5.560  18.825  0.00  0.00    +0.000 A 
ATOM     26  C   UNL     1       6.511   5.282  17.840  0.00  0.00    +0.000 A 
ATOM     27  C   UNL     1       5.824   4.057  17.798  0.00  0.00    +0.000 A 
ATOM     28  C   UNL     1       4.878   3.815  16.803  0.00  0.00    +0.000 A 
ATOM     29  C   UNL     1       4.620   4.793  15.849  0.00  0.00    +0.000 A 
ATOM     30  C   UNL     1       5.307   6.009  15.893  0.00  0.00    +0.000 A 
ATOM     31  C   UNL     1       6.251   6.276  16.875  0.00  0.00    +0.000 A 
ATOM     32  N   UNL     1       6.875   7.465  16.878  0.00  0.00    +0.000 NA
ENDBRANCH  22  23
ENDBRANCH   5  21
TORSDOF 4
ENDMDL
MODEL 5
REMARK VINA RESULT:      -8.5      1.108      1.188
REMARK  Name = 
REMARK  4 active torsions:
REMARK  status: ('A' for Active; 'I' for Inactive)
REMARK    1  A    between atoms: C_2  and  C_3
REMARK    2  A    between atoms: C_12  and  C_13
REMARK    3  A    between atoms: C_17  and  C_18
REMARK    4  A    between atoms: C_19  and  C_20
REMARK                            x       y       z     vdW  Elec       q    Type
REMARK                         _______ _______ _______ _____ _____    ______ ____
ROOT
ATOM      1  C   UNL     1      -0.359  12.427  19.565  0.00  0.00    +0.000 A 
ATOM      2  C   UNL     1       0.354  13.511  19.027  0.00  0.00    +0.000 A 
ATOM      3  C   UNL     1       1.570  13.322  18.374  0.00  0.00    +0.000 A 
ATOM      4  C   UNL     1       2.077  12.037  18.214  0.00  0.00    +0.000 A 
ATOM      5  C   UNL     1       1.373  10.927  18.696  0.00  0.00    +0.000 A 
ATOM      6  C   UNL     1       0.150  11.132  19.361  0.00  0.00    +0.000 A 
ENDROOT
BRANCH   1  16
ATOM      7  C   UNL     1      -5.179  12.428  19.663  0.00  0.00    +0.000 A 
ATOM      8  C   UNL     1      -6.402  12.568  20.343  0.00  0.00    +0.000 A 
ATOM      9  C   UNL     1      -6.416  12.895  21.698  0.00  0.00    +0.000 A 
ATOM     10 CL   UNL     1      -7.914  13.064  22.523  0.00  0.00    +0.000 Cl
ATOM     11  C   UNL     1      -5.224  13.085  22.389  0.00  0.00    +0.000 A 
ATOM     12  C   UNL     1      -4.011  12.945  21.706  0.00  0.00    +0.000 A 
ATOM     13  C   UNL     1      -2.752  13.133  22.430  0.00  0.00    +0.000 A 
ATOM     14  O   UNL     1      -2.716  13.430  23.616  0.00  0.00    +0.000 OA
ATOM     15  C   UNL     1      -1.522  12.943  21.659  0.00  0.00    +0.000 A 
ATOM     16  C   UNL     1      -1.594  12.648  20.353  0.00  0.00    +0.000 A 
ATOM     17  O   UNL     1      -2.787  12.480  19.665  0.00  0.00    +0.000 OA
ATOM     18  C   UNL     1      -3.975  12.621  20.351  0.00  0.00    +0.000 A 
BRANCH   7  20
ATOM     19  N   UNL     1      -5.179  11.826  17.140  0.00  0.00    +0.000 NA
ATOM     20  C   UNL     1      -5.193  12.087  18.271  0.00  0.00    +0.000 C 
ENDBRANCH   7  20
ENDBRANCH   1  16
BRANCH   5  21
ATOM     21  C   UNL     1       1.850   9.554  18.476  0.00  0.00    +0.000 C 
ATOM     22  C   UNL     1       1.811   8.578  19.400  0.00  0.00    +0.000 C 
BRANCH  22  23
ATOM     23  C   UNL     1       2.308   7.214  19.171  0.00  0.00    +0.000 A 
ATOM     24  C   UNL     1       2.996   6.912  18.003  0.00  0.00    +0.000 A 
ATOM     25  C   UNL     1       3.469   5.616  17.826  0.00  0.00    +0.000 A 
ATOM     26  C   UNL     1       3.244   4.655  18.817  0.00  0.00    +0.000 A 
ATOM     27  C   UNL     1       3.710   3.335  18.688  0.00  0.00    +0.000 A 
ATOM     28  C   UNL     1       3.470   2.404  19.698  0.00  0.00    +0.000 A 
ATOM     29  C   UNL     1       2.763   2.788  20.832  0.00  0.00    +0.000 A 
ATOM     30  C   UNL     1       2.300   4.101  20.955  0.00  0.00    +0.000 A 
ATOM     31  C   UNL     1       2.529   5.048  19.966  0.00  0.00    +0.000 A 
ATOM     32  N   UNL     1       2.072   6.298  20.139  0.00  0.00    +0.000 NA
ENDBRANCH  22  23
ENDBRANCH   5  21
TORSDOF 4
ENDMDL
MODEL 6
REMARK VINA RESULT:      -8.4      3.355      4.704
REMARK  Name = 
REMARK  4 active torsions:
REMARK  status: ('A' for Active; 'I' for Inactive)
REMARK    1  A    between atoms: C_2  and  C_3
REMARK    2  A    between atoms: C_12  and  C_13
REMARK    3  A    between atoms: C_17  and  C_18
REMARK    4  A    between atoms: C_19  and  C_20
REMARK                            x       y       z     vdW  Elec       q    Type
REMARK                         _______ _______ _______ _____ _____    ______ ____
ROOT
ATOM      1  C   UNL     1      -0.188  11.196  21.442  0.00  0.00    +0.000 A 
ATOM      2  C   UNL     1      -0.567  10.712  22.706  0.00  0.00    +0.000 A 
ATOM      3  C   UNL     1      -0.339   9.387  23.069  0.00  0.00    +0.000 A 
ATOM      4  C   UNL     1       0.308   8.529  22.187  0.00  0.00    +0.000 A 
ATOM      5  C   UNL     1       0.742   8.986  20.936  0.00  0.00    +0.000 A 
ATOM      6  C   UNL     1       0.498  10.324  20.578  0.00  0.00    +0.000 A 
ENDROOT
BRANCH   1  16
ATOM      7  C   UNL     1       1.041  15.110  18.910  0.00  0.00    +0.000 A 
ATOM      8  C   UNL     1       0.773  16.402  18.422  0.00  0.00    +0.000 A 
ATOM      9  C   UNL     1      -0.412  17.049  18.769  0.00  0.00    +0.000 A 
ATOM     10 CL   UNL     1      -0.732  18.628  18.171  0.00  0.00    +0.000 Cl
ATOM     11  C   UNL     1      -1.339  16.426  19.597  0.00  0.00    +0.000 A 
ATOM     12  C   UNL     1      -1.066  15.141  20.079  0.00  0.00    +0.000 A 
ATOM     13  C   UNL     1      -2.042  14.474  20.942  0.00  0.00    +0.000 A 
ATOM     14  O   UNL     1      -3.090  15.007  21.280  0.00  0.00    +0.000 OA
ATOM     15  C   UNL     1      -1.704  13.120  21.386  0.00  0.00    +0.000 A 
ATOM     16  C   UNL     1      -0.533  12.575  21.024  0.00  0.00    +0.000 A 
ATOM     17  O   UNL     1       0.396  13.210  20.214  0.00  0.00    +0.000 OA
ATOM     18  C   UNL     1       0.114  14.477  19.746  0.00  0.00    +0.000 A 
BRANCH   7  20
ATOM     19  N   UNL     1       3.260  13.936  18.258  0.00  0.00    +0.000 NA
ATOM     20  C   UNL     1       2.265  14.465  18.533  0.00  0.00    +0.000 C 
ENDBRANCH   7  20
ENDBRANCH   1  16
BRANCH   5  21
ATOM     21  C   UNL     1       1.493   8.121  20.014  0.00  0.00    +0.000 C 
ATOM     22  C   UNL     1       1.916   6.879  20.311  0.00  0.00    +0.000 C 
BRANCH  22  23
ATOM     23  C   UNL     1       2.681   6.033  19.385  0.00  0.00    +0.000 A 
ATOM     24  C   UNL     1       2.630   4.650  19.504  0.00  0.00    +0.000 A 
ATOM     25  C   UNL     1       3.351   3.877  18.601  0.00  0.00    +0.000 A 
ATOM     26  C   UNL     1       4.106   4.502  17.602  0.00  0.00    +0.000 A 
ATOM     27  C   UNL     1       4.845   3.765  16.661  0.00  0.00    +0.000 A 
ATOM     28  C   UNL     1       5.584   4.422  15.679  0.00  0.00    +0.000 A 
ATOM     29  C   UNL     1       5.589   5.812  15.637  0.00  0.00    +0.000 A 
ATOM     30  C   UNL     1       4.854   6.540  16.576  0.00  0.00    +0.000 A 
ATOM     31  C   UNL     1       4.108   5.911  17.562  0.00  0.00    +0.000 A 
ATOM     32  N   UNL     1       3.412   6.658  18.434  0.00  0.00    +0.000 NA
ENDBRANCH  22  23
ENDBRANCH   5  21
TORSDOF 4
ENDMDL
MODEL 7
REMARK VINA RESULT:      -8.4      3.059      4.384
REMARK  Name = 
REMARK  4 active torsions:
REMARK  status: ('A' for Active; 'I' for Inactive)
REMARK    1  A    between atoms: C_2  and  C_3
REMARK    2  A    between atoms: C_12  and  C_13
REMARK    3  A    between atoms: C_17  and  C_18
REMARK    4  A    between atoms: C_19  and  C_20
REMARK                            x       y       z     vdW  Elec       q    Type
REMARK                         _______ _______ _______ _____ _____    ______ ____
ROOT
ATOM      1  C   UNL     1       0.147  11.075  21.147  0.00  0.00    +0.000 A 
ATOM      2  C   UNL     1      -0.460  10.829  22.391  0.00  0.00    +0.000 A 
ATOM      3  C   UNL     1      -0.464   9.554  22.951  0.00  0.00    +0.000 A 
ATOM      4  C   UNL     1       0.174   8.507  22.294  0.00  0.00    +0.000 A 
ATOM      5  C   UNL     1       0.829   8.723  21.076  0.00  0.00    +0.000 A 
ATOM      6  C   UNL     1       0.818  10.014  20.516  0.00  0.00    +0.000 A 
ENDROOT
BRANCH   1  16
ATOM      7  C   UNL     1      -2.260  15.234  20.746  0.00  0.00    +0.000 A 
ATOM      8  C   UNL     1      -2.405  16.533  20.230  0.00  0.00    +0.000 A 
ATOM      9  C   UNL     1      -1.464  17.040  19.335  0.00  0.00    +0.000 A 
ATOM     10 CL   UNL     1      -1.647  18.630  18.707  0.00  0.00    +0.000 Cl
ATOM     11  C   UNL     1      -0.374  16.268  18.947  0.00  0.00    +0.000 A 
ATOM     12  C   UNL     1      -0.236  14.976  19.465  0.00  0.00    +0.000 A 
ATOM     13  C   UNL     1       0.915  14.162  19.069  0.00  0.00    +0.000 A 
ATOM     14  O   UNL     1       1.760  14.561  18.280  0.00  0.00    +0.000 OA
ATOM     15  C   UNL     1       1.010  12.830  19.671  0.00  0.00    +0.000 A 
ATOM     16  C   UNL     1       0.051  12.409  20.508  0.00  0.00    +0.000 A 
ATOM     17  O   UNL     1      -1.045  13.177  20.876  0.00  0.00    +0.000 OA
ATOM     18  C   UNL     1      -1.167  14.449  20.358  0.00  0.00    +0.000 A 
BRANCH   7  20
ATOM     19  N   UNL     1      -4.019  14.351  22.436  0.00  0.00    +0.000 NA
ATOM     20  C   UNL     1      -3.241  14.739  21.668  0.00  0.00    +0.000 C 
ENDBRANCH   7  20
ENDBRANCH   1  16
BRANCH   5  21
ATOM     21  C   UNL     1       1.572   7.651  20.397  0.00  0.00    +0.000 C 
ATOM     22  C   UNL     1       2.045   7.731  19.141  0.00  0.00    +0.000 C 
BRANCH  22  23
ATOM     23  C   UNL     1       2.771   6.644  18.469  0.00  0.00    +0.000 A 
ATOM     24  C   UNL     1       2.346   5.330  18.617  0.00  0.00    +0.000 A 
ATOM     25  C   UNL     1       3.044   4.326  17.953  0.00  0.00    +0.000 A 
ATOM     26  C   UNL     1       4.148   4.659  17.160  0.00  0.00    +0.000 A 
ATOM     27  C   UNL     1       4.880   3.682  16.463  0.00  0.00    +0.000 A 
ATOM     28  C   UNL     1       5.973   4.050  15.680  0.00  0.00    +0.000 A 
ATOM     29  C   UNL     1       6.337   5.389  15.595  0.00  0.00    +0.000 A 
ATOM     30  C   UNL     1       5.607   6.357  16.292  0.00  0.00    +0.000 A 
ATOM     31  C   UNL     1       4.513   6.017  17.075  0.00  0.00    +0.000 A 
ATOM     32  N   UNL     1       3.840   6.987  17.715  0.00  0.00    +0.000 NA
ENDBRANCH  22  23
ENDBRANCH   5  21
TORSDOF 4
ENDMDL
MODEL 8
REMARK VINA RESULT:      -8.4      2.731      3.859
REMARK  Name = 
REMARK  4 active torsions:
REMARK  status: ('A' for Active; 'I' for Inactive)
REMARK    1  A    between atoms: C_2  and  C_3
REMARK    2  A    between atoms: C_12  and  C_13
REMARK    3  A    between atoms: C_17  and  C_18
REMARK    4  A    between atoms: C_19  and  C_20
REMARK                            x       y       z     vdW  Elec       q    Type
REMARK                         _______ _______ _______ _____ _____    ______ ____
ROOT
ATOM      1  C   UNL     1      -1.078  11.643  19.492  0.00  0.00    +0.000 A 
ATOM      2  C   UNL     1      -2.161  11.756  18.603  0.00  0.00    +0.000 A 
ATOM      3  C   UNL     1      -2.249  10.952  17.469  0.00  0.00    +0.000 A 
ATOM      4  C   UNL     1      -1.274   9.991  17.224  0.00  0.00    +0.000 A 
ATOM      5  C   UNL     1      -0.205   9.817  18.112  0.00  0.00    +0.000 A 
ATOM      6  C   UNL     1      -0.122  10.641  19.249  0.00  0.00    +0.000 A 
ENDROOT
BRANCH   1  16
ATOM      7  C   UNL     1      -3.114  13.690  23.354  0.00  0.00    +0.000 A 
ATOM      8  C   UNL     1      -3.056  14.516  24.490  0.00  0.00    +0.000 A 
ATOM      9  C   UNL     1      -1.877  15.190  24.807  0.00  0.00    +0.000 A 
ATOM     10 CL   UNL     1      -1.813  16.198  26.197  0.00  0.00    +0.000 Cl
ATOM     11  C   UNL     1      -0.750  15.051  24.004  0.00  0.00    +0.000 A 
ATOM     12  C   UNL     1      -0.815  14.228  22.874  0.00  0.00    +0.000 A 
ATOM     13  C   UNL     1       0.371  14.070  22.031  0.00  0.00    +0.000 A 
ATOM     14  O   UNL     1       1.424  14.648  22.264  0.00  0.00    +0.000 OA
ATOM     15  C   UNL     1       0.240  13.171  20.882  0.00  0.00    +0.000 A 
ATOM     16  C   UNL     1      -0.937  12.576  20.635  0.00  0.00    +0.000 A 
ATOM     17  O   UNL     1      -2.063  12.734  21.429  0.00  0.00    +0.000 OA
ATOM     18  C   UNL     1      -1.984  13.548  22.539  0.00  0.00    +0.000 A 
BRANCH   7  20
ATOM     19  N   UNL     1      -5.343  12.473  22.825  0.00  0.00    +0.000 NA
ATOM     20  C   UNL     1      -4.337  13.005  23.055  0.00  0.00    +0.000 C 
ENDBRANCH   7  20
ENDBRANCH   1  16
BRANCH   5  21
ATOM     21  C   UNL     1       0.799   8.762  17.915  0.00  0.00    +0.000 C 
ATOM     22  C   UNL     1       1.732   8.420  18.821  0.00  0.00    +0.000 C 
BRANCH  22  23
ATOM     23  C   UNL     1       2.741   7.374  18.603  0.00  0.00    +0.000 A 
ATOM     24  C   UNL     1       2.920   6.373  19.548  0.00  0.00    +0.000 A 
ATOM     25  C   UNL     1       3.871   5.388  19.302  0.00  0.00    +0.000 A 
ATOM     26  C   UNL     1       4.620   5.428  18.121  0.00  0.00    +0.000 A 
ATOM     27  C   UNL     1       5.586   4.451  17.823  0.00  0.00    +0.000 A 
ATOM     28  C   UNL     1       6.311   4.521  16.635  0.00  0.00    +0.000 A 
ATOM     29  C   UNL     1       6.077   5.565  15.747  0.00  0.00    +0.000 A 
ATOM     30  C   UNL     1       5.116   6.534  16.049  0.00  0.00    +0.000 A 
ATOM     31  C   UNL     1       4.378   6.486  17.223  0.00  0.00    +0.000 A 
ATOM     32  N   UNL     1       3.460   7.437  17.458  0.00  0.00    +0.000 NA
ENDBRANCH  22  23
ENDBRANCH   5  21
TORSDOF 4
ENDMDL
MODEL 9
REMARK VINA RESULT:      -8.3      3.611      5.502
REMARK  Name = 
REMARK  4 active torsions:
REMARK  status: ('A' for Active; 'I' for Inactive)
REMARK    1  A    between atoms: C_2  and  C_3
REMARK    2  A    between atoms: C_12  and  C_13
REMARK    3  A    between atoms: C_17  and  C_18
REMARK    4  A    between atoms: C_19  and  C_20
REMARK                            x       y       z     vdW  Elec       q    Type
REMARK                         _______ _______ _______ _____ _____    ______ ____
ROOT
ATOM      1  C   UNL     1       1.451   7.566  20.541  0.00  0.00    +0.000 A 
ATOM      2  C   UNL     1       1.118   6.387  21.229  0.00  0.00    +0.000 A 
ATOM      3  C   UNL     1       1.533   5.140  20.765  0.00  0.00    +0.000 A 
ATOM      4  C   UNL     1       2.323   5.054  19.624  0.00  0.00    +0.000 A 
ATOM      5  C   UNL     1       2.713   6.211  18.937  0.00  0.00    +0.000 A 
ATOM      6  C   UNL     1       2.280   7.463  19.411  0.00  0.00    +0.000 A 
ENDROOT
BRANCH   1  16
ATOM      7  C   UNL     1       1.155  12.315  19.759  0.00  0.00    +0.000 A 
ATOM      8  C   UNL     1       0.651  13.590  20.070  0.00  0.00    +0.000 A 
ATOM      9  C   UNL     1      -0.211  13.757  21.153  0.00  0.00    +0.000 A 
ATOM     10 CL   UNL     1      -0.822  15.319  21.529  0.00  0.00    +0.000 Cl
ATOM     11  C   UNL     1      -0.581  12.667  21.933  0.00  0.00    +0.000 A 
ATOM     12  C   UNL     1      -0.076  11.401  21.617  0.00  0.00    +0.000 A 
ATOM     13  C   UNL     1      -0.471  10.247  22.428  0.00  0.00    +0.000 A 
ATOM     14  O   UNL     1      -1.217  10.347  23.392  0.00  0.00    +0.000 OA
ATOM     15  C   UNL     1       0.073   8.948  22.023  0.00  0.00    +0.000 A 
ATOM     16  C   UNL     1       0.913   8.876  20.980  0.00  0.00    +0.000 A 
ATOM     17  O   UNL     1       1.295   9.971  20.218  0.00  0.00    +0.000 OA
ATOM     18  C   UNL     1       0.789  11.212  20.541  0.00  0.00    +0.000 A 
BRANCH   7  20
ATOM     19  N   UNL     1       2.746  12.083  17.724  0.00  0.00    +0.000 NA
ATOM     20  C   UNL     1       2.036  12.170  18.637  0.00  0.00    +0.000 C 
ENDBRANCH   7  20
ENDBRANCH   1  16
BRANCH   5  21
ATOM     21  C   UNL     1       3.606   6.153  17.771  0.00  0.00    +0.000 C 
ATOM     22  C   UNL     1       4.373   5.096  17.451  0.00  0.00    +0.000 C 
BRANCH  22  23
ATOM     23  C   UNL     1       5.275   5.060  16.292  0.00  0.00    +0.000 A 
ATOM     24  C   UNL     1       6.476   5.756  16.323  0.00  0.00    +0.000 A 
ATOM     25  C   UNL     1       7.315   5.686  15.216  0.00  0.00    +0.000 A 
ATOM     26  C   UNL     1       6.934   4.925  14.106  0.00  0.00    +0.000 A 
ATOM     27  C   UNL     1       7.751   4.817  12.967  0.00  0.00    +0.000 A 
ATOM     28  C   UNL     1       7.341   4.047  11.880  0.00  0.00    +0.000 A 
ATOM     29  C   UNL     1       6.117   3.390  11.926  0.00  0.00    +0.000 A 
ATOM     30  C   UNL     1       5.307   3.503  13.060  0.00  0.00    +0.000 A 
ATOM     31  C   UNL     1       5.694   4.259  14.157  0.00  0.00    +0.000 A 
ATOM     32  N   UNL     1       4.883   4.325  15.225  0.00  0.00    +0.000 NA
ENDBRANCH  22  23
ENDBRANCH   5  21
TORSDOF 4
ENDMDL
