MODEL 1
REMARK VINA RESULT:      -7.0      0.000      0.000
REMARK  Name = 
REMARK  12 active torsions:
REMARK  status: ('A' for Active; 'I' for Inactive)
REMARK    1  A    between atoms: C_1  and  C_2
REMARK    2  A    between atoms: C_2  and  C_3
REMARK    3  A    between atoms: C_3  and  C_4
REMARK    4  A    between atoms: C_4  and  C_5
REMARK    5  A    between atoms: C_5  and  N_6
REMARK    6  A    between atoms: C_10  and  N_11
REMARK    7  A    between atoms: C_12  and  C_13
REMARK    8  A    between atoms: C_13  and  O_15
REMARK    9  A    between atoms: O_15  and  C_16
REMARK   10  A    between atoms: C_16  and  C_17
REMARK   11  A    between atoms: C_18  and  C_19
REMARK   12  A    between atoms: C_19  and  C_20
REMARK                            x       y       z     vdW  Elec       q    Type
REMARK                         _______ _______ _______ _____ _____    ______ ____
ROOT
ATOM      1  N   UNL     1       6.798   6.501  17.422  0.00  0.00    +0.000 N 
ATOM      2  N   UNL     1       7.653   5.453  17.413  0.00  0.00    +0.000 NA
ATOM      3  C   UNL     1       6.843   4.397  17.560  0.00  0.00    +0.000 A 
ATOM      4  C   UNL     1       5.486   4.759  17.706  0.00  0.00    +0.000 A 
ATOM      5  C   UNL     1       4.260   4.097  17.908  0.00  0.00    +0.000 A 
ATOM      6  C   UNL     1       3.105   4.921  18.044  0.00  0.00    +0.000 A 
ATOM      7  C   UNL     1       3.234   6.324  17.923  0.00  0.00    +0.000 A 
ATOM      8  N   UNL     1       4.424   6.951  17.696  0.00  0.00    +0.000 NA
ATOM      9  C   UNL     1       5.488   6.138  17.619  0.00  0.00    +0.000 A 
ENDROOT
BRANCH   5  10
ATOM     10  N   UNL     1       4.184   2.694  17.876  0.00  0.00    +0.000 N 
ATOM     11  H   UNL     1       5.067   2.202  17.978  0.00  0.00    +0.000 HD
ATOM     12  H   UNL     1       3.451   2.323  18.490  0.00  0.00    +0.000 HD
ENDBRANCH   5  10
BRANCH   6  13
ATOM     13  C   UNL     1       1.853   4.220  18.456  0.00  0.00    +0.000 C 
ATOM     14  O   UNL     1       1.162   3.610  17.647  0.00  0.00    +0.000 OA
BRANCH  13  15
ATOM     15  O   UNL     1       1.542   4.375  19.764  0.00  0.00    +0.000 OA
BRANCH  15  16
ATOM     16  C   UNL     1       1.301   3.144  20.480  0.00  0.00    +0.000 C 
ATOM     17  C   UNL     1       2.412   2.846  21.475  0.00  0.00    +0.000 C 
ENDBRANCH  15  16
ENDBRANCH  13  15
ENDBRANCH   6  13
BRANCH   7  18
ATOM     18  C   UNL     1       2.057   7.271  18.056  0.00  0.00    +0.000 C 
ATOM     19  C   UNL     1       2.395   8.745  17.791  0.00  0.00    +0.000 C 
ENDBRANCH   7  18
BRANCH   1  20
ATOM     20  C   UNL     1       7.316   7.842  17.235  0.00  0.00    +0.000 C 
BRANCH  20  21
ATOM     21  C   UNL     1       8.297   8.282  18.328  0.00  0.00    +0.000 C 
BRANCH  21  22
ATOM     22  C   UNL     1       8.649   9.770  18.246  0.00  0.00    +0.000 C 
BRANCH  22  24
ATOM     23  C   UNL     1       9.389  11.736  19.639  0.00  0.00    +0.000 C 
ATOM     24  C   UNL     1       9.427  10.224  19.482  0.00  0.00    +0.000 C 
ENDBRANCH  22  24
ENDBRANCH  21  22
ENDBRANCH  20  21
ENDBRANCH   1  20
TORSDOF 9
ENDMDL
MODEL 2
REMARK VINA RESULT:      -6.9      2.685      4.987
REMARK  Name = 
REMARK  12 active torsions:
REMARK  status: ('A' for Active; 'I' for Inactive)
REMARK    1  A    between atoms: C_1  and  C_2
REMARK    2  A    between atoms: C_2  and  C_3
REMARK    3  A    between atoms: C_3  and  C_4
REMARK    4  A    between atoms: C_4  and  C_5
REMARK    5  A    between atoms: C_5  and  N_6
REMARK    6  A    between atoms: C_10  and  N_11
REMARK    7  A    between atoms: C_12  and  C_13
REMARK    8  A    between atoms: C_13  and  O_15
REMARK    9  A    between atoms: O_15  and  C_16
REMARK   10  A    between atoms: C_16  and  C_17
REMARK   11  A    between atoms: C_18  and  C_19
REMARK   12  A    between atoms: C_19  and  C_20
REMARK                            x       y       z     vdW  Elec       q    Type
REMARK                         _______ _______ _______ _____ _____    ______ ____
ROOT
ATOM      1  N   UNL     1       6.143   5.536  16.247  0.00  0.00    +0.000 N 
ATOM      2  N   UNL     1       6.132   6.887  16.307  0.00  0.00    +0.000 NA
ATOM      3  C   UNL     1       5.025   7.152  17.012  0.00  0.00    +0.000 A 
ATOM      4  C   UNL     1       4.305   5.990  17.366  0.00  0.00    +0.000 A 
ATOM      5  C   UNL     1       3.114   5.687  18.051  0.00  0.00    +0.000 A 
ATOM      6  C   UNL     1       2.753   4.310  18.126  0.00  0.00    +0.000 A 
ATOM      7  C   UNL     1       3.612   3.335  17.565  0.00  0.00    +0.000 A 
ATOM      8  N   UNL     1       4.780   3.642  16.931  0.00  0.00    +0.000 NA
ATOM      9  C   UNL     1       5.055   4.951  16.848  0.00  0.00    +0.000 A 
ENDROOT
BRANCH   5  10
ATOM     10  N   UNL     1       2.382   6.692  18.707  0.00  0.00    +0.000 N 
ATOM     11  H   UNL     1       1.902   6.407  19.554  0.00  0.00    +0.000 HD
ATOM     12  H   UNL     1       2.920   7.558  18.828  0.00  0.00    +0.000 HD
ENDBRANCH   5  10
BRANCH   6  13
ATOM     13  C   UNL     1       1.395   4.024  18.676  0.00  0.00    +0.000 C 
ATOM     14  O   UNL     1       0.475   3.655  17.955  0.00  0.00    +0.000 OA
BRANCH  13  15
ATOM     15  O   UNL     1       1.278   4.266  20.003  0.00  0.00    +0.000 OA
BRANCH  15  16
ATOM     16  C   UNL     1       1.197   3.084  20.829  0.00  0.00    +0.000 C 
ATOM     17  C   UNL     1       2.447   2.904  21.676  0.00  0.00    +0.000 C 
ENDBRANCH  15  16
ENDBRANCH  13  15
ENDBRANCH   6  13
BRANCH   7  18
ATOM     18  C   UNL     1       3.303   1.851  17.600  0.00  0.00    +0.000 C 
ATOM     19  C   UNL     1       3.908   1.105  18.797  0.00  0.00    +0.000 C 
ENDBRANCH   7  18
BRANCH   1  20
ATOM     20  C   UNL     1       7.244   4.863  15.587  0.00  0.00    +0.000 C 
BRANCH  20  21
ATOM     21  C   UNL     1       7.126   4.840  14.059  0.00  0.00    +0.000 C 
BRANCH  21  22
ATOM     22  C   UNL     1       6.056   3.865  13.559  0.00  0.00    +0.000 C 
BRANCH  22  24
ATOM     23  C   UNL     1       5.216   2.557  11.575  0.00  0.00    +0.000 C 
ATOM     24  C   UNL     1       6.353   3.400  12.133  0.00  0.00    +0.000 C 
ENDBRANCH  22  24
ENDBRANCH  21  22
ENDBRANCH  20  21
ENDBRANCH   1  20
TORSDOF 9
ENDMDL
MODEL 3
REMARK VINA RESULT:      -6.5      3.176      6.302
REMARK  Name = 
REMARK  12 active torsions:
REMARK  status: ('A' for Active; 'I' for Inactive)
REMARK    1  A    between atoms: C_1  and  C_2
REMARK    2  A    between atoms: C_2  and  C_3
REMARK    3  A    between atoms: C_3  and  C_4
REMARK    4  A    between atoms: C_4  and  C_5
REMARK    5  A    between atoms: C_5  and  N_6
REMARK    6  A    between atoms: C_10  and  N_11
REMARK    7  A    between atoms: C_12  and  C_13
REMARK    8  A    between atoms: C_13  and  O_15
REMARK    9  A    between atoms: O_15  and  C_16
REMARK   10  A    between atoms: C_16  and  C_17
REMARK   11  A    between atoms: C_18  and  C_19
REMARK   12  A    between atoms: C_19  and  C_20
REMARK                            x       y       z     vdW  Elec       q    Type
REMARK                         _______ _______ _______ _____ _____    ______ ____
ROOT
ATOM      1  N   UNL     1       3.230   3.817  20.501  0.00  0.00    +0.000 N 
ATOM      2  N   UNL     1       3.942   2.695  20.750  0.00  0.00    +0.000 NA
ATOM      3  C   UNL     1       5.034   2.852  19.991  0.00  0.00    +0.000 A 
ATOM      4  C   UNL     1       5.009   4.040  19.228  0.00  0.00    +0.000 A 
ATOM      5  C   UNL     1       5.838   4.673  18.283  0.00  0.00    +0.000 A 
ATOM      6  C   UNL     1       5.355   5.893  17.726  0.00  0.00    +0.000 A 
ATOM      7  C   UNL     1       4.122   6.421  18.175  0.00  0.00    +0.000 A 
ATOM      8  N   UNL     1       3.343   5.811  19.114  0.00  0.00    +0.000 NA
ATOM      9  C   UNL     1       3.818   4.646  19.576  0.00  0.00    +0.000 A 
ENDROOT
BRANCH   5  10
ATOM     10  N   UNL     1       7.116   4.166  17.989  0.00  0.00    +0.000 N 
ATOM     11  H   UNL     1       7.330   4.055  17.003  0.00  0.00    +0.000 HD
ATOM     12  H   UNL     1       7.861   4.648  18.505  0.00  0.00    +0.000 HD
ENDBRANCH   5  10
BRANCH   6  13
ATOM     13  C   UNL     1       6.146   6.444  16.587  0.00  0.00    +0.000 C 
ATOM     14  O   UNL     1       7.209   7.029  16.766  0.00  0.00    +0.000 OA
BRANCH  13  15
ATOM     15  O   UNL     1       5.553   6.288  15.380  0.00  0.00    +0.000 OA
BRANCH  15  16
ATOM     16  C   UNL     1       5.445   4.919  14.931  0.00  0.00    +0.000 C 
ATOM     17  C   UNL     1       6.645   4.506  14.095  0.00  0.00    +0.000 C 
ENDBRANCH  15  16
ENDBRANCH  13  15
ENDBRANCH   6  13
BRANCH   7  18
ATOM     18  C   UNL     1       3.536   7.711  17.634  0.00  0.00    +0.000 C 
ATOM     19  C   UNL     1       2.125   8.031  18.147  0.00  0.00    +0.000 C 
ENDBRANCH   7  18
BRANCH   1  20
ATOM     20  C   UNL     1       1.977   4.032  21.196  0.00  0.00    +0.000 C 
BRANCH  20  21
ATOM     21  C   UNL     1       0.749   3.995  20.280  0.00  0.00    +0.000 C 
BRANCH  21  22
ATOM     22  C   UNL     1       0.709   2.752  19.387  0.00  0.00    +0.000 C 
BRANCH  22  24
ATOM     23  C   UNL     1       2.326   2.154  17.549  0.00  0.00    +0.000 C 
ATOM     24  C   UNL     1       1.189   3.072  17.970  0.00  0.00    +0.000 C 
ENDBRANCH  22  24
ENDBRANCH  21  22
ENDBRANCH  20  21
ENDBRANCH   1  20
TORSDOF 9
ENDMDL
MODEL 4
REMARK VINA RESULT:      -6.4      3.469      5.781
REMARK  Name = 
REMARK  12 active torsions:
REMARK  status: ('A' for Active; 'I' for Inactive)
REMARK    1  A    between atoms: C_1  and  C_2
REMARK    2  A    between atoms: C_2  and  C_3
REMARK    3  A    between atoms: C_3  and  C_4
REMARK    4  A    between atoms: C_4  and  C_5
REMARK    5  A    between atoms: C_5  and  N_6
REMARK    6  A    between atoms: C_10  and  N_11
REMARK    7  A    between atoms: C_12  and  C_13
REMARK    8  A    between atoms: C_13  and  O_15
REMARK    9  A    between atoms: O_15  and  C_16
REMARK   10  A    between atoms: C_16  and  C_17
REMARK   11  A    between atoms: C_18  and  C_19
REMARK   12  A    between atoms: C_19  and  C_20
REMARK                            x       y       z     vdW  Elec       q    Type
REMARK                         _______ _______ _______ _____ _____    ______ ____
ROOT
ATOM      1  N   UNL     1       6.050   4.477  14.533  0.00  0.00    +0.000 N 
ATOM      2  N   UNL     1       7.295   4.975  14.710  0.00  0.00    +0.000 NA
ATOM      3  C   UNL     1       7.421   5.016  16.042  0.00  0.00    +0.000 A 
ATOM      4  C   UNL     1       6.257   4.592  16.720  0.00  0.00    +0.000 A 
ATOM      5  C   UNL     1       5.834   4.460  18.056  0.00  0.00    +0.000 A 
ATOM      6  C   UNL     1       4.497   4.013  18.261  0.00  0.00    +0.000 A 
ATOM      7  C   UNL     1       3.695   3.683  17.143  0.00  0.00    +0.000 A 
ATOM      8  N   UNL     1       4.128   3.786  15.854  0.00  0.00    +0.000 NA
ATOM      9  C   UNL     1       5.377   4.253  15.710  0.00  0.00    +0.000 A 
ENDROOT
BRANCH   5  10
ATOM     10  N   UNL     1       6.729   4.669  19.120  0.00  0.00    +0.000 N 
ATOM     11  H   UNL     1       6.471   5.401  19.775  0.00  0.00    +0.000 HD
ATOM     12  H   UNL     1       7.000   3.796  19.586  0.00  0.00    +0.000 HD
ENDBRANCH   5  10
BRANCH   6  13
ATOM     13  C   UNL     1       4.002   4.070  19.668  0.00  0.00    +0.000 C 
ATOM     14  O   UNL     1       3.784   5.138  20.229  0.00  0.00    +0.000 OA
BRANCH  13  15
ATOM     15  O   UNL     1       3.881   2.858  20.258  0.00  0.00    +0.000 OA
BRANCH  15  16
ATOM     16  C   UNL     1       2.937   2.806  21.349  0.00  0.00    +0.000 C 
ATOM     17  C   UNL     1       1.509   2.644  20.851  0.00  0.00    +0.000 C 
ENDBRANCH  15  16
ENDBRANCH  13  15
ENDBRANCH   6  13
BRANCH   7  18
ATOM     18  C   UNL     1       2.263   3.201  17.273  0.00  0.00    +0.000 C 
ATOM     19  C   UNL     1       1.245   4.310  17.574  0.00  0.00    +0.000 C 
ENDBRANCH   7  18
BRANCH   1  20
ATOM     20  C   UNL     1       5.564   4.239  13.189  0.00  0.00    +0.000 C 
BRANCH  20  21
ATOM     21  C   UNL     1       6.477   3.333  12.354  0.00  0.00    +0.000 C 
BRANCH  21  22
ATOM     22  C   UNL     1       5.727   2.162  11.713  0.00  0.00    +0.000 C 
BRANCH  22  24
ATOM     23  C   UNL     1       6.099  -0.277  11.198  0.00  0.00    +0.000 C 
ATOM     24  C   UNL     1       6.699   1.120  11.157  0.00  0.00    +0.000 C 
ENDBRANCH  22  24
ENDBRANCH  21  22
ENDBRANCH  20  21
ENDBRANCH   1  20
TORSDOF 9
ENDMDL
MODEL 5
REMARK VINA RESULT:      -6.4      3.544      6.386
REMARK  Name = 
REMARK  12 active torsions:
REMARK  status: ('A' for Active; 'I' for Inactive)
REMARK    1  A    between atoms: C_1  and  C_2
REMARK    2  A    between atoms: C_2  and  C_3
REMARK    3  A    between atoms: C_3  and  C_4
REMARK    4  A    between atoms: C_4  and  C_5
REMARK    5  A    between atoms: C_5  and  N_6
REMARK    6  A    between atoms: C_10  and  N_11
REMARK    7  A    between atoms: C_12  and  C_13
REMARK    8  A    between atoms: C_13  and  O_15
REMARK    9  A    between atoms: O_15  and  C_16
REMARK   10  A    between atoms: C_16  and  C_17
REMARK   11  A    between atoms: C_18  and  C_19
REMARK   12  A    between atoms: C_19  and  C_20
REMARK                            x       y       z     vdW  Elec       q    Type
REMARK                         _______ _______ _______ _____ _____    ______ ____
ROOT
ATOM      1  N   UNL     1       2.219   7.412  19.436  0.00  0.00    +0.000 N 
ATOM      2  N   UNL     1       2.154   8.574  18.747  0.00  0.00    +0.000 NA
ATOM      3  C   UNL     1       2.978   8.362  17.713  0.00  0.00    +0.000 A 
ATOM      4  C   UNL     1       3.601   7.095  17.755  0.00  0.00    +0.000 A 
ATOM      5  C   UNL     1       4.534   6.382  16.980  0.00  0.00    +0.000 A 
ATOM      6  C   UNL     1       4.912   5.094  17.461  0.00  0.00    +0.000 A 
ATOM      7  C   UNL     1       4.309   4.588  18.637  0.00  0.00    +0.000 A 
ATOM      8  N   UNL     1       3.381   5.278  19.361  0.00  0.00    +0.000 NA
ATOM      9  C   UNL     1       3.092   6.501  18.893  0.00  0.00    +0.000 A 
ENDROOT
BRANCH   5  10
ATOM     10  N   UNL     1       4.985   6.886  15.748  0.00  0.00    +0.000 N 
ATOM     11  H   UNL     1       5.256   7.865  15.745  0.00  0.00    +0.000 HD
ATOM     12  H   UNL     1       5.685   6.280  15.305  0.00  0.00    +0.000 HD
ENDBRANCH   5  10
BRANCH   6  13
ATOM     13  C   UNL     1       6.044   4.439  16.743  0.00  0.00    +0.000 C 
ATOM     14  O   UNL     1       7.198   4.527  17.148  0.00  0.00    +0.000 OA
BRANCH  13  15
ATOM     15  O   UNL     1       5.679   3.810  15.601  0.00  0.00    +0.000 OA
BRANCH  15  16
ATOM     16  C   UNL     1       6.552   4.046  14.474  0.00  0.00    +0.000 C 
ATOM     17  C   UNL     1       5.900   3.636  13.163  0.00  0.00    +0.000 C 
ENDBRANCH  15  16
ENDBRANCH  13  15
ENDBRANCH   6  13
BRANCH   7  18
ATOM     18  C   UNL     1       4.654   3.229  19.217  0.00  0.00    +0.000 C 
ATOM     19  C   UNL     1       3.701   2.750  20.320  0.00  0.00    +0.000 C 
ENDBRANCH   7  18
BRANCH   1  20
ATOM     20  C   UNL     1       1.404   7.244  20.623  0.00  0.00    +0.000 C 
BRANCH  20  21
ATOM     21  C   UNL     1       1.224   8.532  21.435  0.00  0.00    +0.000 C 
BRANCH  21  22
ATOM     22  C   UNL     1      -0.239   8.809  21.793  0.00  0.00    +0.000 C 
BRANCH  22  24
ATOM     23  C   UNL     1      -1.100  10.828  23.032  0.00  0.00    +0.000 C 
ATOM     24  C   UNL     1      -0.355   9.507  23.149  0.00  0.00    +0.000 C 
ENDBRANCH  22  24
ENDBRANCH  21  22
ENDBRANCH  20  21
ENDBRANCH   1  20
TORSDOF 9
ENDMDL
MODEL 6
REMARK VINA RESULT:      -6.4      2.439      6.378
REMARK  Name = 
REMARK  12 active torsions:
REMARK  status: ('A' for Active; 'I' for Inactive)
REMARK    1  A    between atoms: C_1  and  C_2
REMARK    2  A    between atoms: C_2  and  C_3
REMARK    3  A    between atoms: C_3  and  C_4
REMARK    4  A    between atoms: C_4  and  C_5
REMARK    5  A    between atoms: C_5  and  N_6
REMARK    6  A    between atoms: C_10  and  N_11
REMARK    7  A    between atoms: C_12  and  C_13
REMARK    8  A    between atoms: C_13  and  O_15
REMARK    9  A    between atoms: O_15  and  C_16
REMARK   10  A    between atoms: C_16  and  C_17
REMARK   11  A    between atoms: C_18  and  C_19
REMARK   12  A    between atoms: C_19  and  C_20
REMARK                            x       y       z     vdW  Elec       q    Type
REMARK                         _______ _______ _______ _____ _____    ______ ____
ROOT
ATOM      1  N   UNL     1       3.215   3.721  20.455  0.00  0.00    +0.000 N 
ATOM      2  N   UNL     1       3.916   2.582  20.652  0.00  0.00    +0.000 NA
ATOM      3  C   UNL     1       4.997   2.752  19.882  0.00  0.00    +0.000 A 
ATOM      4  C   UNL     1       4.976   3.966  19.161  0.00  0.00    +0.000 A 
ATOM      5  C   UNL     1       5.797   4.621  18.225  0.00  0.00    +0.000 A 
ATOM      6  C   UNL     1       5.322   5.866  17.719  0.00  0.00    +0.000 A 
ATOM      7  C   UNL     1       4.102   6.393  18.206  0.00  0.00    +0.000 A 
ATOM      8  N   UNL     1       3.331   5.761  19.137  0.00  0.00    +0.000 NA
ATOM      9  C   UNL     1       3.798   4.574  19.549  0.00  0.00    +0.000 A 
ENDROOT
BRANCH   5  10
ATOM     10  N   UNL     1       7.064   4.109  17.892  0.00  0.00    +0.000 N 
ATOM     11  H   UNL     1       7.381   4.299  16.947  0.00  0.00    +0.000 HD
ATOM     12  H   UNL     1       7.775   4.322  18.600  0.00  0.00    +0.000 HD
ENDBRANCH   5  10
BRANCH   6  13
ATOM     13  C   UNL     1       6.101   6.446  16.586  0.00  0.00    +0.000 C 
ATOM     14  O   UNL     1       6.283   5.824  15.546  0.00  0.00    +0.000 OA
BRANCH  13  15
ATOM     15  O   UNL     1       6.620   7.670  16.847  0.00  0.00    +0.000 OA
BRANCH  15  16
ATOM     16  C   UNL     1       7.813   7.661  17.660  0.00  0.00    +0.000 C 
ATOM     17  C   UNL     1       8.257   9.069  18.023  0.00  0.00    +0.000 C 
ENDBRANCH  15  16
ENDBRANCH  13  15
ENDBRANCH   6  13
BRANCH   7  18
ATOM     18  C   UNL     1       3.525   7.709  17.720  0.00  0.00    +0.000 C 
ATOM     19  C   UNL     1       2.147   8.050  18.304  0.00  0.00    +0.000 C 
ENDBRANCH   7  18
BRANCH   1  20
ATOM     20  C   UNL     1       1.975   3.927  21.178  0.00  0.00    +0.000 C 
BRANCH  20  21
ATOM     21  C   UNL     1       0.728   3.895  20.287  0.00  0.00    +0.000 C 
BRANCH  21  22
ATOM     22  C   UNL     1       0.559   2.565  19.547  0.00  0.00    +0.000 C 
BRANCH  22  24
ATOM     23  C   UNL     1       1.146   3.936  17.516  0.00  0.00    +0.000 C 
ATOM     24  C   UNL     1       1.281   2.585  18.199  0.00  0.00    +0.000 C 
ENDBRANCH  22  24
ENDBRANCH  21  22
ENDBRANCH  20  21
ENDBRANCH   1  20
TORSDOF 9
ENDMDL
MODEL 7
REMARK VINA RESULT:      -6.4      2.652      6.179
REMARK  Name = 
REMARK  12 active torsions:
REMARK  status: ('A' for Active; 'I' for Inactive)
REMARK    1  A    between atoms: C_1  and  C_2
REMARK    2  A    between atoms: C_2  and  C_3
REMARK    3  A    between atoms: C_3  and  C_4
REMARK    4  A    between atoms: C_4  and  C_5
REMARK    5  A    between atoms: C_5  and  N_6
REMARK    6  A    between atoms: C_10  and  N_11
REMARK    7  A    between atoms: C_12  and  C_13
REMARK    8  A    between atoms: C_13  and  O_15
REMARK    9  A    between atoms: O_15  and  C_16
REMARK   10  A    between atoms: C_16  and  C_17
REMARK   11  A    between atoms: C_18  and  C_19
REMARK   12  A    between atoms: C_19  and  C_20
REMARK                            x       y       z     vdW  Elec       q    Type
REMARK                         _______ _______ _______ _____ _____    ______ ____
ROOT
ATOM      1  N   UNL     1       1.856   3.001  18.163  0.00  0.00    +0.000 N 
ATOM      2  N   UNL     1       2.309   1.757  17.888  0.00  0.00    +0.000 NA
ATOM      3  C   UNL     1       3.520   1.982  17.364  0.00  0.00    +0.000 A 
ATOM      4  C   UNL     1       3.830   3.356  17.261  0.00  0.00    +0.000 A 
ATOM      5  C   UNL     1       4.900   4.136  16.785  0.00  0.00    +0.000 A 
ATOM      6  C   UNL     1       4.737   5.550  16.851  0.00  0.00    +0.000 A 
ATOM      7  C   UNL     1       3.560   6.088  17.421  0.00  0.00    +0.000 A 
ATOM      8  N   UNL     1       2.543   5.319  17.907  0.00  0.00    +0.000 NA
ATOM      9  C   UNL     1       2.723   3.997  17.783  0.00  0.00    +0.000 A 
ENDROOT
BRANCH   5  10
ATOM     10  N   UNL     1       6.099   3.536  16.363  0.00  0.00    +0.000 N 
ATOM     11  H   UNL     1       6.096   2.521  16.329  0.00  0.00    +0.000 HD
ATOM     12  H   UNL     1       6.474   3.960  15.507  0.00  0.00    +0.000 HD
ENDBRANCH   5  10
BRANCH   6  13
ATOM     13  C   UNL     1       5.788   6.358  16.163  0.00  0.00    +0.000 C 
ATOM     14  O   UNL     1       5.524   7.071  15.202  0.00  0.00    +0.000 OA
BRANCH  13  15
ATOM     15  O   UNL     1       7.034   6.176  16.662  0.00  0.00    +0.000 OA
BRANCH  15  16
ATOM     16  C   UNL     1       7.293   6.860  17.907  0.00  0.00    +0.000 C 
ATOM     17  C   UNL     1       7.891   8.238  17.679  0.00  0.00    +0.000 C 
ENDBRANCH  15  16
ENDBRANCH  13  15
ENDBRANCH   6  13
BRANCH   7  18
ATOM     18  C   UNL     1       3.307   7.580  17.529  0.00  0.00    +0.000 C 
ATOM     19  C   UNL     1       2.175   7.964  18.492  0.00  0.00    +0.000 C 
ENDBRANCH   7  18
BRANCH   1  20
ATOM     20  C   UNL     1       0.564   3.162  18.799  0.00  0.00    +0.000 C 
BRANCH  20  21
ATOM     21  C   UNL     1       0.625   3.165  20.330  0.00  0.00    +0.000 C 
BRANCH  21  22
ATOM     22  C   UNL     1       1.324   4.406  20.895  0.00  0.00    +0.000 C 
BRANCH  22  24
ATOM     23  C   UNL     1       2.901   2.544  21.526  0.00  0.00    +0.000 C 
ATOM     24  C   UNL     1       2.593   4.027  21.659  0.00  0.00    +0.000 C 
ENDBRANCH  22  24
ENDBRANCH  21  22
ENDBRANCH  20  21
ENDBRANCH   1  20
TORSDOF 9
ENDMDL
MODEL 8
REMARK VINA RESULT:      -6.3      2.992      5.224
REMARK  Name = 
REMARK  12 active torsions:
REMARK  status: ('A' for Active; 'I' for Inactive)
REMARK    1  A    between atoms: C_1  and  C_2
REMARK    2  A    between atoms: C_2  and  C_3
REMARK    3  A    between atoms: C_3  and  C_4
REMARK    4  A    between atoms: C_4  and  C_5
REMARK    5  A    between atoms: C_5  and  N_6
REMARK    6  A    between atoms: C_10  and  N_11
REMARK    7  A    between atoms: C_12  and  C_13
REMARK    8  A    between atoms: C_13  and  O_15
REMARK    9  A    between atoms: O_15  and  C_16
REMARK   10  A    between atoms: C_16  and  C_17
REMARK   11  A    between atoms: C_18  and  C_19
REMARK   12  A    between atoms: C_19  and  C_20
REMARK                            x       y       z     vdW  Elec       q    Type
REMARK                         _______ _______ _______ _____ _____    ______ ____
ROOT
ATOM      1  N   UNL     1       5.915   5.439  15.837  0.00  0.00    +0.000 N 
ATOM      2  N   UNL     1       5.649   6.664  15.331  0.00  0.00    +0.000 NA
ATOM      3  C   UNL     1       4.686   7.126  16.139  0.00  0.00    +0.000 A 
ATOM      4  C   UNL     1       4.303   6.195  17.128  0.00  0.00    +0.000 A 
ATOM      5  C   UNL     1       3.368   6.136  18.179  0.00  0.00    +0.000 A 
ATOM      6  C   UNL     1       3.311   4.917  18.915  0.00  0.00    +0.000 A 
ATOM      7  C   UNL     1       4.208   3.870  18.596  0.00  0.00    +0.000 A 
ATOM      8  N   UNL     1       5.131   3.953  17.595  0.00  0.00    +0.000 NA
ATOM      9  C   UNL     1       5.116   5.101  16.903  0.00  0.00    +0.000 A 
ENDROOT
BRANCH   5  10
ATOM     10  N   UNL     1       2.607   7.264  18.532  0.00  0.00    +0.000 N 
ATOM     11  H   UNL     1       1.601   7.162  18.442  0.00  0.00    +0.000 HD
ATOM     12  H   UNL     1       2.887   7.663  19.434  0.00  0.00    +0.000 HD
ENDBRANCH   5  10
BRANCH   6  13
ATOM     13  C   UNL     1       2.185   4.798  19.887  0.00  0.00    +0.000 C 
ATOM     14  O   UNL     1       2.083   5.553  20.848  0.00  0.00    +0.000 OA
BRANCH  13  15
ATOM     15  O   UNL     1       1.349   3.763  19.636  0.00  0.00    +0.000 OA
BRANCH  15  16
ATOM     16  C   UNL     1       0.788   3.139  20.811  0.00  0.00    +0.000 C 
ATOM     17  C   UNL     1       1.862   2.501  21.677  0.00  0.00    +0.000 C 
ENDBRANCH  15  16
ENDBRANCH  13  15
ENDBRANCH   6  13
BRANCH   7  18
ATOM     18  C   UNL     1       4.213   2.542  19.329  0.00  0.00    +0.000 C 
ATOM     19  C   UNL     1       3.644   1.369  18.519  0.00  0.00    +0.000 C 
ENDBRANCH   7  18
BRANCH   1  20
ATOM     20  C   UNL     1       6.962   4.635  15.239  0.00  0.00    +0.000 C 
BRANCH  20  21
ATOM     21  C   UNL     1       6.745   4.349  13.749  0.00  0.00    +0.000 C 
BRANCH  21  22
ATOM     22  C   UNL     1       5.406   3.664  13.463  0.00  0.00    +0.000 C 
BRANCH  22  24
ATOM     23  C   UNL     1       5.822   2.062  11.563  0.00  0.00    +0.000 C 
ATOM     24  C   UNL     1       5.226   3.401  11.967  0.00  0.00    +0.000 C 
ENDBRANCH  22  24
ENDBRANCH  21  22
ENDBRANCH  20  21
ENDBRANCH   1  20
TORSDOF 9
ENDMDL
MODEL 9
REMARK VINA RESULT:      -6.3      0.917      1.065
REMARK  Name = 
REMARK  12 active torsions:
REMARK  status: ('A' for Active; 'I' for Inactive)
REMARK    1  A    between atoms: C_1  and  C_2
REMARK    2  A    between atoms: C_2  and  C_3
REMARK    3  A    between atoms: C_3  and  C_4
REMARK    4  A    between atoms: C_4  and  C_5
REMARK    5  A    between atoms: C_5  and  N_6
REMARK    6  A    between atoms: C_10  and  N_11
REMARK    7  A    between atoms: C_12  and  C_13
REMARK    8  A    between atoms: C_13  and  O_15
REMARK    9  A    between atoms: O_15  and  C_16
REMARK   10  A    between atoms: C_16  and  C_17
REMARK   11  A    between atoms: C_18  and  C_19
REMARK   12  A    between atoms: C_19  and  C_20
REMARK                            x       y       z     vdW  Elec       q    Type
REMARK                         _______ _______ _______ _____ _____    ______ ____
ROOT
ATOM      1  N   UNL     1       7.020   6.642  17.351  0.00  0.00    +0.000 N 
ATOM      2  N   UNL     1       7.904   5.662  17.057  0.00  0.00    +0.000 NA
ATOM      3  C   UNL     1       7.129   4.575  16.950  0.00  0.00    +0.000 A 
ATOM      4  C   UNL     1       5.768   4.839  17.214  0.00  0.00    +0.000 A 
ATOM      5  C   UNL     1       4.569   4.104  17.270  0.00  0.00    +0.000 A 
ATOM      6  C   UNL     1       3.395   4.824  17.638  0.00  0.00    +0.000 A 
ATOM      7  C   UNL     1       3.480   6.217  17.874  0.00  0.00    +0.000 A 
ATOM      8  N   UNL     1       4.644   6.923  17.785  0.00  0.00    +0.000 NA
ATOM      9  C   UNL     1       5.727   6.194  17.480  0.00  0.00    +0.000 A 
ENDROOT
BRANCH   5  10
ATOM     10  N   UNL     1       4.532   2.753  16.885  0.00  0.00    +0.000 N 
ATOM     11  H   UNL     1       5.346   2.416  16.380  0.00  0.00    +0.000 HD
ATOM     12  H   UNL     1       4.256   2.130  17.652  0.00  0.00    +0.000 HD
ENDBRANCH   5  10
BRANCH   6  13
ATOM     13  C   UNL     1       2.178   3.998  17.887  0.00  0.00    +0.000 C 
ATOM     14  O   UNL     1       1.129   4.201  17.286  0.00  0.00    +0.000 OA
BRANCH  13  15
ATOM     15  O   UNL     1       2.334   3.070  18.860  0.00  0.00    +0.000 OA
BRANCH  15  16
ATOM     16  C   UNL     1       1.173   2.864  19.694  0.00  0.00    +0.000 C 
ATOM     17  C   UNL     1       1.271   3.642  20.997  0.00  0.00    +0.000 C 
ENDBRANCH  15  16
ENDBRANCH  13  15
ENDBRANCH   6  13
BRANCH   7  18
ATOM     18  C   UNL     1       2.281   7.057  18.269  0.00  0.00    +0.000 C 
ATOM     19  C   UNL     1       2.153   7.309  19.778  0.00  0.00    +0.000 C 
ENDBRANCH   7  18
BRANCH   1  20
ATOM     20  C   UNL     1       7.493   8.004  17.499  0.00  0.00    +0.000 C 
BRANCH  20  21
ATOM     21  C   UNL     1       8.534   8.179  18.610  0.00  0.00    +0.000 C 
BRANCH  21  22
ATOM     22  C   UNL     1       8.955   9.638  18.806  0.00  0.00    +0.000 C 
BRANCH  22  24
ATOM     23  C   UNL     1       8.851  11.968  17.850  0.00  0.00    +0.000 C 
ATOM     24  C   UNL     1       8.330  10.543  17.743  0.00  0.00    +0.000 C 
ENDBRANCH  22  24
ENDBRANCH  21  22
ENDBRANCH  20  21
ENDBRANCH   1  20
TORSDOF 9
ENDMDL
