MODEL 1
REMARK VINA RESULT:      -6.8      0.000      0.000
REMARK  Name = 
REMARK  6 active torsions:
REMARK  status: ('A' for Active; 'I' for Inactive)
REMARK    1  A    between atoms: N_11  and  C_12
REMARK    2  A    between atoms: C_12  and  C_13
REMARK    3  A    between atoms: N_15  and  C_16
REMARK    4  A    between atoms: C_16  and  N_17
REMARK    5  A    between atoms: N_25  and  N_26
REMARK    6  A    between atoms: C_27  and  C_28
REMARK                            x       y       z     vdW  Elec       q    Type
REMARK                         _______ _______ _______ _____ _____    ______ ____
ROOT
ATOM      1  C   UNL     1      -0.317  12.843  20.231  0.00  0.00    +0.000 A 
ATOM      2  N   UNL     1      -1.289  13.470  20.847  0.00  0.00    +0.000 NA
ATOM      3  N   UNL     1      -1.526  12.737  22.000  0.00  0.00    +0.000 N 
ATOM      4  C   UNL     1      -0.713  11.593  21.991  0.00  0.00    +0.000 A 
ATOM      5  S   UNL     1      -0.811  10.275  23.014  0.00  0.00    +0.000 S 
ATOM      6  N   UNL     1       0.150  11.766  20.906  0.00  0.00    +0.000 N 
ENDROOT
BRANCH   6   7
ATOM      7  N   UNL     1       0.987  10.764  20.528  0.00  0.00    +0.000 NA
ATOM      8  C   UNL     1       0.661   9.926  19.604  0.00  0.00    +0.000 C 
BRANCH   8   9
ATOM      9  C   UNL     1       1.580   8.832  19.282  0.00  0.00    +0.000 A 
ATOM     10  C   UNL     1       2.203   8.816  18.035  0.00  0.00    +0.000 A 
ATOM     11  C   UNL     1       2.918   7.683  17.654  0.00  0.00    +0.000 A 
ATOM     12  C   UNL     1       3.030   6.600  18.530  0.00  0.00    +0.000 A 
ATOM     13  C   UNL     1       2.456   6.654  19.800  0.00  0.00    +0.000 A 
ATOM     14  C   UNL     1       1.725   7.773  20.181  0.00  0.00    +0.000 A 
ENDBRANCH   8   9
ENDBRANCH   6   7
BRANCH   1  15
ATOM     15  C   UNL     1       0.088  13.270  18.818  0.00  0.00    +0.000 C 
BRANCH  15  26
ATOM     16  O   UNL     1       2.648  12.517  18.218  0.00  0.00    +0.000 OA
ATOM     17  C   UNL     1       2.446  13.729  18.338  0.00  0.00    +0.000 C 
ATOM     18  C   UNL     1       3.597  14.690  18.131  0.00  0.00    +0.000 C 
ATOM     19  S   UNL     1       3.612  15.990  19.374  0.00  0.00    +0.000 S 
ATOM     20  C   UNL     1       1.940  16.536  19.124  0.00  0.00    +0.000 A 
ATOM     21  C   UNL     1       1.645  17.876  19.403  0.00  0.00    +0.000 A 
ATOM     22  C   UNL     1       0.342  18.351  19.261  0.00  0.00    +0.000 A 
ATOM     23  C   UNL     1      -0.663  17.501  18.833  0.00  0.00    +0.000 A 
ATOM     24  C   UNL     1      -0.374  16.165  18.554  0.00  0.00    +0.000 A 
ATOM     25  C   UNL     1       0.914  15.650  18.738  0.00  0.00    +0.000 A 
ATOM     26  N   UNL     1       1.171  14.244  18.598  0.00  0.00    +0.000 N 
ENDBRANCH  15  26
ENDBRANCH   1  15
BRANCH   3  27
ATOM     27  C   UNL     1      -2.720  12.994  22.800  0.00  0.00    +0.000 C 
BRANCH  27  28
ATOM     28  N   UNL     1      -3.795  13.633  22.024  0.00  0.00    +0.000 NA
ATOM     29  C   UNL     1      -4.013  15.020  22.509  0.00  0.00    +0.000 C 
ATOM     30  C   UNL     1      -4.679  15.096  23.900  0.00  0.00    +0.000 C 
ATOM     31  O   UNL     1      -5.906  14.355  23.946  0.00  0.00    +0.000 OA
ATOM     32  C   UNL     1      -5.721  12.998  23.518  0.00  0.00    +0.000 C 
ATOM     33  C   UNL     1      -5.093  12.937  22.119  0.00  0.00    +0.000 C 
ENDBRANCH  27  28
ENDBRANCH   3  27
TORSDOF 6
ENDMDL
MODEL 2
REMARK VINA RESULT:      -6.7      6.131      9.190
REMARK  Name = 
REMARK  6 active torsions:
REMARK  status: ('A' for Active; 'I' for Inactive)
REMARK    1  A    between atoms: N_11  and  C_12
REMARK    2  A    between atoms: C_12  and  C_13
REMARK    3  A    between atoms: N_15  and  C_16
REMARK    4  A    between atoms: C_16  and  N_17
REMARK    5  A    between atoms: N_25  and  N_26
REMARK    6  A    between atoms: C_27  and  C_28
REMARK                            x       y       z     vdW  Elec       q    Type
REMARK                         _______ _______ _______ _____ _____    ______ ____
ROOT
ATOM      1  C   UNL     1       5.720  15.198  19.954  0.00  0.00    +0.000 A 
ATOM      2  N   UNL     1       6.396  14.715  20.967  0.00  0.00    +0.000 NA
ATOM      3  N   UNL     1       5.549  14.824  22.059  0.00  0.00    +0.000 N 
ATOM      4  C   UNL     1       4.373  15.482  21.663  0.00  0.00    +0.000 A 
ATOM      5  S   UNL     1       3.166  16.079  22.653  0.00  0.00    +0.000 S 
ATOM      6  N   UNL     1       4.462  15.584  20.272  0.00  0.00    +0.000 N 
ENDROOT
BRANCH   6   7
ATOM      7  N   UNL     1       3.538  16.297  19.577  0.00  0.00    +0.000 NA
ATOM      8  C   UNL     1       2.543  15.722  18.992  0.00  0.00    +0.000 C 
BRANCH   8   9
ATOM      9  C   UNL     1       1.613  16.537  18.208  0.00  0.00    +0.000 A 
ATOM     10  C   UNL     1       2.122  17.417  17.254  0.00  0.00    +0.000 A 
ATOM     11  C   UNL     1       1.258  18.328  16.650  0.00  0.00    +0.000 A 
ATOM     12  C   UNL     1      -0.100  18.328  16.979  0.00  0.00    +0.000 A 
ATOM     13  C   UNL     1      -0.608  17.401  17.889  0.00  0.00    +0.000 A 
ATOM     14  C   UNL     1       0.250  16.501  18.510  0.00  0.00    +0.000 A 
ENDBRANCH   8   9
ENDBRANCH   6   7
BRANCH   1  15
ATOM     15  C   UNL     1       6.416  15.408  18.606  0.00  0.00    +0.000 C 
BRANCH  15  26
ATOM     16  O   UNL     1       7.283  17.980  18.940  0.00  0.00    +0.000 OA
ATOM     17  C   UNL     1       8.149  17.138  18.683  0.00  0.00    +0.000 C 
ATOM     18  C   UNL     1       9.595  17.575  18.592  0.00  0.00    +0.000 C 
ATOM     19  S   UNL     1      10.433  16.818  17.191  0.00  0.00    +0.000 S 
ATOM     20  C   UNL     1      10.035  15.135  17.595  0.00  0.00    +0.000 A 
ATOM     21  C   UNL     1      10.924  14.138  17.177  0.00  0.00    +0.000 A 
ATOM     22  C   UNL     1      10.645  12.797  17.432  0.00  0.00    +0.000 A 
ATOM     23  C   UNL     1       9.490  12.446  18.111  0.00  0.00    +0.000 A 
ATOM     24  C   UNL     1       8.600  13.436  18.528  0.00  0.00    +0.000 A 
ATOM     25  C   UNL     1       8.831  14.785  18.239  0.00  0.00    +0.000 A 
ATOM     26  N   UNL     1       7.839  15.781  18.535  0.00  0.00    +0.000 N 
ENDBRANCH  15  26
ENDBRANCH   1  15
BRANCH   3  27
ATOM     27  C   UNL     1       6.064  14.624  23.410  0.00  0.00    +0.000 C 
BRANCH  27  28
ATOM     28  N   UNL     1       5.550  13.396  24.036  0.00  0.00    +0.000 NA
ATOM     29  C   UNL     1       5.934  13.360  25.471  0.00  0.00    +0.000 C 
ATOM     30  C   UNL     1       7.438  13.107  25.706  0.00  0.00    +0.000 C 
ATOM     31  O   UNL     1       7.891  11.920  25.041  0.00  0.00    +0.000 OA
ATOM     32  C   UNL     1       7.568  11.940  23.643  0.00  0.00    +0.000 C 
ATOM     33  C   UNL     1       6.064  12.155  23.423  0.00  0.00    +0.000 C 
ENDBRANCH  27  28
ENDBRANCH   3  27
TORSDOF 6
ENDMDL
MODEL 3
REMARK VINA RESULT:      -6.7      1.049      1.464
REMARK  Name = 
REMARK  6 active torsions:
REMARK  status: ('A' for Active; 'I' for Inactive)
REMARK    1  A    between atoms: N_11  and  C_12
REMARK    2  A    between atoms: C_12  and  C_13
REMARK    3  A    between atoms: N_15  and  C_16
REMARK    4  A    between atoms: C_16  and  N_17
REMARK    5  A    between atoms: N_25  and  N_26
REMARK    6  A    between atoms: C_27  and  C_28
REMARK                            x       y       z     vdW  Elec       q    Type
REMARK                         _______ _______ _______ _____ _____    ______ ____
ROOT
ATOM      1  C   UNL     1      -0.268  13.012  20.162  0.00  0.00    +0.000 A 
ATOM      2  N   UNL     1      -1.231  13.650  20.782  0.00  0.00    +0.000 NA
ATOM      3  N   UNL     1      -1.478  12.915  21.931  0.00  0.00    +0.000 N 
ATOM      4  C   UNL     1      -0.680  11.760  21.917  0.00  0.00    +0.000 A 
ATOM      5  S   UNL     1      -0.795  10.439  22.934  0.00  0.00    +0.000 S 
ATOM      6  N   UNL     1       0.184  11.926  20.832  0.00  0.00    +0.000 N 
ENDROOT
BRANCH   6   7
ATOM      7  N   UNL     1       1.008  10.915  20.450  0.00  0.00    +0.000 NA
ATOM      8  C   UNL     1       0.630  10.024  19.598  0.00  0.00    +0.000 C 
BRANCH   8   9
ATOM      9  C   UNL     1       1.540   8.924  19.269  0.00  0.00    +0.000 A 
ATOM     10  C   UNL     1       2.155   8.905  18.018  0.00  0.00    +0.000 A 
ATOM     11  C   UNL     1       2.861   7.767  17.633  0.00  0.00    +0.000 A 
ATOM     12  C   UNL     1       2.972   6.683  18.508  0.00  0.00    +0.000 A 
ATOM     13  C   UNL     1       2.405   6.741  19.781  0.00  0.00    +0.000 A 
ATOM     14  C   UNL     1       1.683   7.864  20.167  0.00  0.00    +0.000 A 
ENDBRANCH   8   9
ENDBRANCH   6   7
BRANCH   1  15
ATOM     15  C   UNL     1       0.142  13.440  18.750  0.00  0.00    +0.000 C 
BRANCH  15  26
ATOM     16  O   UNL     1       2.710  12.734  18.130  0.00  0.00    +0.000 OA
ATOM     17  C   UNL     1       2.490  13.941  18.264  0.00  0.00    +0.000 C 
ATOM     18  C   UNL     1       3.624  14.923  18.061  0.00  0.00    +0.000 C 
ATOM     19  S   UNL     1       3.625  16.209  19.318  0.00  0.00    +0.000 S 
ATOM     20  C   UNL     1       1.944  16.732  19.082  0.00  0.00    +0.000 A 
ATOM     21  C   UNL     1       1.629  18.063  19.377  0.00  0.00    +0.000 A 
ATOM     22  C   UNL     1       0.318  18.519  19.247  0.00  0.00    +0.000 A 
ATOM     23  C   UNL     1      -0.676  17.659  18.814  0.00  0.00    +0.000 A 
ATOM     24  C   UNL     1      -0.367  16.330  18.520  0.00  0.00    +0.000 A 
ATOM     25  C   UNL     1       0.930  15.834  18.692  0.00  0.00    +0.000 A 
ATOM     26  N   UNL     1       1.208  14.434  18.536  0.00  0.00    +0.000 N 
ENDBRANCH  15  26
ENDBRANCH   1  15
BRANCH   3  27
ATOM     27  C   UNL     1      -2.668  13.185  22.733  0.00  0.00    +0.000 C 
BRANCH  27  28
ATOM     28  N   UNL     1      -2.342  13.680  24.080  0.00  0.00    +0.000 NA
ATOM     29  C   UNL     1      -3.577  14.152  24.758  0.00  0.00    +0.000 C 
ATOM     30  C   UNL     1      -4.141  15.467  24.178  0.00  0.00    +0.000 C 
ATOM     31  O   UNL     1      -3.156  16.508  24.158  0.00  0.00    +0.000 OA
ATOM     32  C   UNL     1      -1.962  16.096  23.477  0.00  0.00    +0.000 C 
ATOM     33  C   UNL     1      -1.391  14.809  24.087  0.00  0.00    +0.000 C 
ENDBRANCH  27  28
ENDBRANCH   3  27
TORSDOF 6
ENDMDL
MODEL 4
REMARK VINA RESULT:      -6.7      2.103      5.991
REMARK  Name = 
REMARK  6 active torsions:
REMARK  status: ('A' for Active; 'I' for Inactive)
REMARK    1  A    between atoms: N_11  and  C_12
REMARK    2  A    between atoms: C_12  and  C_13
REMARK    3  A    between atoms: N_15  and  C_16
REMARK    4  A    between atoms: C_16  and  N_17
REMARK    5  A    between atoms: N_25  and  N_26
REMARK    6  A    between atoms: C_27  and  C_28
REMARK                            x       y       z     vdW  Elec       q    Type
REMARK                         _______ _______ _______ _____ _____    ______ ____
ROOT
ATOM      1  C   UNL     1      -0.822  12.551  19.941  0.00  0.00    +0.000 A 
ATOM      2  N   UNL     1      -1.051  13.816  19.683  0.00  0.00    +0.000 NA
ATOM      3  N   UNL     1       0.039  14.241  18.937  0.00  0.00    +0.000 N 
ATOM      4  C   UNL     1       0.968  13.192  18.845  0.00  0.00    +0.000 A 
ATOM      5  S   UNL     1       2.539  13.280  18.281  0.00  0.00    +0.000 S 
ATOM      6  N   UNL     1       0.319  12.079  19.386  0.00  0.00    +0.000 N 
ENDROOT
BRANCH   6   7
ATOM      7  N   UNL     1       0.995  10.916  19.575  0.00  0.00    +0.000 NA
ATOM      8  C   UNL     1       0.994   9.984  18.683  0.00  0.00    +0.000 C 
BRANCH   8   9
ATOM      9  C   UNL     1       1.692   8.728  18.968  0.00  0.00    +0.000 A 
ATOM     10  C   UNL     1       2.418   8.111  17.951  0.00  0.00    +0.000 A 
ATOM     11  C   UNL     1       2.915   6.826  18.163  0.00  0.00    +0.000 A 
ATOM     12  C   UNL     1       2.711   6.192  19.391  0.00  0.00    +0.000 A 
ATOM     13  C   UNL     1       2.038   6.846  20.423  0.00  0.00    +0.000 A 
ATOM     14  C   UNL     1       1.523   8.120  20.214  0.00  0.00    +0.000 A 
ENDBRANCH   8   9
ENDBRANCH   6   7
BRANCH   1  15
ATOM     15  C   UNL     1      -1.736  11.796  20.910  0.00  0.00    +0.000 C 
BRANCH  15  26
ATOM     16  O   UNL     1      -0.890  12.783  23.316  0.00  0.00    +0.000 OA
ATOM     17  C   UNL     1      -2.086  12.938  23.049  0.00  0.00    +0.000 C 
ATOM     18  C   UNL     1      -2.973  13.662  24.039  0.00  0.00    +0.000 C 
ATOM     19  S   UNL     1      -4.562  12.842  24.233  0.00  0.00    +0.000 S 
ATOM     20  C   UNL     1      -4.992  12.811  22.510  0.00  0.00    +0.000 A 
ATOM     21  C   UNL     1      -6.352  12.827  22.178  0.00  0.00    +0.000 A 
ATOM     22  C   UNL     1      -6.749  12.767  20.844  0.00  0.00    +0.000 A 
ATOM     23  C   UNL     1      -5.799  12.701  19.839  0.00  0.00    +0.000 A 
ATOM     24  C   UNL     1      -4.442  12.684  20.165  0.00  0.00    +0.000 A 
ATOM     25  C   UNL     1      -4.018  12.691  21.498  0.00  0.00    +0.000 A 
ATOM     26  N   UNL     1      -2.632  12.518  21.830  0.00  0.00    +0.000 N 
ENDBRANCH  15  26
ENDBRANCH   1  15
BRANCH   3  27
ATOM     27  C   UNL     1       0.252  15.664  18.694  0.00  0.00    +0.000 C 
BRANCH  27  28
ATOM     28  N   UNL     1       0.244  16.457  19.934  0.00  0.00    +0.000 NA
ATOM     29  C   UNL     1      -0.075  17.874  19.626  0.00  0.00    +0.000 C 
ATOM     30  C   UNL     1       1.061  18.625  18.899  0.00  0.00    +0.000 C 
ATOM     31  O   UNL     1       2.301  18.539  19.614  0.00  0.00    +0.000 OA
ATOM     32  C   UNL     1       2.657  17.178  19.895  0.00  0.00    +0.000 C 
ATOM     33  C   UNL     1       1.535  16.454  20.651  0.00  0.00    +0.000 C 
ENDBRANCH  27  28
ENDBRANCH   3  27
TORSDOF 6
ENDMDL
MODEL 5
REMARK VINA RESULT:      -6.6      3.241      5.890
REMARK  Name = 
REMARK  6 active torsions:
REMARK  status: ('A' for Active; 'I' for Inactive)
REMARK    1  A    between atoms: N_11  and  C_12
REMARK    2  A    between atoms: C_12  and  C_13
REMARK    3  A    between atoms: N_15  and  C_16
REMARK    4  A    between atoms: C_16  and  N_17
REMARK    5  A    between atoms: N_25  and  N_26
REMARK    6  A    between atoms: C_27  and  C_28
REMARK                            x       y       z     vdW  Elec       q    Type
REMARK                         _______ _______ _______ _____ _____    ______ ____
ROOT
ATOM      1  C   UNL     1      -0.305  13.478  21.764  0.00  0.00    +0.000 A 
ATOM      2  N   UNL     1      -0.146  14.330  22.747  0.00  0.00    +0.000 NA
ATOM      3  N   UNL     1      -1.235  15.185  22.670  0.00  0.00    +0.000 N 
ATOM      4  C   UNL     1      -1.997  14.857  21.537  0.00  0.00    +0.000 A 
ATOM      5  S   UNL     1      -3.246  15.743  20.868  0.00  0.00    +0.000 S 
ATOM      6  N   UNL     1      -1.444  13.667  21.057  0.00  0.00    +0.000 N 
ENDROOT
BRANCH   6   7
ATOM      7  N   UNL     1      -1.866  13.142  19.877  0.00  0.00    +0.000 NA
ATOM      8  C   UNL     1      -2.741  12.196  19.835  0.00  0.00    +0.000 C 
BRANCH   8   9
ATOM      9  C   UNL     1      -3.114  11.631  18.537  0.00  0.00    +0.000 A 
ATOM     10  C   UNL     1      -2.117  11.102  17.718  0.00  0.00    +0.000 A 
ATOM     11  C   UNL     1      -2.440  10.745  16.410  0.00  0.00    +0.000 A 
ATOM     12  C   UNL     1      -3.752  10.889  15.949  0.00  0.00    +0.000 A 
ATOM     13  C   UNL     1      -4.752  11.360  16.799  0.00  0.00    +0.000 A 
ATOM     14  C   UNL     1      -4.435  11.735  18.099  0.00  0.00    +0.000 A 
ENDBRANCH   8   9
ENDBRANCH   6   7
BRANCH   1  15
ATOM     15  C   UNL     1       0.814  12.489  21.427  0.00  0.00    +0.000 C 
BRANCH  15  26
ATOM     16  O   UNL     1      -0.515  10.959  23.263  0.00  0.00    +0.000 OA
ATOM     17  C   UNL     1      -0.125  10.379  22.245  0.00  0.00    +0.000 C 
ATOM     18  C   UNL     1      -0.420   8.904  22.081  0.00  0.00    +0.000 C 
ATOM     19  S   UNL     1       1.004   8.007  21.446  0.00  0.00    +0.000 S 
ATOM     20  C   UNL     1       1.271   9.025  20.016  0.00  0.00    +0.000 A 
ATOM     21  C   UNL     1       1.859   8.430  18.893  0.00  0.00    +0.000 A 
ATOM     22  C   UNL     1       2.126   9.190  17.756  0.00  0.00    +0.000 A 
ATOM     23  C   UNL     1       1.802  10.535  17.728  0.00  0.00    +0.000 A 
ATOM     24  C   UNL     1       1.216  11.133  18.844  0.00  0.00    +0.000 A 
ATOM     25  C   UNL     1       0.985  10.406  20.017  0.00  0.00    +0.000 A 
ATOM     26  N   UNL     1       0.527  11.060  21.210  0.00  0.00    +0.000 N 
ENDBRANCH  15  26
ENDBRANCH   1  15
BRANCH   3  27
ATOM     27  C   UNL     1      -1.253  16.420  23.448  0.00  0.00    +0.000 C 
BRANCH  27  28
ATOM     28  N   UNL     1      -1.536  16.188  24.873  0.00  0.00    +0.000 NA
ATOM     29  C   UNL     1      -2.860  15.534  25.027  0.00  0.00    +0.000 C 
ATOM     30  C   UNL     1      -4.054  16.464  24.721  0.00  0.00    +0.000 C 
ATOM     31  O   UNL     1      -4.003  17.669  25.495  0.00  0.00    +0.000 OA
ATOM     32  C   UNL     1      -2.748  18.347  25.340  0.00  0.00    +0.000 C 
ATOM     33  C   UNL     1      -1.572  17.422  25.683  0.00  0.00    +0.000 C 
ENDBRANCH  27  28
ENDBRANCH   3  27
TORSDOF 6
ENDMDL
MODEL 6
REMARK VINA RESULT:      -6.5      0.558      1.109
REMARK  Name = 
REMARK  6 active torsions:
REMARK  status: ('A' for Active; 'I' for Inactive)
REMARK    1  A    between atoms: N_11  and  C_12
REMARK    2  A    between atoms: C_12  and  C_13
REMARK    3  A    between atoms: N_15  and  C_16
REMARK    4  A    between atoms: C_16  and  N_17
REMARK    5  A    between atoms: N_25  and  N_26
REMARK    6  A    between atoms: C_27  and  C_28
REMARK                            x       y       z     vdW  Elec       q    Type
REMARK                         _______ _______ _______ _____ _____    ______ ____
ROOT
ATOM      1  C   UNL     1      -0.136  12.583  20.215  0.00  0.00    +0.000 A 
ATOM      2  N   UNL     1      -1.063  13.208  20.899  0.00  0.00    +0.000 NA
ATOM      3  N   UNL     1      -1.270  12.432  22.030  0.00  0.00    +0.000 N 
ATOM      4  C   UNL     1      -0.488  11.269  21.938  0.00  0.00    +0.000 A 
ATOM      5  S   UNL     1      -0.576   9.912  22.909  0.00  0.00    +0.000 S 
ATOM      6  N   UNL     1       0.331  11.467  20.823  0.00  0.00    +0.000 N 
ENDROOT
BRANCH   6   7
ATOM      7  N   UNL     1       1.125  10.462  20.368  0.00  0.00    +0.000 NA
ATOM      8  C   UNL     1       0.713   9.631  19.473  0.00  0.00    +0.000 C 
BRANCH   8   9
ATOM      9  C   UNL     1       1.591   8.533  19.065  0.00  0.00    +0.000 A 
ATOM     10  C   UNL     1       1.810   7.477  19.947  0.00  0.00    +0.000 A 
ATOM     11  C   UNL     1       2.792   6.537  19.643  0.00  0.00    +0.000 A 
ATOM     12  C   UNL     1       3.517   6.644  18.452  0.00  0.00    +0.000 A 
ATOM     13  C   UNL     1       3.246   7.671  17.548  0.00  0.00    +0.000 A 
ATOM     14  C   UNL     1       2.280   8.623  17.853  0.00  0.00    +0.000 A 
ENDBRANCH   8   9
ENDBRANCH   6   7
BRANCH   1  15
ATOM     15  C   UNL     1       0.219  13.059  18.804  0.00  0.00    +0.000 C 
BRANCH  15  26
ATOM     16  O   UNL     1       2.781  12.373  18.138  0.00  0.00    +0.000 OA
ATOM     17  C   UNL     1       2.557  13.578  18.286  0.00  0.00    +0.000 C 
ATOM     18  C   UNL     1       3.683  14.568  18.075  0.00  0.00    +0.000 C 
ATOM     19  S   UNL     1       3.696  15.843  19.344  0.00  0.00    +0.000 S 
ATOM     20  C   UNL     1       2.009  16.358  19.139  0.00  0.00    +0.000 A 
ATOM     21  C   UNL     1       1.691  17.685  19.451  0.00  0.00    +0.000 A 
ATOM     22  C   UNL     1       0.376  18.135  19.345  0.00  0.00    +0.000 A 
ATOM     23  C   UNL     1      -0.620  17.273  18.920  0.00  0.00    +0.000 A 
ATOM     24  C   UNL     1      -0.309  15.949  18.609  0.00  0.00    +0.000 A 
ATOM     25  C   UNL     1       0.993  15.458  18.756  0.00  0.00    +0.000 A 
ATOM     26  N   UNL     1       1.276  14.061  18.583  0.00  0.00    +0.000 N 
ENDBRANCH  15  26
ENDBRANCH   1  15
BRANCH   3  27
ATOM     27  C   UNL     1      -2.420  12.684  22.892  0.00  0.00    +0.000 C 
BRANCH  27  28
ATOM     28  N   UNL     1      -3.205  13.853  22.463  0.00  0.00    +0.000 NA
ATOM     29  C   UNL     1      -4.060  14.327  23.581  0.00  0.00    +0.000 C 
ATOM     30  C   UNL     1      -5.239  13.385  23.905  0.00  0.00    +0.000 C 
ATOM     31  O   UNL     1      -6.040  13.114  22.747  0.00  0.00    +0.000 OA
ATOM     32  C   UNL     1      -5.248  12.619  21.658  0.00  0.00    +0.000 C 
ATOM     33  C   UNL     1      -4.102  13.582  21.322  0.00  0.00    +0.000 C 
ENDBRANCH  27  28
ENDBRANCH   3  27
TORSDOF 6
ENDMDL
MODEL 7
REMARK VINA RESULT:      -6.4      2.954      6.143
REMARK  Name = 
REMARK  6 active torsions:
REMARK  status: ('A' for Active; 'I' for Inactive)
REMARK    1  A    between atoms: N_11  and  C_12
REMARK    2  A    between atoms: C_12  and  C_13
REMARK    3  A    between atoms: N_15  and  C_16
REMARK    4  A    between atoms: C_16  and  N_17
REMARK    5  A    between atoms: N_25  and  N_26
REMARK    6  A    between atoms: C_27  and  C_28
REMARK                            x       y       z     vdW  Elec       q    Type
REMARK                         _______ _______ _______ _____ _____    ______ ____
ROOT
ATOM      1  C   UNL     1      -0.953  13.020  20.524  0.00  0.00    +0.000 A 
ATOM      2  N   UNL     1      -1.043  14.298  20.799  0.00  0.00    +0.000 NA
ATOM      3  N   UNL     1       0.264  14.762  20.818  0.00  0.00    +0.000 N 
ATOM      4  C   UNL     1       1.138  13.678  20.635  0.00  0.00    +0.000 A 
ATOM      5  S   UNL     1       2.797  13.673  20.836  0.00  0.00    +0.000 S 
ATOM      6  N   UNL     1       0.315  12.596  20.313  0.00  0.00    +0.000 N 
ENDROOT
BRANCH   6   7
ATOM      7  N   UNL     1       0.838  11.346  20.203  0.00  0.00    +0.000 NA
ATOM      8  C   UNL     1       0.850  10.717  19.078  0.00  0.00    +0.000 C 
BRANCH   8   9
ATOM      9  C   UNL     1       1.373   9.350  19.035  0.00  0.00    +0.000 A 
ATOM     10  C   UNL     1       1.340   8.575  20.193  0.00  0.00    +0.000 A 
ATOM     11  C   UNL     1       2.011   7.354  20.206  0.00  0.00    +0.000 A 
ATOM     12  C   UNL     1       2.674   6.909  19.059  0.00  0.00    +0.000 A 
ATOM     13  C   UNL     1       2.647   7.665  17.887  0.00  0.00    +0.000 A 
ATOM     14  C   UNL     1       1.995   8.892  17.872  0.00  0.00    +0.000 A 
ENDBRANCH   8   9
ENDBRANCH   6   7
BRANCH   1  15
ATOM     15  C   UNL     1      -2.200  12.135  20.604  0.00  0.00    +0.000 C 
BRANCH  15  26
ATOM     16  O   UNL     1      -4.364  13.540  21.510  0.00  0.00    +0.000 OA
ATOM     17  C   UNL     1      -4.438  13.101  20.358  0.00  0.00    +0.000 C 
ATOM     18  C   UNL     1      -5.682  13.381  19.542  0.00  0.00    +0.000 C 
ATOM     19  S   UNL     1      -6.227  11.925  18.637  0.00  0.00    +0.000 S 
ATOM     20  C   UNL     1      -4.683  11.598  17.822  0.00  0.00    +0.000 A 
ATOM     21  C   UNL     1      -4.727  10.956  16.578  0.00  0.00    +0.000 A 
ATOM     22  C   UNL     1      -3.546  10.640  15.910  0.00  0.00    +0.000 A 
ATOM     23  C   UNL     1      -2.323  10.969  16.469  0.00  0.00    +0.000 A 
ATOM     24  C   UNL     1      -2.274  11.608  17.709  0.00  0.00    +0.000 A 
ATOM     25  C   UNL     1      -3.443  11.890  18.424  0.00  0.00    +0.000 A 
ATOM     26  N   UNL     1      -3.379  12.406  19.763  0.00  0.00    +0.000 N 
ENDBRANCH  15  26
ENDBRANCH   1  15
BRANCH   3  27
ATOM     27  C   UNL     1       0.563  16.088  21.349  0.00  0.00    +0.000 C 
BRANCH  27  28
ATOM     28  N   UNL     1       0.327  17.158  20.367  0.00  0.00    +0.000 NA
ATOM     29  C   UNL     1       1.045  16.854  19.103  0.00  0.00    +0.000 C 
ATOM     30  C   UNL     1       2.578  16.996  19.208  0.00  0.00    +0.000 C 
ATOM     31  O   UNL     1       2.963  18.287  19.699  0.00  0.00    +0.000 OA
ATOM     32  C   UNL     1       2.314  18.597  20.940  0.00  0.00    +0.000 C 
ATOM     33  C   UNL     1       0.788  18.489  20.812  0.00  0.00    +0.000 C 
ENDBRANCH  27  28
ENDBRANCH   3  27
TORSDOF 6
ENDMDL
MODEL 8
REMARK VINA RESULT:      -6.4      2.890      3.552
REMARK  Name = 
REMARK  6 active torsions:
REMARK  status: ('A' for Active; 'I' for Inactive)
REMARK    1  A    between atoms: N_11  and  C_12
REMARK    2  A    between atoms: C_12  and  C_13
REMARK    3  A    between atoms: N_15  and  C_16
REMARK    4  A    between atoms: C_16  and  N_17
REMARK    5  A    between atoms: N_25  and  N_26
REMARK    6  A    between atoms: C_27  and  C_28
REMARK                            x       y       z     vdW  Elec       q    Type
REMARK                         _______ _______ _______ _____ _____    ______ ____
ROOT
ATOM      1  C   UNL     1      -1.449  12.229  19.746  0.00  0.00    +0.000 A 
ATOM      2  N   UNL     1      -2.624  12.810  19.733  0.00  0.00    +0.000 NA
ATOM      3  N   UNL     1      -3.456  11.940  19.045  0.00  0.00    +0.000 N 
ATOM      4  C   UNL     1      -2.696  10.859  18.569  0.00  0.00    +0.000 A 
ATOM      5  S   UNL     1      -3.175   9.690  17.474  0.00  0.00    +0.000 S 
ATOM      6  N   UNL     1      -1.437  11.010  19.157  0.00  0.00    +0.000 N 
ENDROOT
BRANCH   6   7
ATOM      7  N   UNL     1      -0.410  10.197  18.796  0.00  0.00    +0.000 NA
ATOM      8  C   UNL     1       0.297   9.574  19.676  0.00  0.00    +0.000 C 
BRANCH   8   9
ATOM      9  C   UNL     1       1.429   8.759  19.230  0.00  0.00    +0.000 A 
ATOM     10  C   UNL     1       2.010   9.027  17.992  0.00  0.00    +0.000 A 
ATOM     11  C   UNL     1       2.951   8.134  17.482  0.00  0.00    +0.000 A 
ATOM     12  C   UNL     1       3.322   7.009  18.226  0.00  0.00    +0.000 A 
ATOM     13  C   UNL     1       2.778   6.787  19.491  0.00  0.00    +0.000 A 
ATOM     14  C   UNL     1       1.826   7.662  19.998  0.00  0.00    +0.000 A 
ENDBRANCH   8   9
ENDBRANCH   6   7
BRANCH   1  15
ATOM     15  C   UNL     1      -0.229  12.993  20.268  0.00  0.00    +0.000 C 
BRANCH  15  26
ATOM     16  O   UNL     1      -0.235  13.125  22.999  0.00  0.00    +0.000 OA
ATOM     17  C   UNL     1      -0.409  14.189  22.398  0.00  0.00    +0.000 C 
ATOM     18  C   UNL     1      -0.590  15.463  23.195  0.00  0.00    +0.000 C 
ATOM     19  S   UNL     1      -1.909  16.487  22.525  0.00  0.00    +0.000 S 
ATOM     20  C   UNL     1      -1.292  16.558  20.861  0.00  0.00    +0.000 A 
ATOM     21  C   UNL     1      -1.607  17.689  20.098  0.00  0.00    +0.000 A 
ATOM     22  C   UNL     1      -1.183  17.782  18.774  0.00  0.00    +0.000 A 
ATOM     23  C   UNL     1      -0.437  16.761  18.211  0.00  0.00    +0.000 A 
ATOM     24  C   UNL     1      -0.121  15.631  18.967  0.00  0.00    +0.000 A 
ATOM     25  C   UNL     1      -0.579  15.489  20.281  0.00  0.00    +0.000 A 
ATOM     26  N   UNL     1      -0.382  14.262  21.000  0.00  0.00    +0.000 N 
ENDBRANCH  15  26
ENDBRANCH   1  15
BRANCH   3  27
ATOM     27  C   UNL     1      -4.778  12.379  18.609  0.00  0.00    +0.000 C 
BRANCH  27  28
ATOM     28  N   UNL     1      -5.866  11.637  19.264  0.00  0.00    +0.000 NA
ATOM     29  C   UNL     1      -7.130  11.818  18.506  0.00  0.00    +0.000 C 
ATOM     30  C   UNL     1      -7.733  13.233  18.629  0.00  0.00    +0.000 C 
ATOM     31  O   UNL     1      -7.915  13.619  19.998  0.00  0.00    +0.000 OA
ATOM     32  C   UNL     1      -6.701  13.491  20.751  0.00  0.00    +0.000 C 
ATOM     33  C   UNL     1      -6.132  12.069  20.651  0.00  0.00    +0.000 C 
ENDBRANCH  27  28
ENDBRANCH   3  27
TORSDOF 6
ENDMDL
MODEL 9
REMARK VINA RESULT:      -6.4      2.594      6.417
REMARK  Name = 
REMARK  6 active torsions:
REMARK  status: ('A' for Active; 'I' for Inactive)
REMARK    1  A    between atoms: N_11  and  C_12
REMARK    2  A    between atoms: C_12  and  C_13
REMARK    3  A    between atoms: N_15  and  C_16
REMARK    4  A    between atoms: C_16  and  N_17
REMARK    5  A    between atoms: N_25  and  N_26
REMARK    6  A    between atoms: C_27  and  C_28
REMARK                            x       y       z     vdW  Elec       q    Type
REMARK                         _______ _______ _______ _____ _____    ______ ____
ROOT
ATOM      1  C   UNL     1      -1.226  12.893  19.795  0.00  0.00    +0.000 A 
ATOM      2  N   UNL     1      -1.182  14.200  19.873  0.00  0.00    +0.000 NA
ATOM      3  N   UNL     1      -0.038  14.571  19.181  0.00  0.00    +0.000 N 
ATOM      4  C   UNL     1       0.644  13.414  18.770  0.00  0.00    +0.000 A 
ATOM      5  S   UNL     1       2.188  13.322  18.137  0.00  0.00    +0.000 S 
ATOM      6  N   UNL     1      -0.221  12.356  19.063  0.00  0.00    +0.000 N 
ENDROOT
BRANCH   6   7
ATOM      7  N   UNL     1       0.192  11.071  18.913  0.00  0.00    +0.000 NA
ATOM      8  C   UNL     1       0.803  10.444  19.860  0.00  0.00    +0.000 C 
BRANCH   8   9
ATOM      9  C   UNL     1       1.277   9.080  19.618  0.00  0.00    +0.000 A 
ATOM     10  C   UNL     1       1.272   8.165  20.670  0.00  0.00    +0.000 A 
ATOM     11  C   UNL     1       1.901   6.934  20.495  0.00  0.00    +0.000 A 
ATOM     12  C   UNL     1       2.495   6.621  19.268  0.00  0.00    +0.000 A 
ATOM     13  C   UNL     1       2.438   7.520  18.204  0.00  0.00    +0.000 A 
ATOM     14  C   UNL     1       1.829   8.758  18.376  0.00  0.00    +0.000 A 
ENDBRANCH   8   9
ENDBRANCH   6   7
BRANCH   1  15
ATOM     15  C   UNL     1      -2.265  12.117  20.610  0.00  0.00    +0.000 C 
BRANCH  15  26
ATOM     16  O   UNL     1      -2.964  13.761  22.681  0.00  0.00    +0.000 OA
ATOM     17  C   UNL     1      -3.871  13.434  21.909  0.00  0.00    +0.000 C 
ATOM     18  C   UNL     1      -5.267  13.968  22.148  0.00  0.00    +0.000 C 
ATOM     19  S   UNL     1      -6.515  12.692  21.924  0.00  0.00    +0.000 S 
ATOM     20  C   UNL     1      -6.018  12.198  20.292  0.00  0.00    +0.000 A 
ATOM     21  C   UNL     1      -7.001  11.674  19.444  0.00  0.00    +0.000 A 
ATOM     22  C   UNL     1      -6.661  11.234  18.166  0.00  0.00    +0.000 A 
ATOM     23  C   UNL     1      -5.352  11.324  17.726  0.00  0.00    +0.000 A 
ATOM     24  C   UNL     1      -4.369  11.845  18.568  0.00  0.00    +0.000 A 
ATOM     25  C   UNL     1      -4.673  12.245  19.874  0.00  0.00    +0.000 A 
ATOM     26  N   UNL     1      -3.633  12.634  20.785  0.00  0.00    +0.000 N 
ENDBRANCH  15  26
ENDBRANCH   1  15
BRANCH   3  27
ATOM     27  C   UNL     1       0.471  15.935  19.283  0.00  0.00    +0.000 C 
BRANCH  27  28
ATOM     28  N   UNL     1       1.006  16.242  20.619  0.00  0.00    +0.000 NA
ATOM     29  C   UNL     1       0.810  17.682  20.924  0.00  0.00    +0.000 C 
ATOM     30  C   UNL     1       1.723  18.621  20.108  0.00  0.00    +0.000 C 
ATOM     31  O   UNL     1       3.106  18.270  20.240  0.00  0.00    +0.000 OA
ATOM     32  C   UNL     1       3.336  16.891  19.915  0.00  0.00    +0.000 C 
ATOM     33  C   UNL     1       2.450  15.966  20.760  0.00  0.00    +0.000 C 
ENDBRANCH  27  28
ENDBRANCH   3  27
TORSDOF 6
ENDMDL
