MODEL 1
REMARK VINA RESULT:      -7.9      0.000      0.000
REMARK  Name = 
REMARK  10 active torsions:
REMARK  status: ('A' for Active; 'I' for Inactive)
REMARK    1  A    between atoms: C_1  and  C_2
REMARK    2  A    between atoms: C_2  and  O_3
REMARK    3  A    between atoms: O_3  and  C_4
REMARK    4  A    between atoms: C_4  and  C_6
REMARK    5  A    between atoms: C_8  and  O_9
REMARK    6  A    between atoms: C_10  and  O_11
REMARK    7  A    between atoms: O_11  and  C_12
REMARK    8  A    between atoms: C_12  and  C_13
REMARK    9  A    between atoms: C_20  and  C_21
REMARK   10  A    between atoms: C_25  and  O_26
REMARK                            x       y       z     vdW  Elec       q    Type
REMARK                         _______ _______ _______ _____ _____    ______ ____
ROOT
ATOM      1  C   UNL     1       8.163   8.179  18.179  0.00  0.00    +0.000 A 
ATOM      2  C   UNL     1       8.351   7.320  19.270  0.00  0.00    +0.000 A 
ATOM      3  C   UNL     1       7.876   6.006  19.201  0.00  0.00    +0.000 A 
ATOM      4  C   UNL     1       7.232   5.527  18.047  0.00  0.00    +0.000 A 
ATOM      5  C   UNL     1       7.144   6.376  16.941  0.00  0.00    +0.000 A 
ATOM      6  C   UNL     1       7.555   7.698  17.016  0.00  0.00    +0.000 A 
ENDROOT
BRANCH   1   7
ATOM      7  C   UNL     1       8.543   9.609  18.298  0.00  0.00    +0.000 C 
ATOM      8  O   UNL     1       8.218  10.473  17.502  0.00  0.00    +0.000 OA
BRANCH   7   9
ATOM      9  O   UNL     1       9.403   9.742  19.336  0.00  0.00    +0.000 OA
BRANCH   9  11
ATOM     10  C   UNL     1      10.957  11.546  19.511  0.00  0.00    +0.000 C 
ATOM     11  C   UNL     1       9.561  11.062  19.865  0.00  0.00    +0.000 C 
ENDBRANCH   9  11
ENDBRANCH   7   9
ENDBRANCH   1   7
BRANCH   3  12
ATOM     12  O   UNL     1       8.018   5.182  20.288  0.00  0.00    +0.000 OA
ATOM     13  H   UNL     1       8.872   4.715  20.235  0.00  0.00    +0.000 HD
ENDBRANCH   3  12
BRANCH   5  14
ATOM     14  O   UNL     1       6.688   5.982  15.713  0.00  0.00    +0.000 OA
ATOM     15  H   UNL     1       7.472   5.763  15.182  0.00  0.00    +0.000 HD
ENDBRANCH   5  14
BRANCH   4  16
ATOM     16  O   UNL     1       6.733   4.248  18.082  0.00  0.00    +0.000 OA
BRANCH  16  17
ATOM     17  C   UNL     1       5.408   4.079  17.561  0.00  0.00    +0.000 C 
BRANCH  17  18
ATOM     18  C   UNL     1       4.333   4.236  18.598  0.00  0.00    +0.000 A 
ATOM     19  C   UNL     1       4.076   3.310  19.532  0.00  0.00    +0.000 A 
ATOM     20  C   UNL     1       3.108   3.511  20.618  0.00  0.00    +0.000 A 
ATOM     21  O   UNL     1       2.904   2.631  21.450  0.00  0.00    +0.000 OA
ATOM     22  O   UNL     1       2.458   4.732  20.664  0.00  0.00    +0.000 OA
ATOM     23  C   UNL     1       2.699   5.721  19.691  0.00  0.00    +0.000 A 
ATOM     24  C   UNL     1       1.990   6.916  19.843  0.00  0.00    +0.000 A 
ATOM     25  C   UNL     1       2.162   7.946  18.916  0.00  0.00    +0.000 A 
ATOM     26  C   UNL     1       1.412   9.237  19.064  0.00  0.00    +0.000 C 
ATOM     27  C   UNL     1       3.041   7.753  17.847  0.00  0.00    +0.000 A 
ATOM     28  C   UNL     1       3.751   6.551  17.711  0.00  0.00    +0.000 A 
ATOM     29  C   UNL     1       3.591   5.512  18.645  0.00  0.00    +0.000 A 
ENDBRANCH  17  18
ENDBRANCH  16  17
ENDBRANCH   4  16
TORSDOF 8
ENDMDL
MODEL 2
REMARK VINA RESULT:      -7.5      1.583      2.244
REMARK  Name = 
REMARK  10 active torsions:
REMARK  status: ('A' for Active; 'I' for Inactive)
REMARK    1  A    between atoms: C_1  and  C_2
REMARK    2  A    between atoms: C_2  and  O_3
REMARK    3  A    between atoms: O_3  and  C_4
REMARK    4  A    between atoms: C_4  and  C_6
REMARK    5  A    between atoms: C_8  and  O_9
REMARK    6  A    between atoms: C_10  and  O_11
REMARK    7  A    between atoms: O_11  and  C_12
REMARK    8  A    between atoms: C_12  and  C_13
REMARK    9  A    between atoms: C_20  and  C_21
REMARK   10  A    between atoms: C_25  and  O_26
REMARK                            x       y       z     vdW  Elec       q    Type
REMARK                         _______ _______ _______ _____ _____    ______ ____
ROOT
ATOM      1  C   UNL     1       7.100   6.128  17.820  0.00  0.00    +0.000 A 
ATOM      2  C   UNL     1       6.777   5.180  18.799  0.00  0.00    +0.000 A 
ATOM      3  C   UNL     1       5.832   4.190  18.513  0.00  0.00    +0.000 A 
ATOM      4  C   UNL     1       5.215   4.118  17.252  0.00  0.00    +0.000 A 
ATOM      5  C   UNL     1       5.626   5.018  16.265  0.00  0.00    +0.000 A 
ATOM      6  C   UNL     1       6.516   6.042  16.553  0.00  0.00    +0.000 A 
ENDROOT
BRANCH   1   7
ATOM      7  C   UNL     1       7.999   7.259  18.162  0.00  0.00    +0.000 C 
ATOM      8  O   UNL     1       8.668   7.319  19.180  0.00  0.00    +0.000 OA
BRANCH   7   9
ATOM      9  O   UNL     1       7.834   8.236  17.240  0.00  0.00    +0.000 OA
BRANCH   9  11
ATOM     10  C   UNL     1       8.948  10.206  18.000  0.00  0.00    +0.000 C 
ATOM     11  C   UNL     1       7.600   9.553  17.745  0.00  0.00    +0.000 C 
ENDBRANCH   9  11
ENDBRANCH   7   9
ENDBRANCH   1   7
BRANCH   3  12
ATOM     12  O   UNL     1       5.482   3.292  19.488  0.00  0.00    +0.000 OA
ATOM     13  H   UNL     1       5.104   2.492  19.077  0.00  0.00    +0.000 HD
ENDBRANCH   3  12
BRANCH   5  14
ATOM     14  O   UNL     1       5.224   4.953  14.959  0.00  0.00    +0.000 OA
ATOM     15  H   UNL     1       5.690   4.198  14.561  0.00  0.00    +0.000 HD
ENDBRANCH   5  14
BRANCH   4  16
ATOM     16  O   UNL     1       4.247   3.160  17.070  0.00  0.00    +0.000 OA
BRANCH  16  17
ATOM     17  C   UNL     1       2.893   3.632  17.076  0.00  0.00    +0.000 C 
BRANCH  17  18
ATOM     18  C   UNL     1       2.352   3.883  18.455  0.00  0.00    +0.000 A 
ATOM     19  C   UNL     1       2.129   2.904  19.342  0.00  0.00    +0.000 A 
ATOM     20  C   UNL     1       1.714   3.157  20.729  0.00  0.00    +0.000 A 
ATOM     21  O   UNL     1       1.519   2.226  21.506  0.00  0.00    +0.000 OA
ATOM     22  O   UNL     1       1.572   4.479  21.113  0.00  0.00    +0.000 OA
ATOM     23  C   UNL     1       1.789   5.528  20.199  0.00  0.00    +0.000 A 
ATOM     24  C   UNL     1       1.623   6.821  20.702  0.00  0.00    +0.000 A 
ATOM     25  C   UNL     1       1.808   7.921  19.861  0.00  0.00    +0.000 A 
ATOM     26  C   UNL     1       1.637   9.317  20.382  0.00  0.00    +0.000 C 
ATOM     27  C   UNL     1       2.154   7.698  18.525  0.00  0.00    +0.000 A 
ATOM     28  C   UNL     1       2.325   6.395  18.036  0.00  0.00    +0.000 A 
ATOM     29  C   UNL     1       2.149   5.283  18.879  0.00  0.00    +0.000 A 
ENDBRANCH  17  18
ENDBRANCH  16  17
ENDBRANCH   4  16
TORSDOF 8
ENDMDL
MODEL 3
REMARK VINA RESULT:      -7.4      2.600      6.899
REMARK  Name = 
REMARK  10 active torsions:
REMARK  status: ('A' for Active; 'I' for Inactive)
REMARK    1  A    between atoms: C_1  and  C_2
REMARK    2  A    between atoms: C_2  and  O_3
REMARK    3  A    between atoms: O_3  and  C_4
REMARK    4  A    between atoms: C_4  and  C_6
REMARK    5  A    between atoms: C_8  and  O_9
REMARK    6  A    between atoms: C_10  and  O_11
REMARK    7  A    between atoms: O_11  and  C_12
REMARK    8  A    between atoms: C_12  and  C_13
REMARK    9  A    between atoms: C_20  and  C_21
REMARK   10  A    between atoms: C_25  and  O_26
REMARK                            x       y       z     vdW  Elec       q    Type
REMARK                         _______ _______ _______ _____ _____    ______ ____
ROOT
ATOM      1  C   UNL     1       1.470   7.928  20.607  0.00  0.00    +0.000 A 
ATOM      2  C   UNL     1       2.023   8.144  19.338  0.00  0.00    +0.000 A 
ATOM      3  C   UNL     1       2.574   7.068  18.635  0.00  0.00    +0.000 A 
ATOM      4  C   UNL     1       2.565   5.769  19.173  0.00  0.00    +0.000 A 
ATOM      5  C   UNL     1       1.922   5.567  20.398  0.00  0.00    +0.000 A 
ATOM      6  C   UNL     1       1.426   6.634  21.132  0.00  0.00    +0.000 A 
ENDROOT
BRANCH   1   7
ATOM      7  C   UNL     1       1.008   9.087  21.412  0.00  0.00    +0.000 C 
ATOM      8  O   UNL     1       1.580   9.504  22.404  0.00  0.00    +0.000 OA
BRANCH   7   9
ATOM      9  O   UNL     1      -0.197   9.487  20.940  0.00  0.00    +0.000 OA
BRANCH   9  11
ATOM     10  C   UNL     1      -1.271  10.524  19.077  0.00  0.00    +0.000 C 
ATOM     11  C   UNL     1      -0.206  10.679  20.150  0.00  0.00    +0.000 C 
ENDBRANCH   9  11
ENDBRANCH   7   9
ENDBRANCH   1   7
BRANCH   3  12
ATOM     12  O   UNL     1       3.157   7.290  17.414  0.00  0.00    +0.000 OA
ATOM     13  H   UNL     1       2.601   7.896  16.891  0.00  0.00    +0.000 HD
ENDBRANCH   3  12
BRANCH   5  14
ATOM     14  O   UNL     1       1.704   4.335  20.950  0.00  0.00    +0.000 OA
ATOM     15  H   UNL     1       2.563   3.879  20.961  0.00  0.00    +0.000 HD
ENDBRANCH   5  14
BRANCH   4  16
ATOM     16  O   UNL     1       3.186   4.778  18.453  0.00  0.00    +0.000 OA
BRANCH  16  17
ATOM     17  C   UNL     1       4.529   4.466  18.850  0.00  0.00    +0.000 C 
BRANCH  17  18
ATOM     18  C   UNL     1       5.572   5.198  18.055  0.00  0.00    +0.000 A 
ATOM     19  C   UNL     1       6.390   6.115  18.591  0.00  0.00    +0.000 A 
ATOM     20  C   UNL     1       7.488   6.745  17.845  0.00  0.00    +0.000 A 
ATOM     21  O   UNL     1       8.210   7.583  18.378  0.00  0.00    +0.000 OA
ATOM     22  O   UNL     1       7.673   6.340  16.535  0.00  0.00    +0.000 OA
ATOM     23  C   UNL     1       6.824   5.386  15.942  0.00  0.00    +0.000 A 
ATOM     24  C   UNL     1       7.112   5.049  14.617  0.00  0.00    +0.000 A 
ATOM     25  C   UNL     1       6.313   4.119  13.949  0.00  0.00    +0.000 A 
ATOM     26  C   UNL     1       6.607   3.743  12.526  0.00  0.00    +0.000 C 
ATOM     27  C   UNL     1       5.232   3.548  14.626  0.00  0.00    +0.000 A 
ATOM     28  C   UNL     1       4.959   3.889  15.959  0.00  0.00    +0.000 A 
ATOM     29  C   UNL     1       5.765   4.818  16.642  0.00  0.00    +0.000 A 
ENDBRANCH  17  18
ENDBRANCH  16  17
ENDBRANCH   4  16
TORSDOF 8
ENDMDL
MODEL 4
REMARK VINA RESULT:      -7.4      3.880      7.655
REMARK  Name = 
REMARK  10 active torsions:
REMARK  status: ('A' for Active; 'I' for Inactive)
REMARK    1  A    between atoms: C_1  and  C_2
REMARK    2  A    between atoms: C_2  and  O_3
REMARK    3  A    between atoms: O_3  and  C_4
REMARK    4  A    between atoms: C_4  and  C_6
REMARK    5  A    between atoms: C_8  and  O_9
REMARK    6  A    between atoms: C_10  and  O_11
REMARK    7  A    between atoms: O_11  and  C_12
REMARK    8  A    between atoms: C_12  and  C_13
REMARK    9  A    between atoms: C_20  and  C_21
REMARK   10  A    between atoms: C_25  and  O_26
REMARK                            x       y       z     vdW  Elec       q    Type
REMARK                         _______ _______ _______ _____ _____    ______ ____
ROOT
ATOM      1  C   UNL     1       3.392   4.799  19.050  0.00  0.00    +0.000 A 
ATOM      2  C   UNL     1       3.920   5.467  17.937  0.00  0.00    +0.000 A 
ATOM      3  C   UNL     1       3.622   6.820  17.741  0.00  0.00    +0.000 A 
ATOM      4  C   UNL     1       2.817   7.525  18.654  0.00  0.00    +0.000 A 
ATOM      5  C   UNL     1       2.384   6.858  19.803  0.00  0.00    +0.000 A 
ATOM      6  C   UNL     1       2.621   5.503  19.979  0.00  0.00    +0.000 A 
ENDROOT
BRANCH   1   7
ATOM      7  C   UNL     1       3.593   3.334  19.189  0.00  0.00    +0.000 C 
ATOM      8  O   UNL     1       4.332   2.820  20.011  0.00  0.00    +0.000 OA
BRANCH   7   9
ATOM      9  O   UNL     1       2.940   2.711  18.179  0.00  0.00    +0.000 OA
BRANCH   9  11
ATOM     10  C   UNL     1       0.673   2.493  18.893  0.00  0.00    +0.000 C 
ATOM     11  C   UNL     1       1.955   1.748  18.560  0.00  0.00    +0.000 C 
ENDBRANCH   9  11
ENDBRANCH   7   9
ENDBRANCH   1   7
BRANCH   3  12
ATOM     12  O   UNL     1       4.100   7.459  16.627  0.00  0.00    +0.000 OA
ATOM     13  H   UNL     1       4.350   8.374  16.856  0.00  0.00    +0.000 HD
ENDBRANCH   3  12
BRANCH   5  14
ATOM     14  O   UNL     1       1.735   7.470  20.840  0.00  0.00    +0.000 OA
ATOM     15  H   UNL     1       2.274   7.319  21.634  0.00  0.00    +0.000 HD
ENDBRANCH   5  14
BRANCH   4  16
ATOM     16  O   UNL     1       2.514   8.831  18.356  0.00  0.00    +0.000 OA
BRANCH  16  17
ATOM     17  C   UNL     1       1.190   9.066  17.856  0.00  0.00    +0.000 C 
BRANCH  17  18
ATOM     18  C   UNL     1       0.383   9.997  18.716  0.00  0.00    +0.000 A 
ATOM     19  C   UNL     1       0.873  10.591  19.812  0.00  0.00    +0.000 A 
ATOM     20  C   UNL     1       0.126  11.592  20.585  0.00  0.00    +0.000 A 
ATOM     21  O   UNL     1       0.616  12.108  21.585  0.00  0.00    +0.000 OA
ATOM     22  O   UNL     1      -1.135  11.930  20.126  0.00  0.00    +0.000 OA
ATOM     23  C   UNL     1      -1.681  11.315  18.982  0.00  0.00    +0.000 A 
ATOM     24  C   UNL     1      -2.959  11.741  18.609  0.00  0.00    +0.000 A 
ATOM     25  C   UNL     1      -3.579  11.175  17.494  0.00  0.00    +0.000 A 
ATOM     26  C   UNL     1      -4.949  11.621  17.075  0.00  0.00    +0.000 C 
ATOM     27  C   UNL     1      -2.904  10.184  16.775  0.00  0.00    +0.000 A 
ATOM     28  C   UNL     1      -1.619   9.772  17.157  0.00  0.00    +0.000 A 
ATOM     29  C   UNL     1      -0.983  10.343  18.274  0.00  0.00    +0.000 A 
ENDBRANCH  17  18
ENDBRANCH  16  17
ENDBRANCH   4  16
TORSDOF 8
ENDMDL
MODEL 5
REMARK VINA RESULT:      -7.4      2.577      6.700
REMARK  Name = 
REMARK  10 active torsions:
REMARK  status: ('A' for Active; 'I' for Inactive)
REMARK    1  A    between atoms: C_1  and  C_2
REMARK    2  A    between atoms: C_2  and  O_3
REMARK    3  A    between atoms: O_3  and  C_4
REMARK    4  A    between atoms: C_4  and  C_6
REMARK    5  A    between atoms: C_8  and  O_9
REMARK    6  A    between atoms: C_10  and  O_11
REMARK    7  A    between atoms: O_11  and  C_12
REMARK    8  A    between atoms: C_12  and  C_13
REMARK    9  A    between atoms: C_20  and  C_21
REMARK   10  A    between atoms: C_25  and  O_26
REMARK                            x       y       z     vdW  Elec       q    Type
REMARK                         _______ _______ _______ _____ _____    ______ ____
ROOT
ATOM      1  C   UNL     1       1.681   7.767  20.163  0.00  0.00    +0.000 A 
ATOM      2  C   UNL     1       1.691   6.508  20.778  0.00  0.00    +0.000 A 
ATOM      3  C   UNL     1       2.234   5.413  20.097  0.00  0.00    +0.000 A 
ATOM      4  C   UNL     1       2.788   5.560  18.813  0.00  0.00    +0.000 A 
ATOM      5  C   UNL     1       2.850   6.844  18.264  0.00  0.00    +0.000 A 
ATOM      6  C   UNL     1       2.261   7.925  18.901  0.00  0.00    +0.000 A 
ENDROOT
BRANCH   1   7
ATOM      7  C   UNL     1       0.986   8.900  20.824  0.00  0.00    +0.000 C 
ATOM      8  O   UNL     1       0.587   8.881  21.976  0.00  0.00    +0.000 OA
BRANCH   7   9
ATOM      9  O   UNL     1       0.761   9.865  19.902  0.00  0.00    +0.000 OA
BRANCH   9  11
ATOM     10  C   UNL     1      -1.299  10.293  18.774  0.00  0.00    +0.000 C 
ATOM     11  C   UNL     1      -0.474  10.578  20.017  0.00  0.00    +0.000 C 
ENDBRANCH   9  11
ENDBRANCH   7   9
ENDBRANCH   1   7
BRANCH   3  12
ATOM     12  O   UNL     1       2.200   4.174  20.681  0.00  0.00    +0.000 OA
ATOM     13  H   UNL     1       2.628   4.212  21.556  0.00  0.00    +0.000 HD
ENDBRANCH   3  12
BRANCH   5  14
ATOM     14  O   UNL     1       3.503   7.144  17.101  0.00  0.00    +0.000 OA
ATOM     15  H   UNL     1       4.193   6.468  16.986  0.00  0.00    +0.000 HD
ENDBRANCH   5  14
BRANCH   4  16
ATOM     16  O   UNL     1       3.238   4.426  18.182  0.00  0.00    +0.000 OA
BRANCH  16  17
ATOM     17  C   UNL     1       4.583   4.034  18.488  0.00  0.00    +0.000 C 
BRANCH  17  18
ATOM     18  C   UNL     1       5.623   4.880  17.810  0.00  0.00    +0.000 A 
ATOM     19  C   UNL     1       6.382   5.770  18.464  0.00  0.00    +0.000 A 
ATOM     20  C   UNL     1       7.478   6.512  17.827  0.00  0.00    +0.000 A 
ATOM     21  O   UNL     1       8.145   7.320  18.467  0.00  0.00    +0.000 OA
ATOM     22  O   UNL     1       7.726   6.247  16.492  0.00  0.00    +0.000 OA
ATOM     23  C   UNL     1       6.938   5.324  15.776  0.00  0.00    +0.000 A 
ATOM     24  C   UNL     1       7.286   5.133  14.436  0.00  0.00    +0.000 A 
ATOM     25  C   UNL     1       6.550   4.244  13.650  0.00  0.00    +0.000 A 
ATOM     26  C   UNL     1       6.909   4.022  12.210  0.00  0.00    +0.000 C 
ATOM     27  C   UNL     1       5.471   3.567  14.226  0.00  0.00    +0.000 A 
ATOM     28  C   UNL     1       5.138   3.764  15.574  0.00  0.00    +0.000 A 
ATOM     29  C   UNL     1       5.880   4.650  16.375  0.00  0.00    +0.000 A 
ENDBRANCH  17  18
ENDBRANCH  16  17
ENDBRANCH   4  16
TORSDOF 8
ENDMDL
MODEL 6
REMARK VINA RESULT:      -7.3      2.713      6.658
REMARK  Name = 
REMARK  10 active torsions:
REMARK  status: ('A' for Active; 'I' for Inactive)
REMARK    1  A    between atoms: C_1  and  C_2
REMARK    2  A    between atoms: C_2  and  O_3
REMARK    3  A    between atoms: O_3  and  C_4
REMARK    4  A    between atoms: C_4  and  C_6
REMARK    5  A    between atoms: C_8  and  O_9
REMARK    6  A    between atoms: C_10  and  O_11
REMARK    7  A    between atoms: O_11  and  C_12
REMARK    8  A    between atoms: C_12  and  C_13
REMARK    9  A    between atoms: C_20  and  C_21
REMARK   10  A    between atoms: C_25  and  O_26
REMARK                            x       y       z     vdW  Elec       q    Type
REMARK                         _______ _______ _______ _____ _____    ______ ____
ROOT
ATOM      1  C   UNL     1       1.455   8.019  20.245  0.00  0.00    +0.000 A 
ATOM      2  C   UNL     1       1.485   6.816  20.963  0.00  0.00    +0.000 A 
ATOM      3  C   UNL     1       2.122   5.700  20.410  0.00  0.00    +0.000 A 
ATOM      4  C   UNL     1       2.750   5.771  19.154  0.00  0.00    +0.000 A 
ATOM      5  C   UNL     1       2.786   7.009  18.504  0.00  0.00    +0.000 A 
ATOM      6  C   UNL     1       2.107   8.106  19.012  0.00  0.00    +0.000 A 
ENDROOT
BRANCH   1   7
ATOM      7  C   UNL     1       0.666   9.164  20.766  0.00  0.00    +0.000 C 
ATOM      8  O   UNL     1      -0.178   9.763  20.123  0.00  0.00    +0.000 OA
BRANCH   7   9
ATOM      9  O   UNL     1       1.142   9.494  21.990  0.00  0.00    +0.000 OA
BRANCH   9  11
ATOM     10  C   UNL     1      -0.710  10.644  22.964  0.00  0.00    +0.000 C 
ATOM     11  C   UNL     1       0.208   9.437  23.071  0.00  0.00    +0.000 C 
ENDBRANCH   9  11
ENDBRANCH   7   9
ENDBRANCH   1   7
BRANCH   3  12
ATOM     12  O   UNL     1       2.110   4.511  21.093  0.00  0.00    +0.000 OA
ATOM     13  H   UNL     1       1.241   4.387  21.518  0.00  0.00    +0.000 HD
ENDBRANCH   3  12
BRANCH   5  14
ATOM     14  O   UNL     1       3.497   7.248  17.361  0.00  0.00    +0.000 OA
ATOM     15  H   UNL     1       3.450   6.436  16.828  0.00  0.00    +0.000 HD
ENDBRANCH   5  14
BRANCH   4  16
ATOM     16  O   UNL     1       3.293   4.616  18.648  0.00  0.00    +0.000 OA
BRANCH  16  17
ATOM     17  C   UNL     1       4.648   4.343  19.032  0.00  0.00    +0.000 C 
BRANCH  17  18
ATOM     18  C   UNL     1       5.663   5.102  18.225  0.00  0.00    +0.000 A 
ATOM     19  C   UNL     1       6.500   6.001  18.760  0.00  0.00    +0.000 A 
ATOM     20  C   UNL     1       7.571   6.655  17.996  0.00  0.00    +0.000 A 
ATOM     21  O   UNL     1       8.313   7.475  18.530  0.00  0.00    +0.000 OA
ATOM     22  O   UNL     1       7.708   6.293  16.667  0.00  0.00    +0.000 OA
ATOM     23  C   UNL     1       6.837   5.359  16.075  0.00  0.00    +0.000 A 
ATOM     24  C   UNL     1       7.076   5.066  14.729  0.00  0.00    +0.000 A 
ATOM     25  C   UNL     1       6.252   4.159  14.061  0.00  0.00    +0.000 A 
ATOM     26  C   UNL     1       6.494   3.829  12.617  0.00  0.00    +0.000 C 
ATOM     27  C   UNL     1       5.197   3.565  14.758  0.00  0.00    +0.000 A 
ATOM     28  C   UNL     1       4.973   3.862  16.110  0.00  0.00    +0.000 A 
ATOM     29  C   UNL     1       5.803   4.768  16.793  0.00  0.00    +0.000 A 
ENDBRANCH  17  18
ENDBRANCH  16  17
ENDBRANCH   4  16
TORSDOF 8
ENDMDL
MODEL 7
REMARK VINA RESULT:      -7.2      1.070      1.344
REMARK  Name = 
REMARK  10 active torsions:
REMARK  status: ('A' for Active; 'I' for Inactive)
REMARK    1  A    between atoms: C_1  and  C_2
REMARK    2  A    between atoms: C_2  and  O_3
REMARK    3  A    between atoms: O_3  and  C_4
REMARK    4  A    between atoms: C_4  and  C_6
REMARK    5  A    between atoms: C_8  and  O_9
REMARK    6  A    between atoms: C_10  and  O_11
REMARK    7  A    between atoms: O_11  and  C_12
REMARK    8  A    between atoms: C_12  and  C_13
REMARK    9  A    between atoms: C_20  and  C_21
REMARK   10  A    between atoms: C_25  and  O_26
REMARK                            x       y       z     vdW  Elec       q    Type
REMARK                         _______ _______ _______ _____ _____    ______ ____
ROOT
ATOM      1  C   UNL     1       8.027   8.292  18.136  0.00  0.00    +0.000 A 
ATOM      2  C   UNL     1       8.349   7.159  18.893  0.00  0.00    +0.000 A 
ATOM      3  C   UNL     1       7.680   5.955  18.649  0.00  0.00    +0.000 A 
ATOM      4  C   UNL     1       6.703   5.859  17.642  0.00  0.00    +0.000 A 
ATOM      5  C   UNL     1       6.471   6.980  16.840  0.00  0.00    +0.000 A 
ATOM      6  C   UNL     1       7.082   8.195  17.111  0.00  0.00    +0.000 A 
ENDROOT
BRANCH   1   7
ATOM      7  C   UNL     1       8.636   9.602  18.482  0.00  0.00    +0.000 C 
ATOM      8  O   UNL     1       9.326   9.798  19.467  0.00  0.00    +0.000 OA
BRANCH   7   9
ATOM      9  O   UNL     1       8.181  10.533  17.610  0.00  0.00    +0.000 OA
BRANCH   9  11
ATOM     10  C   UNL     1       7.677  12.827  17.185  0.00  0.00    +0.000 C 
ATOM     11  C   UNL     1       8.689  11.859  17.775  0.00  0.00    +0.000 C 
ENDBRANCH   9  11
ENDBRANCH   7   9
ENDBRANCH   1   7
BRANCH   3  12
ATOM     12  O   UNL     1       7.963   4.859  19.423  0.00  0.00    +0.000 OA
ATOM     13  H   UNL     1       7.552   4.963  20.301  0.00  0.00    +0.000 HD
ENDBRANCH   3  12
BRANCH   5  14
ATOM     14  O   UNL     1       5.668   6.971  15.733  0.00  0.00    +0.000 OA
ATOM     15  H   UNL     1       5.144   7.790  15.762  0.00  0.00    +0.000 HD
ENDBRANCH   5  14
BRANCH   4  16
ATOM     16  O   UNL     1       6.043   4.662  17.509  0.00  0.00    +0.000 OA
BRANCH  16  17
ATOM     17  C   UNL     1       4.639   4.752  17.227  0.00  0.00    +0.000 C 
BRANCH  17  18
ATOM     18  C   UNL     1       3.778   4.712  18.457  0.00  0.00    +0.000 A 
ATOM     19  C   UNL     1       3.721   3.653  19.276  0.00  0.00    +0.000 A 
ATOM     20  C   UNL     1       2.973   3.655  20.540  0.00  0.00    +0.000 A 
ATOM     21  O   UNL     1       2.948   2.659  21.258  0.00  0.00    +0.000 OA
ATOM     22  O   UNL     1       2.320   4.826  20.884  0.00  0.00    +0.000 OA
ATOM     23  C   UNL     1       2.353   5.952  20.038  0.00  0.00    +0.000 A 
ATOM     24  C   UNL     1       1.663   7.079  20.492  0.00  0.00    +0.000 A 
ATOM     25  C   UNL     1       1.635   8.236  19.710  0.00  0.00    +0.000 A 
ATOM     26  C   UNL     1       0.902   9.457  20.181  0.00  0.00    +0.000 C 
ATOM     27  C   UNL     1       2.299   8.235  18.480  0.00  0.00    +0.000 A 
ATOM     28  C   UNL     1       2.993   7.099  18.040  0.00  0.00    +0.000 A 
ATOM     29  C   UNL     1       3.034   5.933  18.826  0.00  0.00    +0.000 A 
ENDBRANCH  17  18
ENDBRANCH  16  17
ENDBRANCH   4  16
TORSDOF 8
ENDMDL
MODEL 8
REMARK VINA RESULT:      -7.2      2.620      6.787
REMARK  Name = 
REMARK  10 active torsions:
REMARK  status: ('A' for Active; 'I' for Inactive)
REMARK    1  A    between atoms: C_1  and  C_2
REMARK    2  A    between atoms: C_2  and  O_3
REMARK    3  A    between atoms: O_3  and  C_4
REMARK    4  A    between atoms: C_4  and  C_6
REMARK    5  A    between atoms: C_8  and  O_9
REMARK    6  A    between atoms: C_10  and  O_11
REMARK    7  A    between atoms: O_11  and  C_12
REMARK    8  A    between atoms: C_12  and  C_13
REMARK    9  A    between atoms: C_20  and  C_21
REMARK   10  A    between atoms: C_25  and  O_26
REMARK                            x       y       z     vdW  Elec       q    Type
REMARK                         _______ _______ _______ _____ _____    ______ ____
ROOT
ATOM      1  C   UNL     1       1.701   7.580  20.172  0.00  0.00    +0.000 A 
ATOM      2  C   UNL     1       2.224   7.558  18.873  0.00  0.00    +0.000 A 
ATOM      3  C   UNL     1       2.859   6.402  18.406  0.00  0.00    +0.000 A 
ATOM      4  C   UNL     1       2.961   5.254  19.212  0.00  0.00    +0.000 A 
ATOM      5  C   UNL     1       2.346   5.274  20.467  0.00  0.00    +0.000 A 
ATOM      6  C   UNL     1       1.768   6.431  20.965  0.00  0.00    +0.000 A 
ENDROOT
BRANCH   1   7
ATOM      7  C   UNL     1       1.148   8.845  20.718  0.00  0.00    +0.000 C 
ATOM      8  O   UNL     1       1.115   9.899  20.106  0.00  0.00    +0.000 OA
BRANCH   7   9
ATOM      9  O   UNL     1       0.835   8.652  22.021  0.00  0.00    +0.000 OA
BRANCH   9  11
ATOM     10  C   UNL     1      -0.556  10.159  23.243  0.00  0.00    +0.000 C 
ATOM     11  C   UNL     1      -0.524   8.901  22.391  0.00  0.00    +0.000 C 
ENDBRANCH   9  11
ENDBRANCH   7   9
ENDBRANCH   1   7
BRANCH   3  12
ATOM     12  O   UNL     1       3.413   6.398  17.152  0.00  0.00    +0.000 OA
ATOM     13  H   UNL     1       2.739   6.137  16.497  0.00  0.00    +0.000 HD
ENDBRANCH   3  12
BRANCH   5  14
ATOM     14  O   UNL     1       2.236   4.177  21.277  0.00  0.00    +0.000 OA
ATOM     15  H   UNL     1       2.848   3.508  20.926  0.00  0.00    +0.000 HD
ENDBRANCH   5  14
BRANCH   4  16
ATOM     16  O   UNL     1       3.658   4.184  18.708  0.00  0.00    +0.000 OA
BRANCH  16  17
ATOM     17  C   UNL     1       5.041   4.107  19.080  0.00  0.00    +0.000 C 
BRANCH  17  18
ATOM     18  C   UNL     1       5.935   4.979  18.245  0.00  0.00    +0.000 A 
ATOM     19  C   UNL     1       6.694   5.955  18.761  0.00  0.00    +0.000 A 
ATOM     20  C   UNL     1       7.656   6.729  17.965  0.00  0.00    +0.000 A 
ATOM     21  O   UNL     1       8.330   7.616  18.482  0.00  0.00    +0.000 OA
ATOM     22  O   UNL     1       7.774   6.401  16.625  0.00  0.00    +0.000 OA
ATOM     23  C   UNL     1       6.981   5.388  16.053  0.00  0.00    +0.000 A 
ATOM     24  C   UNL     1       7.191   5.140  14.694  0.00  0.00    +0.000 A 
ATOM     25  C   UNL     1       6.440   4.159  14.044  0.00  0.00    +0.000 A 
ATOM     26  C   UNL     1       6.653   3.876  12.586  0.00  0.00    +0.000 C 
ATOM     27  C   UNL     1       5.484   3.447  14.774  0.00  0.00    +0.000 A 
ATOM     28  C   UNL     1       5.288   3.702  16.139  0.00  0.00    +0.000 A 
ATOM     29  C   UNL     1       6.047   4.681  16.803  0.00  0.00    +0.000 A 
ENDBRANCH  17  18
ENDBRANCH  16  17
ENDBRANCH   4  16
TORSDOF 8
ENDMDL
MODEL 9
REMARK VINA RESULT:      -7.2      5.397      9.165
REMARK  Name = 
REMARK  10 active torsions:
REMARK  status: ('A' for Active; 'I' for Inactive)
REMARK    1  A    between atoms: C_1  and  C_2
REMARK    2  A    between atoms: C_2  and  O_3
REMARK    3  A    between atoms: O_3  and  C_4
REMARK    4  A    between atoms: C_4  and  C_6
REMARK    5  A    between atoms: C_8  and  O_9
REMARK    6  A    between atoms: C_10  and  O_11
REMARK    7  A    between atoms: O_11  and  C_12
REMARK    8  A    between atoms: C_12  and  C_13
REMARK    9  A    between atoms: C_20  and  C_21
REMARK   10  A    between atoms: C_25  and  O_26
REMARK                            x       y       z     vdW  Elec       q    Type
REMARK                         _______ _______ _______ _____ _____    ______ ____
ROOT
ATOM      1  C   UNL     1       2.096   7.328  19.812  0.00  0.00    +0.000 A 
ATOM      2  C   UNL     1       2.241   8.032  18.610  0.00  0.00    +0.000 A 
ATOM      3  C   UNL     1       1.564   9.244  18.435  0.00  0.00    +0.000 A 
ATOM      4  C   UNL     1       0.755   9.776  19.455  0.00  0.00    +0.000 A 
ATOM      5  C   UNL     1       0.706   9.100  20.678  0.00  0.00    +0.000 A 
ATOM      6  C   UNL     1       1.322   7.869  20.842  0.00  0.00    +0.000 A 
ENDROOT
BRANCH   1   7
ATOM      7  C   UNL     1       2.702   5.979  19.950  0.00  0.00    +0.000 C 
ATOM      8  O   UNL     1       3.507   5.507  19.166  0.00  0.00    +0.000 OA
BRANCH   7   9
ATOM      9  O   UNL     1       2.109   5.343  20.987  0.00  0.00    +0.000 OA
BRANCH   9  11
ATOM     10  C   UNL     1       1.054   3.257  20.505  0.00  0.00    +0.000 C 
ATOM     11  C   UNL     1       2.301   3.928  21.058  0.00  0.00    +0.000 C 
ENDBRANCH   9  11
ENDBRANCH   7   9
ENDBRANCH   1   7
BRANCH   3  12
ATOM     12  O   UNL     1       1.669   9.907  17.240  0.00  0.00    +0.000 OA
ATOM     13  H   UNL     1       1.796  10.860  17.405  0.00  0.00    +0.000 HD
ENDBRANCH   3  12
BRANCH   5  14
ATOM     14  O   UNL     1       0.090   9.592  21.795  0.00  0.00    +0.000 OA
ATOM     15  H   UNL     1       0.648  10.317  22.125  0.00  0.00    +0.000 HD
ENDBRANCH   5  14
BRANCH   4  16
ATOM     16  O   UNL     1       0.069  10.934  19.183  0.00  0.00    +0.000 OA
BRANCH  16  17
ATOM     17  C   UNL     1      -1.329  10.921  19.500  0.00  0.00    +0.000 C 
BRANCH  17  18
ATOM     18  C   UNL     1      -2.218  10.974  18.290  0.00  0.00    +0.000 A 
ATOM     19  C   UNL     1      -1.905  10.387  17.127  0.00  0.00    +0.000 A 
ATOM     20  C   UNL     1      -2.823  10.337  15.981  0.00  0.00    +0.000 A 
ATOM     21  O   UNL     1      -2.491   9.789  14.933  0.00  0.00    +0.000 OA
ATOM     22  O   UNL     1      -4.069  10.917  16.146  0.00  0.00    +0.000 OA
ATOM     23  C   UNL     1      -4.422  11.550  17.353  0.00  0.00    +0.000 A 
ATOM     24  C   UNL     1      -5.708  12.093  17.406  0.00  0.00    +0.000 A 
ATOM     25  C   UNL     1      -6.136  12.748  18.563  0.00  0.00    +0.000 A 
ATOM     26  C   UNL     1      -7.514  13.336  18.640  0.00  0.00    +0.000 C 
ATOM     27  C   UNL     1      -5.258  12.851  19.645  0.00  0.00    +0.000 A 
ATOM     28  C   UNL     1      -3.972  12.294  19.580  0.00  0.00    +0.000 A 
ATOM     29  C   UNL     1      -3.537  11.624  18.423  0.00  0.00    +0.000 A 
ENDBRANCH  17  18
ENDBRANCH  16  17
ENDBRANCH   4  16
TORSDOF 8
ENDMDL
