MODEL 1
REMARK VINA RESULT:      -8.9      0.000      0.000
REMARK  Name = 
REMARK  6 active torsions:
REMARK  status: ('A' for Active; 'I' for Inactive)
REMARK    1  A    between atoms: C_2  and  C_24
REMARK    2  A    between atoms: N_3  and  C_4
REMARK    3  A    between atoms: C_5  and  C_6
REMARK    4  A    between atoms: C_6  and  O_7
REMARK    5  A    between atoms: C_6  and  C_8
REMARK    6  A    between atoms: C_6  and  C_12
REMARK                            x       y       z     vdW  Elec       q    Type
REMARK                         _______ _______ _______ _____ _____    ______ ____
ROOT
ATOM      1  C   UNL     1       2.463   6.276  18.753  0.00  0.00    +0.000 A 
ATOM      2  C   UNL     1       2.140   5.341  19.768  0.00  0.00    +0.000 A 
ATOM      3  C   UNL     1       1.345   5.811  20.835  0.00  0.00    +0.000 A 
ATOM      4  C   UNL     1       0.971   7.151  20.944  0.00  0.00    +0.000 A 
ATOM      5  C   UNL     1       1.352   8.084  19.977  0.00  0.00    +0.000 A 
ATOM      6  C   UNL     1       0.988   9.432  20.129  0.00  0.00    +0.000 A 
ATOM      7  C   UNL     1       1.330  10.382  19.170  0.00  0.00    +0.000 A 
ATOM      8  C   UNL     1       2.027   9.989  18.038  0.00  0.00    +0.000 A 
ATOM      9  C   UNL     1       2.396   8.649  17.879  0.00  0.00    +0.000 A 
ATOM     10  C   UNL     1       2.092   7.663  18.851  0.00  0.00    +0.000 A 
ENDROOT
BRANCH   1  13
ATOM     11  O   UNL     1       5.238   6.335  18.710  0.00  0.00    +0.000 OA
ATOM     12  C   UNL     1       4.636   5.872  17.747  0.00  0.00    +0.000 C 
ATOM     13  N   UNL     1       3.241   5.880  17.635  0.00  0.00    +0.000 N 
ATOM     14  H   UNL     1       2.900   5.055  17.156  0.00  0.00    +0.000 HD
BRANCH  12  15
ATOM     15  C   UNL     1       5.409   5.348  16.577  0.00  0.00    +0.000 A 
ATOM     16  C   UNL     1       4.736   4.406  15.778  0.00  0.00    +0.000 A 
ATOM     17  C   UNL     1       5.370   3.789  14.691  0.00  0.00    +0.000 A 
ATOM     18  C   UNL     1       6.689   4.107  14.388  0.00  0.00    +0.000 A 
ATOM     19  C   UNL     1       7.366   5.054  15.151  0.00  0.00    +0.000 A 
ATOM     20  C   UNL     1       6.734   5.681  16.237  0.00  0.00    +0.000 A 
ATOM     21 CL   UNL     1       7.670   6.875  17.072  0.00  0.00    +0.000 Cl
ENDBRANCH  12  15
ENDBRANCH   1  13
BRANCH   2  22
ATOM     22  C   UNL     1       2.658   3.867  19.864  0.00  0.00    +0.000 C 
BRANCH  22  23
ATOM     23  C   UNL     1       2.347   3.276  21.280  0.00  0.00    +0.000 C 
ATOM     24  F   UNL     1       2.596   4.165  22.282  0.00  0.00    +0.000 F 
ATOM     25  F   UNL     1       1.082   2.857  21.481  0.00  0.00    +0.000 F 
ATOM     26  F   UNL     1       3.152   2.214  21.563  0.00  0.00    +0.000 F 
ENDBRANCH  22  23
BRANCH  22  27
ATOM     27  C   UNL     1       2.013   2.974  18.767  0.00  0.00    +0.000 C 
ATOM     28  F   UNL     1       0.924   3.547  18.198  0.00  0.00    +0.000 F 
ATOM     29  F   UNL     1       2.883   2.745  17.743  0.00  0.00    +0.000 F 
ATOM     30  F   UNL     1       1.615   1.753  19.180  0.00  0.00    +0.000 F 
ENDBRANCH  22  27
BRANCH  22  31
ATOM     31  O   UNL     1       4.117   3.782  19.710  0.00  0.00    +0.000 OA
ATOM     32  H   UNL     1       4.403   4.547  19.189  0.00  0.00    +0.000 HD
ENDBRANCH  22  31
ENDBRANCH   2  22
TORSDOF 6
ENDMDL
MODEL 2
REMARK VINA RESULT:      -8.8      1.978      5.641
REMARK  Name = 
REMARK  6 active torsions:
REMARK  status: ('A' for Active; 'I' for Inactive)
REMARK    1  A    between atoms: C_2  and  C_24
REMARK    2  A    between atoms: N_3  and  C_4
REMARK    3  A    between atoms: C_5  and  C_6
REMARK    4  A    between atoms: C_6  and  O_7
REMARK    5  A    between atoms: C_6  and  C_8
REMARK    6  A    between atoms: C_6  and  C_12
REMARK                            x       y       z     vdW  Elec       q    Type
REMARK                         _______ _______ _______ _____ _____    ______ ____
ROOT
ATOM      1  C   UNL     1       3.887   5.279  19.111  0.00  0.00    +0.000 A 
ATOM      2  C   UNL     1       3.312   3.988  19.215  0.00  0.00    +0.000 A 
ATOM      3  C   UNL     1       3.974   2.942  18.538  0.00  0.00    +0.000 A 
ATOM      4  C   UNL     1       5.085   3.173  17.727  0.00  0.00    +0.000 A 
ATOM      5  C   UNL     1       5.605   4.460  17.571  0.00  0.00    +0.000 A 
ATOM      6  C   UNL     1       6.707   4.668  16.723  0.00  0.00    +0.000 A 
ATOM      7  C   UNL     1       7.265   5.934  16.567  0.00  0.00    +0.000 A 
ATOM      8  C   UNL     1       6.738   7.004  17.272  0.00  0.00    +0.000 A 
ATOM      9  C   UNL     1       5.640   6.807  18.118  0.00  0.00    +0.000 A 
ATOM     10  C   UNL     1       5.027   5.539  18.275  0.00  0.00    +0.000 A 
ENDROOT
BRANCH   1  13
ATOM     11  O   UNL     1       2.113   7.039  17.900  0.00  0.00    +0.000 OA
ATOM     12  C   UNL     1       2.350   7.161  19.097  0.00  0.00    +0.000 C 
ATOM     13  N   UNL     1       3.294   6.383  19.778  0.00  0.00    +0.000 N 
ATOM     14  H   UNL     1       3.005   6.194  20.731  0.00  0.00    +0.000 HD
BRANCH  12  15
ATOM     15  C   UNL     1       1.678   8.249  19.876  0.00  0.00    +0.000 A 
ATOM     16  C   UNL     1       1.315   7.916  21.193  0.00  0.00    +0.000 A 
ATOM     17  C   UNL     1       0.620   8.823  22.006  0.00  0.00    +0.000 A 
ATOM     18  C   UNL     1       0.279  10.076  21.510  0.00  0.00    +0.000 A 
ATOM     19  C   UNL     1       0.650  10.435  20.218  0.00  0.00    +0.000 A 
ATOM     20  C   UNL     1       1.353   9.533  19.401  0.00  0.00    +0.000 A 
ATOM     21 CL   UNL     1       1.797  10.121  17.833  0.00  0.00    +0.000 Cl
ENDBRANCH  12  15
ENDBRANCH   1  13
BRANCH   2  22
ATOM     22  C   UNL     1       1.964   3.632  19.928  0.00  0.00    +0.000 C 
BRANCH  22  23
ATOM     23  C   UNL     1       1.240   2.471  19.166  0.00  0.00    +0.000 C 
ATOM     24  F   UNL     1       1.345   2.591  17.813  0.00  0.00    +0.000 F 
ATOM     25  F   UNL     1       1.664   1.224  19.448  0.00  0.00    +0.000 F 
ATOM     26  F   UNL     1      -0.101   2.483  19.403  0.00  0.00    +0.000 F 
ENDBRANCH  22  23
BRANCH  22  27
ATOM     27  C   UNL     1       2.205   3.220  21.407  0.00  0.00    +0.000 C 
ATOM     28  F   UNL     1       3.264   2.384  21.554  0.00  0.00    +0.000 F 
ATOM     29  F   UNL     1       2.487   4.305  22.182  0.00  0.00    +0.000 F 
ATOM     30  F   UNL     1       1.166   2.608  22.011  0.00  0.00    +0.000 F 
ENDBRANCH  22  27
BRANCH  22  31
ATOM     31  O   UNL     1       1.021   4.758  19.925  0.00  0.00    +0.000 OA
ATOM     32  H   UNL     1       0.756   4.923  20.843  0.00  0.00    +0.000 HD
ENDBRANCH  22  31
ENDBRANCH   2  22
TORSDOF 6
ENDMDL
MODEL 3
REMARK VINA RESULT:      -8.5      1.988      5.493
REMARK  Name = 
REMARK  6 active torsions:
REMARK  status: ('A' for Active; 'I' for Inactive)
REMARK    1  A    between atoms: C_2  and  C_24
REMARK    2  A    between atoms: N_3  and  C_4
REMARK    3  A    between atoms: C_5  and  C_6
REMARK    4  A    between atoms: C_6  and  O_7
REMARK    5  A    between atoms: C_6  and  C_8
REMARK    6  A    between atoms: C_6  and  C_12
REMARK                            x       y       z     vdW  Elec       q    Type
REMARK                         _______ _______ _______ _____ _____    ______ ____
ROOT
ATOM      1  C   UNL     1       3.716   5.324  18.736  0.00  0.00    +0.000 A 
ATOM      2  C   UNL     1       3.363   4.044  19.232  0.00  0.00    +0.000 A 
ATOM      3  C   UNL     1       3.842   2.929  18.511  0.00  0.00    +0.000 A 
ATOM      4  C   UNL     1       4.549   3.070  17.316  0.00  0.00    +0.000 A 
ATOM      5  C   UNL     1       4.832   4.334  16.794  0.00  0.00    +0.000 A 
ATOM      6  C   UNL     1       5.517   4.445  15.572  0.00  0.00    +0.000 A 
ATOM      7  C   UNL     1       5.838   5.691  15.038  0.00  0.00    +0.000 A 
ATOM      8  C   UNL     1       5.491   6.840  15.730  0.00  0.00    +0.000 A 
ATOM      9  C   UNL     1       4.807   6.739  16.946  0.00  0.00    +0.000 A 
ATOM     10  C   UNL     1       4.436   5.489  17.502  0.00  0.00    +0.000 A 
ENDROOT
BRANCH   1  13
ATOM     11  O   UNL     1       1.542   6.858  17.942  0.00  0.00    +0.000 OA
ATOM     12  C   UNL     1       2.133   7.151  18.976  0.00  0.00    +0.000 C 
ATOM     13  N   UNL     1       3.290   6.497  19.413  0.00  0.00    +0.000 N 
ATOM     14  H   UNL     1       3.327   6.436  20.424  0.00  0.00    +0.000 HD
BRANCH  12  15
ATOM     15  C   UNL     1       1.668   8.322  19.786  0.00  0.00    +0.000 A 
ATOM     16  C   UNL     1       1.357   8.045  21.129  0.00  0.00    +0.000 A 
ATOM     17  C   UNL     1       0.849   9.040  21.977  0.00  0.00    +0.000 A 
ATOM     18  C   UNL     1       0.644  10.325  21.490  0.00  0.00    +0.000 A 
ATOM     19  C   UNL     1       0.968  10.627  20.170  0.00  0.00    +0.000 A 
ATOM     20  C   UNL     1       1.485   9.637  19.318  0.00  0.00    +0.000 A 
ATOM     21 CL   UNL     1       1.891  10.154  17.716  0.00  0.00    +0.000 Cl
ENDBRANCH  12  15
ENDBRANCH   1  13
BRANCH   2  22
ATOM     22  C   UNL     1       2.417   3.752  20.445  0.00  0.00    +0.000 C 
BRANCH  22  23
ATOM     23  C   UNL     1       0.919   3.852  19.997  0.00  0.00    +0.000 C 
ATOM     24  F   UNL     1       0.788   4.024  18.653  0.00  0.00    +0.000 F 
ATOM     25  F   UNL     1       0.141   2.794  20.299  0.00  0.00    +0.000 F 
ATOM     26  F   UNL     1       0.311   4.943  20.539  0.00  0.00    +0.000 F 
ENDBRANCH  22  23
BRANCH  22  27
ATOM     27  C   UNL     1       2.695   2.346  21.045  0.00  0.00    +0.000 C 
ATOM     28  F   UNL     1       2.001   2.117  22.188  0.00  0.00    +0.000 F 
ATOM     29  F   UNL     1       2.318   1.359  20.185  0.00  0.00    +0.000 F 
ATOM     30  F   UNL     1       3.986   2.090  21.340  0.00  0.00    +0.000 F 
ENDBRANCH  22  27
BRANCH  22  31
ATOM     31  O   UNL     1       2.576   4.738  21.522  0.00  0.00    +0.000 OA
ATOM     32  H   UNL     1       1.740   5.222  21.603  0.00  0.00    +0.000 HD
ENDBRANCH  22  31
ENDBRANCH   2  22
TORSDOF 6
ENDMDL
MODEL 4
REMARK VINA RESULT:      -8.3      3.308      6.339
REMARK  Name = 
REMARK  6 active torsions:
REMARK  status: ('A' for Active; 'I' for Inactive)
REMARK    1  A    between atoms: C_2  and  C_24
REMARK    2  A    between atoms: N_3  and  C_4
REMARK    3  A    between atoms: C_5  and  C_6
REMARK    4  A    between atoms: C_6  and  O_7
REMARK    5  A    between atoms: C_6  and  C_8
REMARK    6  A    between atoms: C_6  and  C_12
REMARK                            x       y       z     vdW  Elec       q    Type
REMARK                         _______ _______ _______ _____ _____    ______ ____
ROOT
ATOM      1  C   UNL     1       3.759   5.434  19.008  0.00  0.00    +0.000 A 
ATOM      2  C   UNL     1       4.770   5.092  18.075  0.00  0.00    +0.000 A 
ATOM      3  C   UNL     1       5.080   3.721  17.948  0.00  0.00    +0.000 A 
ATOM      4  C   UNL     1       4.494   2.752  18.763  0.00  0.00    +0.000 A 
ATOM      5  C   UNL     1       3.551   3.103  19.731  0.00  0.00    +0.000 A 
ATOM      6  C   UNL     1       3.001   2.110  20.559  0.00  0.00    +0.000 A 
ATOM      7  C   UNL     1       2.038   2.423  21.516  0.00  0.00    +0.000 A 
ATOM      8  C   UNL     1       1.602   3.733  21.643  0.00  0.00    +0.000 A 
ATOM      9  C   UNL     1       2.146   4.729  20.823  0.00  0.00    +0.000 A 
ATOM     10  C   UNL     1       3.150   4.450  19.862  0.00  0.00    +0.000 A 
ENDROOT
BRANCH   1  13
ATOM     11  O   UNL     1       1.663   6.629  17.635  0.00  0.00    +0.000 OA
ATOM     12  C   UNL     1       2.252   7.269  18.500  0.00  0.00    +0.000 C 
ATOM     13  N   UNL     1       3.374   6.789  19.183  0.00  0.00    +0.000 N 
ATOM     14  H   UNL     1       3.394   7.112  20.143  0.00  0.00    +0.000 HD
BRANCH  12  15
ATOM     15  C   UNL     1       1.826   8.674  18.796  0.00  0.00    +0.000 A 
ATOM     16  C   UNL     1       2.145   9.626  17.811  0.00  0.00    +0.000 A 
ATOM     17  C   UNL     1       1.861  10.986  17.996  0.00  0.00    +0.000 A 
ATOM     18  C   UNL     1       1.253  11.412  19.171  0.00  0.00    +0.000 A 
ATOM     19  C   UNL     1       0.906  10.484  20.148  0.00  0.00    +0.000 A 
ATOM     20  C   UNL     1       1.181   9.118  19.966  0.00  0.00    +0.000 A 
ATOM     21 CL   UNL     1       0.655   8.064  21.235  0.00  0.00    +0.000 Cl
ENDBRANCH  12  15
ENDBRANCH   1  13
BRANCH   2  22
ATOM     22  C   UNL     1       5.637   6.097  17.245  0.00  0.00    +0.000 C 
BRANCH  22  23
ATOM     23  C   UNL     1       7.132   6.031  17.707  0.00  0.00    +0.000 C 
ATOM     24  F   UNL     1       7.261   6.101  19.062  0.00  0.00    +0.000 F 
ATOM     25  F   UNL     1       7.816   4.930  17.340  0.00  0.00    +0.000 F 
ATOM     26  F   UNL     1       7.842   7.096  17.244  0.00  0.00    +0.000 F 
ENDBRANCH  22  23
BRANCH  22  27
ATOM     27  C   UNL     1       5.543   5.792  15.723  0.00  0.00    +0.000 C 
ATOM     28  F   UNL     1       4.775   4.709  15.451  0.00  0.00    +0.000 F 
ATOM     29  F   UNL     1       4.969   6.827  15.047  0.00  0.00    +0.000 F 
ATOM     30  F   UNL     1       6.723   5.572  15.107  0.00  0.00    +0.000 F 
ENDBRANCH  22  27
BRANCH  22  31
ATOM     31  O   UNL     1       5.220   7.490  17.449  0.00  0.00    +0.000 OA
ATOM     32  H   UNL     1       4.413   7.635  16.931  0.00  0.00    +0.000 HD
ENDBRANCH  22  31
ENDBRANCH   2  22
TORSDOF 6
ENDMDL
MODEL 5
REMARK VINA RESULT:      -8.2      2.477      5.555
REMARK  Name = 
REMARK  6 active torsions:
REMARK  status: ('A' for Active; 'I' for Inactive)
REMARK    1  A    between atoms: C_2  and  C_24
REMARK    2  A    between atoms: N_3  and  C_4
REMARK    3  A    between atoms: C_5  and  C_6
REMARK    4  A    between atoms: C_6  and  O_7
REMARK    5  A    between atoms: C_6  and  C_8
REMARK    6  A    between atoms: C_6  and  C_12
REMARK                            x       y       z     vdW  Elec       q    Type
REMARK                         _______ _______ _______ _____ _____    ______ ____
ROOT
ATOM      1  C   UNL     1       3.627   5.613  18.386  0.00  0.00    +0.000 A 
ATOM      2  C   UNL     1       3.253   4.296  18.752  0.00  0.00    +0.000 A 
ATOM      3  C   UNL     1       4.291   3.344  18.845  0.00  0.00    +0.000 A 
ATOM      4  C   UNL     1       5.609   3.651  18.504  0.00  0.00    +0.000 A 
ATOM      5  C   UNL     1       5.960   4.933  18.076  0.00  0.00    +0.000 A 
ATOM      6  C   UNL     1       7.289   5.205  17.709  0.00  0.00    +0.000 A 
ATOM      7  C   UNL     1       7.676   6.480  17.302  0.00  0.00    +0.000 A 
ATOM      8  C   UNL     1       6.740   7.501  17.274  0.00  0.00    +0.000 A 
ATOM      9  C   UNL     1       5.414   7.239  17.637  0.00  0.00    +0.000 A 
ATOM     10  C   UNL     1       4.979   5.947  18.024  0.00  0.00    +0.000 A 
ENDROOT
BRANCH   1  13
ATOM     11  O   UNL     1       2.769   7.136  20.543  0.00  0.00    +0.000 OA
ATOM     12  C   UNL     1       2.345   7.397  19.422  0.00  0.00    +0.000 C 
ATOM     13  N   UNL     1       2.647   6.635  18.288  0.00  0.00    +0.000 N 
ATOM     14  H   UNL     1       2.721   7.211  17.459  0.00  0.00    +0.000 HD
BRANCH  12  15
ATOM     15  C   UNL     1       1.381   8.529  19.243  0.00  0.00    +0.000 A 
ATOM     16  C   UNL     1       1.470   9.213  18.018  0.00  0.00    +0.000 A 
ATOM     17  C   UNL     1       0.669  10.333  17.751  0.00  0.00    +0.000 A 
ATOM     18  C   UNL     1      -0.232  10.782  18.708  0.00  0.00    +0.000 A 
ATOM     19  C   UNL     1      -0.355  10.105  19.918  0.00  0.00    +0.000 A 
ATOM     20  C   UNL     1       0.440   8.978  20.188  0.00  0.00    +0.000 A 
ATOM     21 CL   UNL     1       0.155   8.199  21.708  0.00  0.00    +0.000 Cl
ENDBRANCH  12  15
ENDBRANCH   1  13
BRANCH   2  22
ATOM     22  C   UNL     1       1.792   3.777  18.968  0.00  0.00    +0.000 C 
BRANCH  22  23
ATOM     23  C   UNL     1       1.687   2.271  18.553  0.00  0.00    +0.000 C 
ATOM     24  F   UNL     1       2.199   2.036  17.313  0.00  0.00    +0.000 F 
ATOM     25  F   UNL     1       2.300   1.389  19.366  0.00  0.00    +0.000 F 
ATOM     26  F   UNL     1       0.388   1.871  18.463  0.00  0.00    +0.000 F 
ENDBRANCH  22  23
BRANCH  22  27
ATOM     27  C   UNL     1       1.352   3.947  20.449  0.00  0.00    +0.000 C 
ATOM     28  F   UNL     1       2.388   4.237  21.275  0.00  0.00    +0.000 F 
ATOM     29  F   UNL     1       0.473   4.979  20.588  0.00  0.00    +0.000 F 
ATOM     30  F   UNL     1       0.736   2.877  20.993  0.00  0.00    +0.000 F 
ENDBRANCH  22  27
BRANCH  22  31
ATOM     31  O   UNL     1       0.821   4.490  18.128  0.00  0.00    +0.000 OA
ATOM     32  H   UNL     1       1.036   5.434  18.166  0.00  0.00    +0.000 HD
ENDBRANCH  22  31
ENDBRANCH   2  22
TORSDOF 6
ENDMDL
MODEL 6
REMARK VINA RESULT:      -8.1      3.283      6.310
REMARK  Name = 
REMARK  6 active torsions:
REMARK  status: ('A' for Active; 'I' for Inactive)
REMARK    1  A    between atoms: C_2  and  C_24
REMARK    2  A    between atoms: N_3  and  C_4
REMARK    3  A    between atoms: C_5  and  C_6
REMARK    4  A    between atoms: C_6  and  O_7
REMARK    5  A    between atoms: C_6  and  C_8
REMARK    6  A    between atoms: C_6  and  C_12
REMARK                            x       y       z     vdW  Elec       q    Type
REMARK                         _______ _______ _______ _____ _____    ______ ____
ROOT
ATOM      1  C   UNL     1       3.550   5.436  18.815  0.00  0.00    +0.000 A 
ATOM      2  C   UNL     1       4.572   5.092  17.895  0.00  0.00    +0.000 A 
ATOM      3  C   UNL     1       4.811   3.716  17.696  0.00  0.00    +0.000 A 
ATOM      4  C   UNL     1       4.144   2.736  18.432  0.00  0.00    +0.000 A 
ATOM      5  C   UNL     1       3.188   3.083  19.389  0.00  0.00    +0.000 A 
ATOM      6  C   UNL     1       2.556   2.076  20.139  0.00  0.00    +0.000 A 
ATOM      7  C   UNL     1       1.579   2.387  21.081  0.00  0.00    +0.000 A 
ATOM      8  C   UNL     1       1.212   3.710  21.273  0.00  0.00    +0.000 A 
ATOM      9  C   UNL     1       1.837   4.719  20.532  0.00  0.00    +0.000 A 
ATOM     10  C   UNL     1       2.857   4.441  19.589  0.00  0.00    +0.000 A 
ENDROOT
BRANCH   1  13
ATOM     11  O   UNL     1       1.516   6.803  17.509  0.00  0.00    +0.000 OA
ATOM     12  C   UNL     1       2.137   7.368  18.403  0.00  0.00    +0.000 C 
ATOM     13  N   UNL     1       3.234   6.798  19.058  0.00  0.00    +0.000 N 
ATOM     14  H   UNL     1       3.271   7.071  20.033  0.00  0.00    +0.000 HD
BRANCH  12  15
ATOM     15  C   UNL     1       1.783   8.776  18.771  0.00  0.00    +0.000 A 
ATOM     16  C   UNL     1       2.133   9.757  17.826  0.00  0.00    +0.000 A 
ATOM     17  C   UNL     1       1.917  11.119  18.077  0.00  0.00    +0.000 A 
ATOM     18  C   UNL     1       1.347  11.518  19.281  0.00  0.00    +0.000 A 
ATOM     19  C   UNL     1       0.970  10.563  20.220  0.00  0.00    +0.000 A 
ATOM     20  C   UNL     1       1.177   9.196  19.971  0.00  0.00    +0.000 A 
ATOM     21 CL   UNL     1       0.620   8.110  21.198  0.00  0.00    +0.000 Cl
ENDBRANCH  12  15
ENDBRANCH   1  13
BRANCH   2  22
ATOM     22  C   UNL     1       5.522   6.092  17.154  0.00  0.00    +0.000 C 
BRANCH  22  23
ATOM     23  C   UNL     1       6.974   5.987  17.732  0.00  0.00    +0.000 C 
ATOM     24  F   UNL     1       7.621   4.865  17.312  0.00  0.00    +0.000 F 
ATOM     25  F   UNL     1       7.802   7.008  17.438  0.00  0.00    +0.000 F 
ATOM     26  F   UNL     1       6.961   5.882  19.090  0.00  0.00    +0.000 F 
ENDBRANCH  22  23
BRANCH  22  27
ATOM     27  C   UNL     1       5.543   5.815  15.625  0.00  0.00    +0.000 C 
ATOM     28  F   UNL     1       5.005   6.828  14.901  0.00  0.00    +0.000 F 
ATOM     29  F   UNL     1       6.818   5.676  15.166  0.00  0.00    +0.000 F 
ATOM     30  F   UNL     1       4.897   4.698  15.233  0.00  0.00    +0.000 F 
ENDBRANCH  22  27
BRANCH  22  31
ATOM     31  O   UNL     1       5.117   7.491  17.351  0.00  0.00    +0.000 OA
ATOM     32  H   UNL     1       5.468   7.781  18.206  0.00  0.00    +0.000 HD
ENDBRANCH  22  31
ENDBRANCH   2  22
TORSDOF 6
ENDMDL
MODEL 7
REMARK VINA RESULT:      -7.9      1.131      1.690
REMARK  Name = 
REMARK  6 active torsions:
REMARK  status: ('A' for Active; 'I' for Inactive)
REMARK    1  A    between atoms: C_2  and  C_24
REMARK    2  A    between atoms: N_3  and  C_4
REMARK    3  A    between atoms: C_5  and  C_6
REMARK    4  A    between atoms: C_6  and  O_7
REMARK    5  A    between atoms: C_6  and  C_8
REMARK    6  A    between atoms: C_6  and  C_12
REMARK                            x       y       z     vdW  Elec       q    Type
REMARK                         _______ _______ _______ _____ _____    ______ ____
ROOT
ATOM      1  C   UNL     1       2.343   6.184  18.800  0.00  0.00    +0.000 A 
ATOM      2  C   UNL     1       1.990   5.308  19.857  0.00  0.00    +0.000 A 
ATOM      3  C   UNL     1       1.252   5.865  20.923  0.00  0.00    +0.000 A 
ATOM      4  C   UNL     1       0.960   7.228  20.988  0.00  0.00    +0.000 A 
ATOM      5  C   UNL     1       1.373   8.099  19.977  0.00  0.00    +0.000 A 
ATOM      6  C   UNL     1       1.093   9.472  20.084  0.00  0.00    +0.000 A 
ATOM      7  C   UNL     1       1.467  10.363  19.081  0.00  0.00    +0.000 A 
ATOM      8  C   UNL     1       2.111   9.886  17.950  0.00  0.00    +0.000 A 
ATOM      9  C   UNL     1       2.396   8.521  17.836  0.00  0.00    +0.000 A 
ATOM     10  C   UNL     1       2.058   7.592  18.852  0.00  0.00    +0.000 A 
ENDROOT
BRANCH   1  13
ATOM     11  O   UNL     1       5.114   6.209  18.633  0.00  0.00    +0.000 OA
ATOM     12  C   UNL     1       4.468   5.684  17.734  0.00  0.00    +0.000 C 
ATOM     13  N   UNL     1       3.069   5.699  17.681  0.00  0.00    +0.000 N 
ATOM     14  H   UNL     1       2.701   4.845  17.278  0.00  0.00    +0.000 HD
BRANCH  12  15
ATOM     15  C   UNL     1       5.184   5.068  16.572  0.00  0.00    +0.000 A 
ATOM     16  C   UNL     1       5.925   5.959  15.775  0.00  0.00    +0.000 A 
ATOM     17  C   UNL     1       6.589   5.521  14.620  0.00  0.00    +0.000 A 
ATOM     18  C   UNL     1       6.518   4.184  14.247  0.00  0.00    +0.000 A 
ATOM     19  C   UNL     1       5.811   3.280  15.035  0.00  0.00    +0.000 A 
ATOM     20  C   UNL     1       5.150   3.712  16.197  0.00  0.00    +0.000 A 
ATOM     21 CL   UNL     1       4.349   2.480  17.113  0.00  0.00    +0.000 Cl
ENDBRANCH  12  15
ENDBRANCH   1  13
BRANCH   2  22
ATOM     22  C   UNL     1       2.423   3.810  19.999  0.00  0.00    +0.000 C 
BRANCH  22  23
ATOM     23  C   UNL     1       2.323   3.359  21.496  0.00  0.00    +0.000 C 
ATOM     24  F   UNL     1       3.146   2.311  21.779  0.00  0.00    +0.000 F 
ATOM     25  F   UNL     1       2.612   4.298  22.417  0.00  0.00    +0.000 F 
ATOM     26  F   UNL     1       1.076   2.900  21.793  0.00  0.00    +0.000 F 
ENDBRANCH  22  23
BRANCH  22  27
ATOM     27  C   UNL     1       1.542   2.887  19.111  0.00  0.00    +0.000 C 
ATOM     28  F   UNL     1       1.875   1.577  19.225  0.00  0.00    +0.000 F 
ATOM     29  F   UNL     1       0.230   2.964  19.469  0.00  0.00    +0.000 F 
ATOM     30  F   UNL     1       1.570   3.161  17.791  0.00  0.00    +0.000 F 
ENDBRANCH  22  27
BRANCH  22  31
ATOM     31  O   UNL     1       3.824   3.599  19.613  0.00  0.00    +0.000 OA
ATOM     32  H   UNL     1       3.887   3.723  18.654  0.00  0.00    +0.000 HD
ENDBRANCH  22  31
ENDBRANCH   2  22
TORSDOF 6
ENDMDL
MODEL 8
REMARK VINA RESULT:      -7.8      1.056      1.392
REMARK  Name = 
REMARK  6 active torsions:
REMARK  status: ('A' for Active; 'I' for Inactive)
REMARK    1  A    between atoms: C_2  and  C_24
REMARK    2  A    between atoms: N_3  and  C_4
REMARK    3  A    between atoms: C_5  and  C_6
REMARK    4  A    between atoms: C_6  and  O_7
REMARK    5  A    between atoms: C_6  and  C_8
REMARK    6  A    between atoms: C_6  and  C_12
REMARK                            x       y       z     vdW  Elec       q    Type
REMARK                         _______ _______ _______ _____ _____    ______ ____
ROOT
ATOM      1  C   UNL     1       2.548   5.748  18.477  0.00  0.00    +0.000 A 
ATOM      2  C   UNL     1       2.185   4.676  19.331  0.00  0.00    +0.000 A 
ATOM      3  C   UNL     1       1.405   5.000  20.461  0.00  0.00    +0.000 A 
ATOM      4  C   UNL     1       1.082   6.319  20.783  0.00  0.00    +0.000 A 
ATOM      5  C   UNL     1       1.503   7.379  19.976  0.00  0.00    +0.000 A 
ATOM      6  C   UNL     1       1.190   8.699  20.342  0.00  0.00    +0.000 A 
ATOM      7  C   UNL     1       1.572   9.776  19.545  0.00  0.00    +0.000 A 
ATOM      8  C   UNL     1       2.259   9.541  18.364  0.00  0.00    +0.000 A 
ATOM      9  C   UNL     1       2.576   8.230  17.993  0.00  0.00    +0.000 A 
ATOM     10  C   UNL     1       2.231   7.114  18.796  0.00  0.00    +0.000 A 
ENDROOT
BRANCH   1  13
ATOM     11  O   UNL     1       5.301   6.085  18.345  0.00  0.00    +0.000 OA
ATOM     12  C   UNL     1       4.709   5.628  17.374  0.00  0.00    +0.000 C 
ATOM     13  N   UNL     1       3.316   5.504  17.309  0.00  0.00    +0.000 N 
ATOM     14  H   UNL     1       3.038   4.683  16.786  0.00  0.00    +0.000 HD
BRANCH  12  15
ATOM     15  C   UNL     1       5.481   5.261  16.144  0.00  0.00    +0.000 A 
ATOM     16  C   UNL     1       4.816   4.412  15.242  0.00  0.00    +0.000 A 
ATOM     17  C   UNL     1       5.452   3.941  14.084  0.00  0.00    +0.000 A 
ATOM     18  C   UNL     1       6.764   4.313  13.816  0.00  0.00    +0.000 A 
ATOM     19  C   UNL     1       7.432   5.172  14.683  0.00  0.00    +0.000 A 
ATOM     20  C   UNL     1       6.798   5.654  15.840  0.00  0.00    +0.000 A 
ATOM     21 CL   UNL     1       7.722   6.753  16.808  0.00  0.00    +0.000 Cl
ENDBRANCH  12  15
ENDBRANCH   1  13
BRANCH   2  22
ATOM     22  C   UNL     1       2.646   3.186  19.190  0.00  0.00    +0.000 C 
BRANCH  22  23
ATOM     23  C   UNL     1       3.861   2.905  20.138  0.00  0.00    +0.000 C 
ATOM     24  F   UNL     1       3.478   2.703  21.429  0.00  0.00    +0.000 F 
ATOM     25  F   UNL     1       4.623   1.840  19.821  0.00  0.00    +0.000 F 
ATOM     26  F   UNL     1       4.702   3.975  20.197  0.00  0.00    +0.000 F 
ENDBRANCH  22  23
BRANCH  22  27
ATOM     27  C   UNL     1       1.485   2.207  19.519  0.00  0.00    +0.000 C 
ATOM     28  F   UNL     1       0.384   2.425  18.757  0.00  0.00    +0.000 F 
ATOM     29  F   UNL     1       1.846   0.916  19.280  0.00  0.00    +0.000 F 
ATOM     30  F   UNL     1       1.058   2.230  20.798  0.00  0.00    +0.000 F 
ENDBRANCH  22  27
BRANCH  22  31
ATOM     31  O   UNL     1       3.121   2.879  17.834  0.00  0.00    +0.000 OA
ATOM     32  H   UNL     1       4.030   3.207  17.760  0.00  0.00    +0.000 HD
ENDBRANCH  22  31
ENDBRANCH   2  22
TORSDOF 6
ENDMDL
MODEL 9
REMARK VINA RESULT:      -7.8      2.500      5.548
REMARK  Name = 
REMARK  6 active torsions:
REMARK  status: ('A' for Active; 'I' for Inactive)
REMARK    1  A    between atoms: C_2  and  C_24
REMARK    2  A    between atoms: N_3  and  C_4
REMARK    3  A    between atoms: C_5  and  C_6
REMARK    4  A    between atoms: C_6  and  O_7
REMARK    5  A    between atoms: C_6  and  C_8
REMARK    6  A    between atoms: C_6  and  C_12
REMARK                            x       y       z     vdW  Elec       q    Type
REMARK                         _______ _______ _______ _____ _____    ______ ____
ROOT
ATOM      1  C   UNL     1       3.546   5.626  18.774  0.00  0.00    +0.000 A 
ATOM      2  C   UNL     1       3.228   4.366  19.341  0.00  0.00    +0.000 A 
ATOM      3  C   UNL     1       4.294   3.454  19.497  0.00  0.00    +0.000 A 
ATOM      4  C   UNL     1       5.580   3.733  19.034  0.00  0.00    +0.000 A 
ATOM      5  C   UNL     1       5.871   4.949  18.411  0.00  0.00    +0.000 A 
ATOM      6  C   UNL     1       7.168   5.189  17.926  0.00  0.00    +0.000 A 
ATOM      7  C   UNL     1       7.497   6.402  17.325  0.00  0.00    +0.000 A 
ATOM      8  C   UNL     1       6.535   7.394  17.217  0.00  0.00    +0.000 A 
ATOM      9  C   UNL     1       5.241   7.162  17.696  0.00  0.00    +0.000 A 
ATOM     10  C   UNL     1       4.863   5.929  18.284  0.00  0.00    +0.000 A 
ENDROOT
BRANCH   1  13
ATOM     11  O   UNL     1       2.655   7.297  20.804  0.00  0.00    +0.000 OA
ATOM     12  C   UNL     1       2.218   7.452  19.669  0.00  0.00    +0.000 C 
ATOM     13  N   UNL     1       2.536   6.608  18.600  0.00  0.00    +0.000 N 
ATOM     14  H   UNL     1       2.588   7.116  17.725  0.00  0.00    +0.000 HD
BRANCH  12  15
ATOM     15  C   UNL     1       1.220   8.538  19.405  0.00  0.00    +0.000 A 
ATOM     16  C   UNL     1       1.178   9.013  18.082  0.00  0.00    +0.000 A 
ATOM     17  C   UNL     1       0.335  10.072  17.717  0.00  0.00    +0.000 A 
ATOM     18  C   UNL     1      -0.478  10.670  18.673  0.00  0.00    +0.000 A 
ATOM     19  C   UNL     1      -0.470  10.199  19.982  0.00  0.00    +0.000 A 
ATOM     20  C   UNL     1       0.367   9.133  20.353  0.00  0.00    +0.000 A 
ATOM     21 CL   UNL     1       0.245   8.612  21.999  0.00  0.00    +0.000 Cl
ENDBRANCH  12  15
ENDBRANCH   1  13
BRANCH   2  22
ATOM     22  C   UNL     1       1.797   3.858  19.719  0.00  0.00    +0.000 C 
BRANCH  22  23
ATOM     23  C   UNL     1       1.106   3.210  18.472  0.00  0.00    +0.000 C 
ATOM     24  F   UNL     1       1.949   2.401  17.772  0.00  0.00    +0.000 F 
ATOM     25  F   UNL     1       0.017   2.458  18.724  0.00  0.00    +0.000 F 
ATOM     26  F   UNL     1       0.720   4.155  17.571  0.00  0.00    +0.000 F 
ENDBRANCH  22  23
BRANCH  22  27
ATOM     27  C   UNL     1       1.858   2.828  20.882  0.00  0.00    +0.000 C 
ATOM     28  F   UNL     1       0.676   2.704  21.535  0.00  0.00    +0.000 F 
ATOM     29  F   UNL     1       2.154   1.581  20.421  0.00  0.00    +0.000 F 
ATOM     30  F   UNL     1       2.779   3.088  21.832  0.00  0.00    +0.000 F 
ENDBRANCH  22  27
BRANCH  22  31
ATOM     31  O   UNL     1       0.912   4.954  20.137  0.00  0.00    +0.000 OA
ATOM     32  H   UNL     1       0.577   4.741  21.021  0.00  0.00    +0.000 HD
ENDBRANCH  22  31
ENDBRANCH   2  22
TORSDOF 6
ENDMDL
