MODEL 1
REMARK VINA RESULT:      -7.0      0.000      0.000
REMARK  Name = 
REMARK  6 active torsions:
REMARK  status: ('A' for Active; 'I' for Inactive)
REMARK    1  A    between atoms: C_1  and  C_2
REMARK    2  A    between atoms: C_2  and  N_3
REMARK    3  A    between atoms: C_7  and  C_8
REMARK    4  A    between atoms: C_8  and  N_9
REMARK    5  A    between atoms: C_14  and  C_16
REMARK    6  A    between atoms: C_19  and  C_20
REMARK                            x       y       z     vdW  Elec       q    Type
REMARK                         _______ _______ _______ _____ _____    ______ ____
ROOT
ATOM      1  N   UNL     1       1.643   6.443  19.989  0.00  0.00    +0.000 NA
ATOM      2  C   UNL     1       2.073   5.399  20.921  0.00  0.00    +0.000 C 
ATOM      3  C   UNL     1       1.504   3.990  20.763  0.00  0.00    +0.000 C 
ATOM      4  C   UNL     1       1.827   3.196  19.505  0.00  0.00    +0.000 C 
ATOM      5  N   UNL     1       2.724   3.853  18.566  0.00  0.00    +0.000 N 
ATOM      6  C   UNL     1       3.970   3.256  18.316  0.00  0.00    +0.000 C 
ATOM      7  O   UNL     1       4.326   2.230  18.900  0.00  0.00    +0.000 OA
ATOM      8  C   UNL     1       2.115   4.990  17.868  0.00  0.00    +0.000 C 
ATOM      9  C   UNL     1       2.206   6.331  18.629  0.00  0.00    +0.000 C 
ENDROOT
BRANCH   6  10
ATOM     10  C   UNL     1       4.928   3.786  17.296  0.00  0.00    +0.000 A 
ATOM     11  C   UNL     1       6.147   4.383  17.620  0.00  0.00    +0.000 A 
ATOM     12  C   UNL     1       6.992   4.896  16.632  0.00  0.00    +0.000 A 
ATOM     13  C   UNL     1       6.667   4.741  15.285  0.00  0.00    +0.000 A 
ATOM     14  C   UNL     1       5.496   4.063  14.938  0.00  0.00    +0.000 A 
ATOM     15  C   UNL     1       4.631   3.594  15.937  0.00  0.00    +0.000 A 
BRANCH  13  16
ATOM     16  C   UNL     1       7.545   5.254  14.276  0.00  0.00    +0.000 C 
ATOM     17  N   UNL     1       8.273   5.682  13.479  0.00  0.00    +0.000 NA
ENDBRANCH  13  16
ENDBRANCH   6  10
BRANCH   1  18
ATOM     18  C   UNL     1       1.964   7.801  20.544  0.00  0.00    +0.000 C 
BRANCH  18  23
ATOM     19  N   UNL     1      -0.074   9.373  20.825  0.00  0.00    +0.000 N 
ATOM     20  C   UNL     1      -0.636  10.396  20.111  0.00  0.00    +0.000 A 
ATOM     21  C   UNL     1       0.158  10.563  19.007  0.00  0.00    +0.000 A 
ATOM     22  N   UNL     1       1.202   9.673  19.038  0.00  0.00    +0.000 NA
ATOM     23  C   UNL     1       1.055   8.957  20.146  0.00  0.00    +0.000 A 
BRANCH  19  25
ATOM     24  C   UNL     1       0.071   9.523  23.293  0.00  0.00    +0.000 C 
ATOM     25  C   UNL     1      -0.612   8.905  22.085  0.00  0.00    +0.000 C 
ENDBRANCH  19  25
ENDBRANCH  18  23
ENDBRANCH   1  18
TORSDOF 5
ENDMDL
MODEL 2
REMARK VINA RESULT:      -6.9      0.310      1.010
REMARK  Name = 
REMARK  6 active torsions:
REMARK  status: ('A' for Active; 'I' for Inactive)
REMARK    1  A    between atoms: C_1  and  C_2
REMARK    2  A    between atoms: C_2  and  N_3
REMARK    3  A    between atoms: C_7  and  C_8
REMARK    4  A    between atoms: C_8  and  N_9
REMARK    5  A    between atoms: C_14  and  C_16
REMARK    6  A    between atoms: C_19  and  C_20
REMARK                            x       y       z     vdW  Elec       q    Type
REMARK                         _______ _______ _______ _____ _____    ______ ____
ROOT
ATOM      1  N   UNL     1       1.631   6.454  20.029  0.00  0.00    +0.000 NA
ATOM      2  C   UNL     1       2.084   5.417  20.958  0.00  0.00    +0.000 C 
ATOM      3  C   UNL     1       1.503   4.010  20.832  0.00  0.00    +0.000 C 
ATOM      4  C   UNL     1       1.784   3.201  19.574  0.00  0.00    +0.000 C 
ATOM      5  N   UNL     1       2.656   3.843  18.602  0.00  0.00    +0.000 N 
ATOM      6  C   UNL     1       3.891   3.237  18.321  0.00  0.00    +0.000 C 
ATOM      7  O   UNL     1       4.259   2.215  18.905  0.00  0.00    +0.000 OA
ATOM      8  C   UNL     1       2.033   4.976  17.910  0.00  0.00    +0.000 C 
ATOM      9  C   UNL     1       2.153   6.324  18.654  0.00  0.00    +0.000 C 
ENDROOT
BRANCH   6  10
ATOM     10  C   UNL     1       4.821   3.751  17.268  0.00  0.00    +0.000 A 
ATOM     11  C   UNL     1       4.557   3.671  15.900  0.00  0.00    +0.000 A 
ATOM     12  C   UNL     1       5.474   4.132  14.952  0.00  0.00    +0.000 A 
ATOM     13  C   UNL     1       6.646   4.765  15.365  0.00  0.00    +0.000 A 
ATOM     14  C   UNL     1       6.886   4.938  16.730  0.00  0.00    +0.000 A 
ATOM     15  C   UNL     1       5.982   4.429  17.674  0.00  0.00    +0.000 A 
BRANCH  13  16
ATOM     16  C   UNL     1       7.576   5.251  14.389  0.00  0.00    +0.000 C 
ATOM     17  N   UNL     1       8.329   5.670  13.612  0.00  0.00    +0.000 NA
ENDBRANCH  13  16
ENDBRANCH   6  10
BRANCH   1  18
ATOM     18  C   UNL     1       1.976   7.815  20.559  0.00  0.00    +0.000 C 
BRANCH  18  23
ATOM     19  N   UNL     1       0.074   9.510  21.025  0.00  0.00    +0.000 N 
ATOM     20  C   UNL     1      -0.582  10.477  20.312  0.00  0.00    +0.000 A 
ATOM     21  C   UNL     1      -0.004  10.484  19.070  0.00  0.00    +0.000 A 
ATOM     22  N   UNL     1       1.001   9.550  19.012  0.00  0.00    +0.000 NA
ATOM     23  C   UNL     1       1.042   8.966  20.203  0.00  0.00    +0.000 A 
BRANCH  19  25
ATOM     24  C   UNL     1      -0.893  10.363  23.139  0.00  0.00    +0.000 C 
ATOM     25  C   UNL     1      -0.231   9.209  22.408  0.00  0.00    +0.000 C 
ENDBRANCH  19  25
ENDBRANCH  18  23
ENDBRANCH   1  18
TORSDOF 5
ENDMDL
MODEL 3
REMARK VINA RESULT:      -6.8      0.596      1.641
REMARK  Name = 
REMARK  6 active torsions:
REMARK  status: ('A' for Active; 'I' for Inactive)
REMARK    1  A    between atoms: C_1  and  C_2
REMARK    2  A    between atoms: C_2  and  N_3
REMARK    3  A    between atoms: C_7  and  C_8
REMARK    4  A    between atoms: C_8  and  N_9
REMARK    5  A    between atoms: C_14  and  C_16
REMARK    6  A    between atoms: C_19  and  C_20
REMARK                            x       y       z     vdW  Elec       q    Type
REMARK                         _______ _______ _______ _____ _____    ______ ____
ROOT
ATOM      1  N   UNL     1       1.709   6.618  20.027  0.00  0.00    +0.000 NA
ATOM      2  C   UNL     1       2.077   5.525  20.929  0.00  0.00    +0.000 C 
ATOM      3  C   UNL     1       1.433   4.155  20.729  0.00  0.00    +0.000 C 
ATOM      4  C   UNL     1       1.719   3.381  19.450  0.00  0.00    +0.000 C 
ATOM      5  N   UNL     1       2.655   4.015  18.533  0.00  0.00    +0.000 N 
ATOM      6  C   UNL     1       3.868   3.359  18.270  0.00  0.00    +0.000 C 
ATOM      7  O   UNL     1       4.164   2.298  18.825  0.00  0.00    +0.000 OA
ATOM      8  C   UNL     1       2.112   5.203  17.866  0.00  0.00    +0.000 C 
ATOM      9  C   UNL     1       2.272   6.514  18.666  0.00  0.00    +0.000 C 
ENDROOT
BRANCH   6  10
ATOM     10  C   UNL     1       4.858   3.864  17.269  0.00  0.00    +0.000 A 
ATOM     11  C   UNL     1       6.081   4.438  17.617  0.00  0.00    +0.000 A 
ATOM     12  C   UNL     1       6.959   4.929  16.646  0.00  0.00    +0.000 A 
ATOM     13  C   UNL     1       6.660   4.775  15.293  0.00  0.00    +0.000 A 
ATOM     14  C   UNL     1       5.483   4.119  14.922  0.00  0.00    +0.000 A 
ATOM     15  C   UNL     1       4.587   3.673  15.905  0.00  0.00    +0.000 A 
BRANCH  13  16
ATOM     16  C   UNL     1       7.569   5.265  14.301  0.00  0.00    +0.000 C 
ATOM     17  N   UNL     1       8.287   5.684  13.490  0.00  0.00    +0.000 NA
ENDBRANCH  13  16
ENDBRANCH   6  10
BRANCH   1  18
ATOM     18  C   UNL     1       2.101   7.940  20.622  0.00  0.00    +0.000 C 
BRANCH  18  23
ATOM     19  N   UNL     1       0.358   9.815  20.230  0.00  0.00    +0.000 N 
ATOM     20  C   UNL     1      -0.546  10.497  20.998  0.00  0.00    +0.000 A 
ATOM     21  C   UNL     1      -0.438   9.972  22.259  0.00  0.00    +0.000 A 
ATOM     22  N   UNL     1       0.504   8.974  22.275  0.00  0.00    +0.000 NA
ATOM     23  C   UNL     1       0.980   8.884  21.040  0.00  0.00    +0.000 A 
BRANCH  19  25
ATOM     24  C   UNL     1      -0.781  10.190  18.063  0.00  0.00    +0.000 C 
ATOM     25  C   UNL     1       0.533  10.062  18.814  0.00  0.00    +0.000 C 
ENDBRANCH  19  25
ENDBRANCH  18  23
ENDBRANCH   1  18
TORSDOF 5
ENDMDL
MODEL 4
REMARK VINA RESULT:      -6.7      0.641      1.897
REMARK  Name = 
REMARK  6 active torsions:
REMARK  status: ('A' for Active; 'I' for Inactive)
REMARK    1  A    between atoms: C_1  and  C_2
REMARK    2  A    between atoms: C_2  and  N_3
REMARK    3  A    between atoms: C_7  and  C_8
REMARK    4  A    between atoms: C_8  and  N_9
REMARK    5  A    between atoms: C_14  and  C_16
REMARK    6  A    between atoms: C_19  and  C_20
REMARK                            x       y       z     vdW  Elec       q    Type
REMARK                         _______ _______ _______ _____ _____    ______ ____
ROOT
ATOM      1  N   UNL     1       1.719   6.429  20.023  0.00  0.00    +0.000 NA
ATOM      2  C   UNL     1       2.134   5.333  20.899  0.00  0.00    +0.000 C 
ATOM      3  C   UNL     1       1.497   3.958  20.711  0.00  0.00    +0.000 C 
ATOM      4  C   UNL     1       1.738   3.199  19.414  0.00  0.00    +0.000 C 
ATOM      5  N   UNL     1       2.629   3.851  18.467  0.00  0.00    +0.000 N 
ATOM      6  C   UNL     1       3.837   3.210  18.148  0.00  0.00    +0.000 C 
ATOM      7  O   UNL     1       4.167   2.147  18.681  0.00  0.00    +0.000 OA
ATOM      8  C   UNL     1       2.048   5.039  17.834  0.00  0.00    +0.000 C 
ATOM      9  C   UNL     1       2.227   6.345  18.639  0.00  0.00    +0.000 C 
ENDROOT
BRANCH   6  10
ATOM     10  C   UNL     1       4.781   3.735  17.113  0.00  0.00    +0.000 A 
ATOM     11  C   UNL     1       4.541   3.659  15.741  0.00  0.00    +0.000 A 
ATOM     12  C   UNL     1       5.471   4.132  14.811  0.00  0.00    +0.000 A 
ATOM     13  C   UNL     1       6.631   4.772  15.246  0.00  0.00    +0.000 A 
ATOM     14  C   UNL     1       6.845   4.941  16.616  0.00  0.00    +0.000 A 
ATOM     15  C   UNL     1       5.929   4.421  17.542  0.00  0.00    +0.000 A 
BRANCH  13  16
ATOM     16  C   UNL     1       7.573   5.269  14.289  0.00  0.00    +0.000 C 
ATOM     17  N   UNL     1       8.317   5.669  13.492  0.00  0.00    +0.000 NA
ENDBRANCH  13  16
ENDBRANCH   6  10
BRANCH   1  18
ATOM     18  C   UNL     1       2.121   7.750  20.614  0.00  0.00    +0.000 C 
BRANCH  18  23
ATOM     19  N   UNL     1       0.422   9.618  20.040  0.00  0.00    +0.000 N 
ATOM     20  C   UNL     1      -0.481  10.377  20.734  0.00  0.00    +0.000 A 
ATOM     21  C   UNL     1      -0.404   9.955  22.035  0.00  0.00    +0.000 A 
ATOM     22  N   UNL     1       0.518   8.944  22.149  0.00  0.00    +0.000 NA
ATOM     23  C   UNL     1       1.012   8.745  20.934  0.00  0.00    +0.000 A 
BRANCH  19  25
ATOM     24  C   UNL     1       1.822  10.607  18.253  0.00  0.00    +0.000 C 
ATOM     25  C   UNL     1       0.625   9.746  18.612  0.00  0.00    +0.000 C 
ENDBRANCH  19  25
ENDBRANCH  18  23
ENDBRANCH   1  18
TORSDOF 5
ENDMDL
MODEL 5
REMARK VINA RESULT:      -6.7      2.065      8.080
REMARK  Name = 
REMARK  6 active torsions:
REMARK  status: ('A' for Active; 'I' for Inactive)
REMARK    1  A    between atoms: C_1  and  C_2
REMARK    2  A    between atoms: C_2  and  N_3
REMARK    3  A    between atoms: C_7  and  C_8
REMARK    4  A    between atoms: C_8  and  N_9
REMARK    5  A    between atoms: C_14  and  C_16
REMARK    6  A    between atoms: C_19  and  C_20
REMARK                            x       y       z     vdW  Elec       q    Type
REMARK                         _______ _______ _______ _____ _____    ______ ____
ROOT
ATOM      1  N   UNL     1       5.012   4.218  16.432  0.00  0.00    +0.000 NA
ATOM      2  C   UNL     1       4.172   3.249  17.139  0.00  0.00    +0.000 C 
ATOM      3  C   UNL     1       4.530   2.873  18.575  0.00  0.00    +0.000 C 
ATOM      4  C   UNL     1       4.457   3.938  19.661  0.00  0.00    +0.000 C 
ATOM      5  N   UNL     1       3.984   5.242  19.224  0.00  0.00    +0.000 N 
ATOM      6  C   UNL     1       2.783   5.725  19.768  0.00  0.00    +0.000 C 
ATOM      7  O   UNL     1       2.115   5.055  20.560  0.00  0.00    +0.000 OA
ATOM      8  C   UNL     1       4.940   5.963  18.378  0.00  0.00    +0.000 C 
ATOM      9  C   UNL     1       4.852   5.617  16.875  0.00  0.00    +0.000 C 
ENDROOT
BRANCH   6  10
ATOM     10  C   UNL     1       2.254   7.092  19.471  0.00  0.00    +0.000 A 
ATOM     11  C   UNL     1       2.235   7.651  18.193  0.00  0.00    +0.000 A 
ATOM     12  C   UNL     1       1.764   8.949  17.971  0.00  0.00    +0.000 A 
ATOM     13  C   UNL     1       1.220   9.683  19.024  0.00  0.00    +0.000 A 
ATOM     14  C   UNL     1       1.144   9.106  20.294  0.00  0.00    +0.000 A 
ATOM     15  C   UNL     1       1.663   7.822  20.516  0.00  0.00    +0.000 A 
BRANCH  13  16
ATOM     16  C   UNL     1       0.724  11.006  18.788  0.00  0.00    +0.000 C 
ATOM     17  N   UNL     1       0.314  12.071  18.571  0.00  0.00    +0.000 NA
ENDBRANCH  13  16
ENDBRANCH   6  10
BRANCH   1  18
ATOM     18  C   UNL     1       4.768   4.139  14.953  0.00  0.00    +0.000 C 
BRANCH  18  23
ATOM     19  N   UNL     1       6.198   3.793  12.822  0.00  0.00    +0.000 N 
ATOM     20  C   UNL     1       7.380   4.283  12.337  0.00  0.00    +0.000 A 
ATOM     21  C   UNL     1       7.824   5.182  13.271  0.00  0.00    +0.000 A 
ATOM     22  N   UNL     1       6.931   5.262  14.310  0.00  0.00    +0.000 NA
ATOM     23  C   UNL     1       5.947   4.418  14.029  0.00  0.00    +0.000 A 
BRANCH  19  25
ATOM     24  C   UNL     1       4.212   3.443  11.385  0.00  0.00    +0.000 C 
ATOM     25  C   UNL     1       5.395   2.823  12.106  0.00  0.00    +0.000 C 
ENDBRANCH  19  25
ENDBRANCH  18  23
ENDBRANCH   1  18
TORSDOF 5
ENDMDL
MODEL 6
REMARK VINA RESULT:      -6.3      1.332      2.018
REMARK  Name = 
REMARK  6 active torsions:
REMARK  status: ('A' for Active; 'I' for Inactive)
REMARK    1  A    between atoms: C_1  and  C_2
REMARK    2  A    between atoms: C_2  and  N_3
REMARK    3  A    between atoms: C_7  and  C_8
REMARK    4  A    between atoms: C_8  and  N_9
REMARK    5  A    between atoms: C_14  and  C_16
REMARK    6  A    between atoms: C_19  and  C_20
REMARK                            x       y       z     vdW  Elec       q    Type
REMARK                         _______ _______ _______ _____ _____    ______ ____
ROOT
ATOM      1  N   UNL     1       1.571   7.938  19.334  0.00  0.00    +0.000 NA
ATOM      2  C   UNL     1       2.087   7.292  20.543  0.00  0.00    +0.000 C 
ATOM      3  C   UNL     1       1.625   5.875  20.874  0.00  0.00    +0.000 C 
ATOM      4  C   UNL     1       1.997   4.734  19.938  0.00  0.00    +0.000 C 
ATOM      5  N   UNL     1       2.834   5.105  18.806  0.00  0.00    +0.000 N 
ATOM      6  C   UNL     1       4.120   4.547  18.726  0.00  0.00    +0.000 C 
ATOM      7  O   UNL     1       4.558   3.797  19.603  0.00  0.00    +0.000 OA
ATOM      8  C   UNL     1       2.136   5.903  17.794  0.00  0.00    +0.000 C 
ATOM      9  C   UNL     1       2.130   7.422  18.069  0.00  0.00    +0.000 C 
ENDROOT
BRANCH   6  10
ATOM     10  C   UNL     1       5.027   4.775  17.558  0.00  0.00    +0.000 A 
ATOM     11  C   UNL     1       6.113   5.651  17.585  0.00  0.00    +0.000 A 
ATOM     12  C   UNL     1       6.910   5.857  16.455  0.00  0.00    +0.000 A 
ATOM     13  C   UNL     1       6.683   5.119  15.295  0.00  0.00    +0.000 A 
ATOM     14  C   UNL     1       5.659   4.169  15.279  0.00  0.00    +0.000 A 
ATOM     15  C   UNL     1       4.834   4.003  16.401  0.00  0.00    +0.000 A 
BRANCH  13  16
ATOM     16  C   UNL     1       7.513   5.322  14.146  0.00  0.00    +0.000 C 
ATOM     17  N   UNL     1       8.210   5.482  13.230  0.00  0.00    +0.000 NA
ENDBRANCH  13  16
ENDBRANCH   6  10
BRANCH   1  18
ATOM     18  C   UNL     1       1.793   9.422  19.401  0.00  0.00    +0.000 C 
BRANCH  18  23
ATOM     19  N   UNL     1      -0.457  10.685  19.621  0.00  0.00    +0.000 N 
ATOM     20  C   UNL     1      -1.067  11.454  20.575  0.00  0.00    +0.000 A 
ATOM     21  C   UNL     1      -0.206  11.485  21.639  0.00  0.00    +0.000 A 
ATOM     22  N   UNL     1       0.913  10.739  21.362  0.00  0.00    +0.000 NA
ATOM     23  C   UNL     1       0.751  10.256  20.137  0.00  0.00    +0.000 A 
BRANCH  19  25
ATOM     24  C   UNL     1      -2.475  10.938  18.208  0.00  0.00    +0.000 C 
ATOM     25  C   UNL     1      -1.066  10.389  18.341  0.00  0.00    +0.000 C 
ENDBRANCH  19  25
ENDBRANCH  18  23
ENDBRANCH   1  18
TORSDOF 5
ENDMDL
MODEL 7
REMARK VINA RESULT:      -6.2      3.625      8.198
REMARK  Name = 
REMARK  6 active torsions:
REMARK  status: ('A' for Active; 'I' for Inactive)
REMARK    1  A    between atoms: C_1  and  C_2
REMARK    2  A    between atoms: C_2  and  N_3
REMARK    3  A    between atoms: C_7  and  C_8
REMARK    4  A    between atoms: C_8  and  N_9
REMARK    5  A    between atoms: C_14  and  C_16
REMARK    6  A    between atoms: C_19  and  C_20
REMARK                            x       y       z     vdW  Elec       q    Type
REMARK                         _______ _______ _______ _____ _____    ______ ____
ROOT
ATOM      1  N   UNL     1       1.910   7.913  20.203  0.00  0.00    +0.000 NA
ATOM      2  C   UNL     1       1.093   8.261  21.368  0.00  0.00    +0.000 C 
ATOM      3  C   UNL     1       1.236   9.653  21.979  0.00  0.00    +0.000 C 
ATOM      4  C   UNL     1       0.832  10.869  21.158  0.00  0.00    +0.000 C 
ATOM      5  N   UNL     1       0.276  10.579  19.845  0.00  0.00    +0.000 N 
ATOM      6  C   UNL     1      -1.056  10.947  19.596  0.00  0.00    +0.000 C 
ATOM      7  O   UNL     1      -1.759  11.463  20.468  0.00  0.00    +0.000 OA
ATOM      8  C   UNL     1       1.264  10.076  18.885  0.00  0.00    +0.000 C 
ATOM      9  C   UNL     1       1.490   8.550  18.939  0.00  0.00    +0.000 C 
ENDROOT
BRANCH   6  10
ATOM     10  C   UNL     1      -1.699  10.791  18.254  0.00  0.00    +0.000 A 
ATOM     11  C   UNL     1      -1.857  11.840  17.348  0.00  0.00    +0.000 A 
ATOM     12  C   UNL     1      -2.498  11.652  16.120  0.00  0.00    +0.000 A 
ATOM     13  C   UNL     1      -2.919  10.379  15.740  0.00  0.00    +0.000 A 
ATOM     14  C   UNL     1      -2.687   9.298  16.594  0.00  0.00    +0.000 A 
ATOM     15  C   UNL     1      -2.086   9.505  17.844  0.00  0.00    +0.000 A 
BRANCH  13  16
ATOM     16  C   UNL     1      -3.561  10.188  14.474  0.00  0.00    +0.000 C 
ATOM     17  N   UNL     1      -4.107  10.032  13.461  0.00  0.00    +0.000 NA
ENDBRANCH  13  16
ENDBRANCH   6  10
BRANCH   1  18
ATOM     18  C   UNL     1       1.944   6.424  20.017  0.00  0.00    +0.000 C 
BRANCH  18  23
ATOM     19  N   UNL     1       2.596   4.746  18.155  0.00  0.00    +0.000 N 
ATOM     20  C   UNL     1       3.669   4.562  17.326  0.00  0.00    +0.000 A 
ATOM     21  C   UNL     1       4.547   5.572  17.617  0.00  0.00    +0.000 A 
ATOM     22  N   UNL     1       4.027   6.380  18.598  0.00  0.00    +0.000 NA
ATOM     23  C   UNL     1       2.843   5.873  18.916  0.00  0.00    +0.000 A 
BRANCH  19  25
ATOM     24  C   UNL     1       1.771   2.415  18.271  0.00  0.00    +0.000 C 
ATOM     25  C   UNL     1       1.431   3.888  18.136  0.00  0.00    +0.000 C 
ENDBRANCH  19  25
ENDBRANCH  18  23
ENDBRANCH   1  18
TORSDOF 5
ENDMDL
MODEL 8
REMARK VINA RESULT:      -6.1      1.213      1.703
REMARK  Name = 
REMARK  6 active torsions:
REMARK  status: ('A' for Active; 'I' for Inactive)
REMARK    1  A    between atoms: C_1  and  C_2
REMARK    2  A    between atoms: C_2  and  N_3
REMARK    3  A    between atoms: C_7  and  C_8
REMARK    4  A    between atoms: C_8  and  N_9
REMARK    5  A    between atoms: C_14  and  C_16
REMARK    6  A    between atoms: C_19  and  C_20
REMARK                            x       y       z     vdW  Elec       q    Type
REMARK                         _______ _______ _______ _____ _____    ______ ____
ROOT
ATOM      1  N   UNL     1       1.445   8.060  19.297  0.00  0.00    +0.000 NA
ATOM      2  C   UNL     1       1.983   7.464  20.521  0.00  0.00    +0.000 C 
ATOM      3  C   UNL     1       1.508   6.072  20.932  0.00  0.00    +0.000 C 
ATOM      4  C   UNL     1       1.837   4.882  20.042  0.00  0.00    +0.000 C 
ATOM      5  N   UNL     1       2.649   5.184  18.873  0.00  0.00    +0.000 N 
ATOM      6  C   UNL     1       3.923   4.601  18.785  0.00  0.00    +0.000 C 
ATOM      7  O   UNL     1       4.372   3.887  19.686  0.00  0.00    +0.000 OA
ATOM      8  C   UNL     1       1.936   5.944  17.842  0.00  0.00    +0.000 C 
ATOM      9  C   UNL     1       1.961   7.475  18.043  0.00  0.00    +0.000 C 
ENDROOT
BRANCH   6  10
ATOM     10  C   UNL     1       4.801   4.757  17.585  0.00  0.00    +0.000 A 
ATOM     11  C   UNL     1       4.719   3.940  16.457  0.00  0.00    +0.000 A 
ATOM     12  C   UNL     1       5.587   4.103  15.374  0.00  0.00    +0.000 A 
ATOM     13  C   UNL     1       6.506   5.152  15.366  0.00  0.00    +0.000 A 
ATOM     14  C   UNL     1       6.541   6.038  16.446  0.00  0.00    +0.000 A 
ATOM     15  C   UNL     1       5.698   5.838  17.549  0.00  0.00    +0.000 A 
BRANCH  13  16
ATOM     16  C   UNL     1       7.382   5.324  14.247  0.00  0.00    +0.000 C 
ATOM     17  N   UNL     1       8.110   5.482  13.356  0.00  0.00    +0.000 NA
ENDBRANCH  13  16
ENDBRANCH   6  10
BRANCH   1  18
ATOM     18  C   UNL     1       1.691   9.541  19.287  0.00  0.00    +0.000 C 
BRANCH  18  23
ATOM     19  N   UNL     1      -0.176  10.648  20.699  0.00  0.00    +0.000 N 
ATOM     20  C   UNL     1      -1.224  11.494  20.458  0.00  0.00    +0.000 A 
ATOM     21  C   UNL     1      -1.174  11.781  19.119  0.00  0.00    +0.000 A 
ATOM     22  N   UNL     1      -0.109  11.139  18.539  0.00  0.00    +0.000 NA
ATOM     23  C   UNL     1       0.492  10.456  19.505  0.00  0.00    +0.000 A 
BRANCH  19  25
ATOM     24  C   UNL     1      -0.921  10.477  23.054  0.00  0.00    +0.000 C 
ATOM     25  C   UNL     1       0.131  10.130  22.016  0.00  0.00    +0.000 C 
ENDBRANCH  19  25
ENDBRANCH  18  23
ENDBRANCH   1  18
TORSDOF 5
ENDMDL
MODEL 9
REMARK VINA RESULT:      -6.1      3.565      8.146
REMARK  Name = 
REMARK  6 active torsions:
REMARK  status: ('A' for Active; 'I' for Inactive)
REMARK    1  A    between atoms: C_1  and  C_2
REMARK    2  A    between atoms: C_2  and  N_3
REMARK    3  A    between atoms: C_7  and  C_8
REMARK    4  A    between atoms: C_8  and  N_9
REMARK    5  A    between atoms: C_14  and  C_16
REMARK    6  A    between atoms: C_19  and  C_20
REMARK                            x       y       z     vdW  Elec       q    Type
REMARK                         _______ _______ _______ _____ _____    ______ ____
ROOT
ATOM      1  N   UNL     1       1.888   7.666  20.262  0.00  0.00    +0.000 NA
ATOM      2  C   UNL     1       1.125   8.071  21.444  0.00  0.00    +0.000 C 
ATOM      3  C   UNL     1       1.362   9.460  22.034  0.00  0.00    +0.000 C 
ATOM      4  C   UNL     1       1.002  10.687  21.209  0.00  0.00    +0.000 C 
ATOM      5  N   UNL     1       0.393  10.413  19.916  0.00  0.00    +0.000 N 
ATOM      6  C   UNL     1      -0.923  10.851  19.699  0.00  0.00    +0.000 C 
ATOM      7  O   UNL     1      -1.572  11.416  20.584  0.00  0.00    +0.000 OA
ATOM      8  C   UNL     1       1.324   9.846  18.935  0.00  0.00    +0.000 C 
ATOM      9  C   UNL     1       1.468   8.310  19.002  0.00  0.00    +0.000 C 
ENDROOT
BRANCH   6  10
ATOM     10  C   UNL     1      -1.612  10.716  18.379  0.00  0.00    +0.000 A 
ATOM     11  C   UNL     1      -2.527  11.648  17.887  0.00  0.00    +0.000 A 
ATOM     12  C   UNL     1      -3.173  11.458  16.662  0.00  0.00    +0.000 A 
ATOM     13  C   UNL     1      -2.846  10.365  15.862  0.00  0.00    +0.000 A 
ATOM     14  C   UNL     1      -1.864   9.469  16.294  0.00  0.00    +0.000 A 
ATOM     15  C   UNL     1      -1.257   9.642  17.546  0.00  0.00    +0.000 A 
BRANCH  13  16
ATOM     16  C   UNL     1      -3.499  10.184  14.600  0.00  0.00    +0.000 C 
ATOM     17  N   UNL     1      -4.007  10.051  13.564  0.00  0.00    +0.000 NA
ENDBRANCH  13  16
ENDBRANCH   6  10
BRANCH   1  18
ATOM     18  C   UNL     1       1.835   6.174  20.094  0.00  0.00    +0.000 C 
BRANCH  18  23
ATOM     19  N   UNL     1       3.347   4.104  19.729  0.00  0.00    +0.000 N 
ATOM     20  C   UNL     1       4.639   3.884  19.335  0.00  0.00    +0.000 A 
ATOM     21  C   UNL     1       5.168   5.120  19.075  0.00  0.00    +0.000 A 
ATOM     22  N   UNL     1       4.222   6.092  19.289  0.00  0.00    +0.000 NA
ATOM     23  C   UNL     1       3.121   5.466  19.683  0.00  0.00    +0.000 A 
BRANCH  19  25
ATOM     24  C   UNL     1       2.257   2.857  21.570  0.00  0.00    +0.000 C 
ATOM     25  C   UNL     1       2.436   3.033  20.073  0.00  0.00    +0.000 C 
ENDBRANCH  19  25
ENDBRANCH  18  23
ENDBRANCH   1  18
TORSDOF 5
ENDMDL
