MODEL 1
REMARK VINA RESULT:      -7.9      0.000      0.000
REMARK  Name = 
REMARK  15 active torsions:
REMARK  status: ('A' for Active; 'I' for Inactive)
REMARK    1  A    between atoms: C_1  and  O_2
REMARK    2  A    between atoms: O_2  and  C_3
REMARK    3  A    between atoms: C_6  and  C_7
REMARK    4  A    between atoms: C_7  and  C_8
REMARK    5  A    between atoms: C_7  and  N_15
REMARK    6  A    between atoms: C_8  and  C_9
REMARK    7  A    between atoms: N_15  and  C_16
REMARK    8  A    between atoms: C_16  and  C_17
REMARK    9  A    between atoms: C_17  and  O_18
REMARK   10  A    between atoms: C_17  and  C_19
REMARK   11  A    between atoms: C_19  and  C_20
REMARK   12  A    between atoms: C_23  and  O_24
REMARK   13  A    between atoms: C_25  and  N_26
REMARK   14  A    between atoms: N_26  and  S_27
REMARK   15  A    between atoms: S_27  and  C_28
REMARK                            x       y       z     vdW  Elec       q    Type
REMARK                         _______ _______ _______ _____ _____    ______ ____
ROOT
ATOM      1  C   UNL     1       1.479   9.036  18.488  0.00  0.00    +0.000 C 
ENDROOT
BRANCH   1   2
ATOM      2  N   UNL     1       2.241   8.420  17.403  0.00  0.00    +0.000 NA
ATOM      3  H   UNL     1       1.620   7.918  16.768  0.00  0.00    +0.000 HD
BRANCH   2   4
ATOM      4  C   UNL     1       3.323   7.491  17.818  0.00  0.00    +0.000 C 
BRANCH   4   8
ATOM      5  C   UNL     1       2.034   3.708  19.554  0.00  0.00    +0.000 A 
ATOM      6  C   UNL     1       2.948   4.527  20.216  0.00  0.00    +0.000 A 
ATOM      7  C   UNL     1       3.325   5.764  19.672  0.00  0.00    +0.000 A 
ATOM      8  C   UNL     1       2.843   6.169  18.418  0.00  0.00    +0.000 A 
ATOM      9  C   UNL     1       1.976   5.296  17.741  0.00  0.00    +0.000 A 
ATOM     10  C   UNL     1       1.541   4.102  18.317  0.00  0.00    +0.000 A 
BRANCH   5  12
ATOM     11  C   UNL     1       1.317   2.634  21.530  0.00  0.00    +0.000 C 
ATOM     12  O   UNL     1       1.734   2.526  20.172  0.00  0.00    +0.000 OA
ENDBRANCH   5  12
ENDBRANCH   4   8
BRANCH   4  13
ATOM     13  C   UNL     1       4.297   7.272  16.616  0.00  0.00    +0.000 C 
BRANCH  13  14
ATOM     14  C   UNL     1       5.384   6.252  16.876  0.00  0.00    +0.000 A 
ATOM     15  C   UNL     1       6.440   6.540  17.749  0.00  0.00    +0.000 A 
ATOM     16  C   UNL     1       7.516   5.660  17.867  0.00  0.00    +0.000 A 
ATOM     17  C   UNL     1       7.542   4.483  17.121  0.00  0.00    +0.000 A 
ATOM     18  C   UNL     1       6.476   4.166  16.283  0.00  0.00    +0.000 A 
ATOM     19  C   UNL     1       5.395   5.036  16.175  0.00  0.00    +0.000 A 
ENDBRANCH  13  14
ENDBRANCH   4  13
ENDBRANCH   2   4
ENDBRANCH   1   2
BRANCH   1  20
ATOM     20  C   UNL     1       0.830  10.398  18.173  0.00  0.00    +0.000 C 
BRANCH  20  21
ATOM     21  O   UNL     1       1.855  11.407  18.152  0.00  0.00    +0.000 OA
ATOM     22  H   UNL     1       2.459  11.220  17.415  0.00  0.00    +0.000 HD
ENDBRANCH  20  21
BRANCH  20  23
ATOM     23  C   UNL     1      -0.235  10.730  19.226  0.00  0.00    +0.000 C 
BRANCH  23  24
ATOM     24  C   UNL     1      -1.614  10.848  18.633  0.00  0.00    +0.000 A 
ATOM     25  C   UNL     1      -2.005   9.997  17.589  0.00  0.00    +0.000 A 
ATOM     26  C   UNL     1      -3.281  10.089  17.039  0.00  0.00    +0.000 A 
ATOM     27  C   UNL     1      -4.180  11.020  17.552  0.00  0.00    +0.000 A 
ATOM     28  C   UNL     1      -3.816  11.853  18.613  0.00  0.00    +0.000 A 
ATOM     29  C   UNL     1      -2.530  11.786  19.138  0.00  0.00    +0.000 A 
BRANCH  27  30
ATOM     30  O   UNL     1      -5.439  11.130  17.024  0.00  0.00    +0.000 OA
ATOM     31  H   UNL     1      -5.460  10.627  16.192  0.00  0.00    +0.000 HD
ENDBRANCH  27  30
BRANCH  28  32
ATOM     32  N   UNL     1      -4.757  12.794  19.138  0.00  0.00    +0.000 N 
ATOM     33  H   UNL     1      -4.349  13.715  19.302  0.00  0.00    +0.000 HD
BRANCH  32  34
ATOM     34  S   UNL     1      -5.709  12.313  20.448  0.00  0.00    +0.000 S 
ATOM     35  C   UNL     1      -6.918  13.619  20.576  0.00  0.00    +0.000 C 
ATOM     36  O   UNL     1      -6.412  11.124  20.011  0.00  0.00    +0.000 OA
ATOM     37  O   UNL     1      -4.908  12.307  21.651  0.00  0.00    +0.000 OA
ENDBRANCH  32  34
ENDBRANCH  28  32
ENDBRANCH  23  24
ENDBRANCH  20  23
ENDBRANCH   1  20
TORSDOF 13
ENDMDL
MODEL 2
REMARK VINA RESULT:      -7.9      1.662      3.837
REMARK  Name = 
REMARK  15 active torsions:
REMARK  status: ('A' for Active; 'I' for Inactive)
REMARK    1  A    between atoms: C_1  and  O_2
REMARK    2  A    between atoms: O_2  and  C_3
REMARK    3  A    between atoms: C_6  and  C_7
REMARK    4  A    between atoms: C_7  and  C_8
REMARK    5  A    between atoms: C_7  and  N_15
REMARK    6  A    between atoms: C_8  and  C_9
REMARK    7  A    between atoms: N_15  and  C_16
REMARK    8  A    between atoms: C_16  and  C_17
REMARK    9  A    between atoms: C_17  and  O_18
REMARK   10  A    between atoms: C_17  and  C_19
REMARK   11  A    between atoms: C_19  and  C_20
REMARK   12  A    between atoms: C_23  and  O_24
REMARK   13  A    between atoms: C_25  and  N_26
REMARK   14  A    between atoms: N_26  and  S_27
REMARK   15  A    between atoms: S_27  and  C_28
REMARK                            x       y       z     vdW  Elec       q    Type
REMARK                         _______ _______ _______ _____ _____    ______ ____
ROOT
ATOM      1  C   UNL     1       1.524   8.730  18.822  0.00  0.00    +0.000 C 
ENDROOT
BRANCH   1   2
ATOM      2  N   UNL     1       2.598   8.085  18.068  0.00  0.00    +0.000 NA
ATOM      3  H   UNL     1       2.486   8.256  17.068  0.00  0.00    +0.000 HD
BRANCH   2   4
ATOM      4  C   UNL     1       2.746   6.622  18.272  0.00  0.00    +0.000 C 
BRANCH   4   8
ATOM      5  C   UNL     1       5.728   4.638  15.791  0.00  0.00    +0.000 A 
ATOM      6  C   UNL     1       4.687   3.918  16.376  0.00  0.00    +0.000 A 
ATOM      7  C   UNL     1       3.706   4.570  17.138  0.00  0.00    +0.000 A 
ATOM      8  C   UNL     1       3.792   5.949  17.383  0.00  0.00    +0.000 A 
ATOM      9  C   UNL     1       4.887   6.640  16.837  0.00  0.00    +0.000 A 
ATOM     10  C   UNL     1       5.819   6.006  16.016  0.00  0.00    +0.000 A 
BRANCH   5  12
ATOM     11  C   UNL     1       6.351   3.799  13.674  0.00  0.00    +0.000 C 
ATOM     12  O   UNL     1       6.629   3.906  15.067  0.00  0.00    +0.000 OA
ENDBRANCH   5  12
ENDBRANCH   4   8
BRANCH   4  13
ATOM     13  C   UNL     1       2.996   6.340  19.789  0.00  0.00    +0.000 C 
BRANCH  13  14
ATOM     14  C   UNL     1       2.479   5.001  20.265  0.00  0.00    +0.000 A 
ATOM     15  C   UNL     1       3.363   4.012  20.713  0.00  0.00    +0.000 A 
ATOM     16  C   UNL     1       2.897   2.731  21.006  0.00  0.00    +0.000 A 
ATOM     17  C   UNL     1       1.544   2.428  20.859  0.00  0.00    +0.000 A 
ATOM     18  C   UNL     1       0.649   3.416  20.457  0.00  0.00    +0.000 A 
ATOM     19  C   UNL     1       1.111   4.700  20.178  0.00  0.00    +0.000 A 
ENDBRANCH  13  14
ENDBRANCH   4  13
ENDBRANCH   2   4
ENDBRANCH   1   2
BRANCH   1  20
ATOM     20  C   UNL     1       0.867   9.954  18.157  0.00  0.00    +0.000 C 
BRANCH  20  21
ATOM     21  O   UNL     1       1.879  10.944  17.902  0.00  0.00    +0.000 OA
ATOM     22  H   UNL     1       2.312  10.735  17.058  0.00  0.00    +0.000 HD
ENDBRANCH  20  21
BRANCH  20  23
ATOM     23  C   UNL     1      -0.230  10.523  19.066  0.00  0.00    +0.000 C 
BRANCH  23  24
ATOM     24  C   UNL     1      -1.537  10.713  18.343  0.00  0.00    +0.000 A 
ATOM     25  C   UNL     1      -1.779  10.033  17.141  0.00  0.00    +0.000 A 
ATOM     26  C   UNL     1      -2.989  10.192  16.467  0.00  0.00    +0.000 A 
ATOM     27  C   UNL     1      -3.970  11.016  17.011  0.00  0.00    +0.000 A 
ATOM     28  C   UNL     1      -3.755  11.676  18.224  0.00  0.00    +0.000 A 
ATOM     29  C   UNL     1      -2.534  11.545  18.878  0.00  0.00    +0.000 A 
BRANCH  27  30
ATOM     30  O   UNL     1      -5.164  11.191  16.365  0.00  0.00    +0.000 OA
ATOM     31  H   UNL     1      -5.805  10.568  16.749  0.00  0.00    +0.000 HD
ENDBRANCH  27  30
BRANCH  28  32
ATOM     32  N   UNL     1      -4.779  12.507  18.777  0.00  0.00    +0.000 N 
ATOM     33  H   UNL     1      -4.408  13.318  19.274  0.00  0.00    +0.000 HD
BRANCH  32  34
ATOM     34  S   UNL     1      -6.007  11.763  19.667  0.00  0.00    +0.000 S 
ATOM     35  C   UNL     1      -7.450  12.731  19.262  0.00  0.00    +0.000 C 
ATOM     36  O   UNL     1      -6.191  10.455  19.071  0.00  0.00    +0.000 OA
ATOM     37  O   UNL     1      -5.737  11.910  21.079  0.00  0.00    +0.000 OA
ENDBRANCH  32  34
ENDBRANCH  28  32
ENDBRANCH  23  24
ENDBRANCH  20  23
ENDBRANCH   1  20
TORSDOF 13
ENDMDL
MODEL 3
REMARK VINA RESULT:      -7.8      0.953      1.550
REMARK  Name = 
REMARK  15 active torsions:
REMARK  status: ('A' for Active; 'I' for Inactive)
REMARK    1  A    between atoms: C_1  and  O_2
REMARK    2  A    between atoms: O_2  and  C_3
REMARK    3  A    between atoms: C_6  and  C_7
REMARK    4  A    between atoms: C_7  and  C_8
REMARK    5  A    between atoms: C_7  and  N_15
REMARK    6  A    between atoms: C_8  and  C_9
REMARK    7  A    between atoms: N_15  and  C_16
REMARK    8  A    between atoms: C_16  and  C_17
REMARK    9  A    between atoms: C_17  and  O_18
REMARK   10  A    between atoms: C_17  and  C_19
REMARK   11  A    between atoms: C_19  and  C_20
REMARK   12  A    between atoms: C_23  and  O_24
REMARK   13  A    between atoms: C_25  and  N_26
REMARK   14  A    between atoms: N_26  and  S_27
REMARK   15  A    between atoms: S_27  and  C_28
REMARK                            x       y       z     vdW  Elec       q    Type
REMARK                         _______ _______ _______ _____ _____    ______ ____
ROOT
ATOM      1  C   UNL     1       1.737   9.159  18.770  0.00  0.00    +0.000 C 
ENDROOT
BRANCH   1   2
ATOM      2  N   UNL     1       2.157   8.358  17.621  0.00  0.00    +0.000 NA
ATOM      3  H   UNL     1       1.386   7.781  17.285  0.00  0.00    +0.000 HD
BRANCH   2   4
ATOM      4  C   UNL     1       3.330   7.475  17.842  0.00  0.00    +0.000 C 
BRANCH   4   8
ATOM      5  C   UNL     1       2.333   3.650  19.678  0.00  0.00    +0.000 A 
ATOM      6  C   UNL     1       1.642   4.110  18.557  0.00  0.00    +0.000 A 
ATOM      7  C   UNL     1       1.998   5.322  17.946  0.00  0.00    +0.000 A 
ATOM      8  C   UNL     1       3.010   6.127  18.491  0.00  0.00    +0.000 A 
ATOM      9  C   UNL     1       3.645   5.673  19.658  0.00  0.00    +0.000 A 
ATOM     10  C   UNL     1       3.344   4.432  20.221  0.00  0.00    +0.000 A 
BRANCH   5  12
ATOM     11  C   UNL     1       1.356   2.521  21.506  0.00  0.00    +0.000 C 
ATOM     12  O   UNL     1       1.908   2.457  20.194  0.00  0.00    +0.000 OA
ENDBRANCH   5  12
ENDBRANCH   4   8
BRANCH   4  13
ATOM     13  C   UNL     1       4.106   7.308  16.496  0.00  0.00    +0.000 C 
BRANCH  13  14
ATOM     14  C   UNL     1       5.307   6.392  16.581  0.00  0.00    +0.000 A 
ATOM     15  C   UNL     1       5.292   5.136  15.963  0.00  0.00    +0.000 A 
ATOM     16  C   UNL     1       6.338   4.237  16.171  0.00  0.00    +0.000 A 
ATOM     17  C   UNL     1       7.409   4.587  16.992  0.00  0.00    +0.000 A 
ATOM     18  C   UNL     1       7.455   5.850  17.575  0.00  0.00    +0.000 A 
ATOM     19  C   UNL     1       6.419   6.755  17.357  0.00  0.00    +0.000 A 
ENDBRANCH  13  14
ENDBRANCH   4  13
ENDBRANCH   2   4
ENDBRANCH   1   2
BRANCH   1  20
ATOM     20  C   UNL     1       0.896  10.411  18.453  0.00  0.00    +0.000 C 
BRANCH  20  21
ATOM     21  O   UNL     1       1.650  11.581  18.812  0.00  0.00    +0.000 OA
ATOM     22  H   UNL     1       1.935  11.495  19.736  0.00  0.00    +0.000 HD
ENDBRANCH  20  21
BRANCH  20  23
ATOM     23  C   UNL     1      -0.431  10.362  19.223  0.00  0.00    +0.000 C 
BRANCH  23  24
ATOM     24  C   UNL     1      -1.625  10.562  18.327  0.00  0.00    +0.000 A 
ATOM     25  C   UNL     1      -1.728   9.846  17.126  0.00  0.00    +0.000 A 
ATOM     26  C   UNL     1      -2.833  10.013  16.293  0.00  0.00    +0.000 A 
ATOM     27  C   UNL     1      -3.850  10.882  16.676  0.00  0.00    +0.000 A 
ATOM     28  C   UNL     1      -3.776  11.579  17.885  0.00  0.00    +0.000 A 
ATOM     29  C   UNL     1      -2.657  11.439  18.698  0.00  0.00    +0.000 A 
BRANCH  27  30
ATOM     30  O   UNL     1      -4.943  11.065  15.872  0.00  0.00    +0.000 OA
ATOM     31  H   UNL     1      -5.329  11.932  16.085  0.00  0.00    +0.000 HD
ENDBRANCH  27  30
BRANCH  28  32
ATOM     32  N   UNL     1      -4.837  12.457  18.270  0.00  0.00    +0.000 N 
ATOM     33  H   UNL     1      -4.517  13.244  18.836  0.00  0.00    +0.000 HD
BRANCH  32  34
ATOM     34  S   UNL     1      -6.233  11.770  18.928  0.00  0.00    +0.000 S 
ATOM     35  C   UNL     1      -6.059  12.082  20.676  0.00  0.00    +0.000 C 
ATOM     36  O   UNL     1      -7.335  12.584  18.457  0.00  0.00    +0.000 OA
ATOM     37  O   UNL     1      -6.215  10.340  18.713  0.00  0.00    +0.000 OA
ENDBRANCH  32  34
ENDBRANCH  28  32
ENDBRANCH  23  24
ENDBRANCH  20  23
ENDBRANCH   1  20
TORSDOF 13
ENDMDL
MODEL 4
REMARK VINA RESULT:      -7.7      1.008      1.486
REMARK  Name = 
REMARK  15 active torsions:
REMARK  status: ('A' for Active; 'I' for Inactive)
REMARK    1  A    between atoms: C_1  and  O_2
REMARK    2  A    between atoms: O_2  and  C_3
REMARK    3  A    between atoms: C_6  and  C_7
REMARK    4  A    between atoms: C_7  and  C_8
REMARK    5  A    between atoms: C_7  and  N_15
REMARK    6  A    between atoms: C_8  and  C_9
REMARK    7  A    between atoms: N_15  and  C_16
REMARK    8  A    between atoms: C_16  and  C_17
REMARK    9  A    between atoms: C_17  and  O_18
REMARK   10  A    between atoms: C_17  and  C_19
REMARK   11  A    between atoms: C_19  and  C_20
REMARK   12  A    between atoms: C_23  and  O_24
REMARK   13  A    between atoms: C_25  and  N_26
REMARK   14  A    between atoms: N_26  and  S_27
REMARK   15  A    between atoms: S_27  and  C_28
REMARK                            x       y       z     vdW  Elec       q    Type
REMARK                         _______ _______ _______ _____ _____    ______ ____
ROOT
ATOM      1  C   UNL     1       1.706   9.113  18.760  0.00  0.00    +0.000 C 
ENDROOT
BRANCH   1   2
ATOM      2  N   UNL     1       2.313   8.488  17.586  0.00  0.00    +0.000 NA
ATOM      3  H   UNL     1       1.594   8.098  16.975  0.00  0.00    +0.000 HD
BRANCH   2   4
ATOM      4  C   UNL     1       3.310   7.423  17.862  0.00  0.00    +0.000 C 
BRANCH   4   8
ATOM      5  C   UNL     1       1.741   3.763  19.632  0.00  0.00    +0.000 A 
ATOM      6  C   UNL     1       2.489   4.664  20.390  0.00  0.00    +0.000 A 
ATOM      7  C   UNL     1       2.954   5.861  19.825  0.00  0.00    +0.000 A 
ATOM      8  C   UNL     1       2.734   6.142  18.468  0.00  0.00    +0.000 A 
ATOM      9  C   UNL     1       2.035   5.188  17.710  0.00  0.00    +0.000 A 
ATOM     10  C   UNL     1       1.506   4.035  18.290  0.00  0.00    +0.000 A 
BRANCH   5  12
ATOM     11  C   UNL     1       1.631   2.581  21.673  0.00  0.00    +0.000 C 
ATOM     12  O   UNL     1       1.335   2.629  20.280  0.00  0.00    +0.000 OA
ENDBRANCH   5  12
ENDBRANCH   4   8
BRANCH   4  13
ATOM     13  C   UNL     1       4.130   7.141  16.563  0.00  0.00    +0.000 C 
BRANCH  13  14
ATOM     14  C   UNL     1       5.374   6.308  16.782  0.00  0.00    +0.000 A 
ATOM     15  C   UNL     1       5.511   5.054  16.175  0.00  0.00    +0.000 A 
ATOM     16  C   UNL     1       6.587   4.228  16.500  0.00  0.00    +0.000 A 
ATOM     17  C   UNL     1       7.537   4.649  17.429  0.00  0.00    +0.000 A 
ATOM     18  C   UNL     1       7.434   5.912  18.005  0.00  0.00    +0.000 A 
ATOM     19  C   UNL     1       6.369   6.745  17.671  0.00  0.00    +0.000 A 
ENDBRANCH  13  14
ENDBRANCH   4  13
ENDBRANCH   2   4
ENDBRANCH   1   2
BRANCH   1  20
ATOM     20  C   UNL     1       0.824  10.349  18.492  0.00  0.00    +0.000 C 
BRANCH  20  21
ATOM     21  O   UNL     1       1.521  11.524  18.941  0.00  0.00    +0.000 OA
ATOM     22  H   UNL     1       1.215  11.743  19.835  0.00  0.00    +0.000 HD
ENDBRANCH  20  21
BRANCH  20  23
ATOM     23  C   UNL     1      -0.520  10.205  19.218  0.00  0.00    +0.000 C 
BRANCH  23  24
ATOM     24  C   UNL     1      -1.694  10.498  18.322  0.00  0.00    +0.000 A 
ATOM     25  C   UNL     1      -1.829   9.825  17.099  0.00  0.00    +0.000 A 
ATOM     26  C   UNL     1      -2.916  10.079  16.266  0.00  0.00    +0.000 A 
ATOM     27  C   UNL     1      -3.885  10.994  16.668  0.00  0.00    +0.000 A 
ATOM     28  C   UNL     1      -3.780  11.650  17.897  0.00  0.00    +0.000 A 
ATOM     29  C   UNL     1      -2.677  11.422  18.713  0.00  0.00    +0.000 A 
BRANCH  27  30
ATOM     30  O   UNL     1      -4.960  11.263  15.863  0.00  0.00    +0.000 OA
ATOM     31  H   UNL     1      -4.629  11.689  15.055  0.00  0.00    +0.000 HD
ENDBRANCH  27  30
BRANCH  28  32
ATOM     32  N   UNL     1      -4.793  12.575  18.303  0.00  0.00    +0.000 N 
ATOM     33  H   UNL     1      -4.459  13.254  18.988  0.00  0.00    +0.000 HD
BRANCH  32  34
ATOM     34  S   UNL     1      -6.298  11.954  18.751  0.00  0.00    +0.000 S 
ATOM     35  C   UNL     1      -5.968  10.219  19.003  0.00  0.00    +0.000 C 
ATOM     36  O   UNL     1      -6.591  12.525  20.050  0.00  0.00    +0.000 OA
ATOM     37  O   UNL     1      -7.224  12.090  17.649  0.00  0.00    +0.000 OA
ENDBRANCH  32  34
ENDBRANCH  28  32
ENDBRANCH  23  24
ENDBRANCH  20  23
ENDBRANCH   1  20
TORSDOF 13
ENDMDL
MODEL 5
REMARK VINA RESULT:      -7.4      3.646      5.966
REMARK  Name = 
REMARK  15 active torsions:
REMARK  status: ('A' for Active; 'I' for Inactive)
REMARK    1  A    between atoms: C_1  and  O_2
REMARK    2  A    between atoms: O_2  and  C_3
REMARK    3  A    between atoms: C_6  and  C_7
REMARK    4  A    between atoms: C_7  and  C_8
REMARK    5  A    between atoms: C_7  and  N_15
REMARK    6  A    between atoms: C_8  and  C_9
REMARK    7  A    between atoms: N_15  and  C_16
REMARK    8  A    between atoms: C_16  and  C_17
REMARK    9  A    between atoms: C_17  and  O_18
REMARK   10  A    between atoms: C_17  and  C_19
REMARK   11  A    between atoms: C_19  and  C_20
REMARK   12  A    between atoms: C_23  and  O_24
REMARK   13  A    between atoms: C_25  and  N_26
REMARK   14  A    between atoms: N_26  and  S_27
REMARK   15  A    between atoms: S_27  and  C_28
REMARK                            x       y       z     vdW  Elec       q    Type
REMARK                         _______ _______ _______ _____ _____    ______ ____
ROOT
ATOM      1  C   UNL     1       3.818   4.970  18.720  0.00  0.00    +0.000 C 
ENDROOT
BRANCH   1   2
ATOM      2  N   UNL     1       4.215   4.146  17.579  0.00  0.00    +0.000 NA
ATOM      3  H   UNL     1       4.598   3.255  17.896  0.00  0.00    +0.000 HD
BRANCH   2   4
ATOM      4  C   UNL     1       5.193   4.762  16.646  0.00  0.00    +0.000 C 
BRANCH   4   8
ATOM      5  C   UNL     1       8.014   7.571  18.420  0.00  0.00    +0.000 A 
ATOM      6  C   UNL     1       7.110   7.982  17.441  0.00  0.00    +0.000 A 
ATOM      7  C   UNL     1       6.176   7.083  16.906  0.00  0.00    +0.000 A 
ATOM      8  C   UNL     1       6.179   5.735  17.296  0.00  0.00    +0.000 A 
ATOM      9  C   UNL     1       7.142   5.331  18.235  0.00  0.00    +0.000 A 
ATOM     10  C   UNL     1       8.019   6.241  18.824  0.00  0.00    +0.000 A 
BRANCH   5  12
ATOM     11  C   UNL     1       8.651   9.843  18.381  0.00  0.00    +0.000 C 
ATOM     12  O   UNL     1       8.879   8.527  18.875  0.00  0.00    +0.000 OA
ENDBRANCH   5  12
ENDBRANCH   4   8
BRANCH   4  13
ATOM     13  C   UNL     1       5.923   3.631  15.851  0.00  0.00    +0.000 C 
BRANCH  13  14
ATOM     14  C   UNL     1       6.323   4.020  14.445  0.00  0.00    +0.000 A 
ATOM     15  C   UNL     1       5.732   3.401  13.337  0.00  0.00    +0.000 A 
ATOM     16  C   UNL     1       6.211   3.652  12.052  0.00  0.00    +0.000 A 
ATOM     17  C   UNL     1       7.279   4.527  11.862  0.00  0.00    +0.000 A 
ATOM     18  C   UNL     1       7.845   5.181  12.952  0.00  0.00    +0.000 A 
ATOM     19  C   UNL     1       7.359   4.943  14.235  0.00  0.00    +0.000 A 
ENDBRANCH  13  14
ENDBRANCH   4  13
ENDBRANCH   2   4
ENDBRANCH   1   2
BRANCH   1  20
ATOM     20  C   UNL     1       2.441   5.654  18.616  0.00  0.00    +0.000 C 
BRANCH  20  21
ATOM     21  O   UNL     1       1.635   4.937  17.665  0.00  0.00    +0.000 OA
ATOM     22  H   UNL     1       1.100   5.576  17.168  0.00  0.00    +0.000 HD
ENDBRANCH  20  21
BRANCH  20  23
ATOM     23  C   UNL     1       2.611   7.118  18.189  0.00  0.00    +0.000 C 
BRANCH  23  24
ATOM     24  C   UNL     1       1.870   8.071  19.089  0.00  0.00    +0.000 A 
ATOM     25  C   UNL     1       1.751   7.794  20.458  0.00  0.00    +0.000 A 
ATOM     26  C   UNL     1       1.078   8.673  21.304  0.00  0.00    +0.000 A 
ATOM     27  C   UNL     1       0.541   9.847  20.781  0.00  0.00    +0.000 A 
ATOM     28  C   UNL     1       0.679  10.151  19.424  0.00  0.00    +0.000 A 
ATOM     29  C   UNL     1       1.320   9.257  18.574  0.00  0.00    +0.000 A 
BRANCH  27  30
ATOM     30  O   UNL     1      -0.128  10.724  21.592  0.00  0.00    +0.000 OA
ATOM     31  H   UNL     1       0.384  11.550  21.626  0.00  0.00    +0.000 HD
ENDBRANCH  27  30
BRANCH  28  32
ATOM     32  N   UNL     1       0.136  11.369  18.906  0.00  0.00    +0.000 N 
ATOM     33  H   UNL     1      -0.234  11.268  17.959  0.00  0.00    +0.000 HD
BRANCH  32  34
ATOM     34  S   UNL     1       1.064  12.773  19.046  0.00  0.00    +0.000 S 
ATOM     35  C   UNL     1       2.529  12.391  18.101  0.00  0.00    +0.000 C 
ATOM     36  O   UNL     1       0.344  13.798  18.319  0.00  0.00    +0.000 OA
ATOM     37  O   UNL     1       1.445  12.964  20.428  0.00  0.00    +0.000 OA
ENDBRANCH  32  34
ENDBRANCH  28  32
ENDBRANCH  23  24
ENDBRANCH  20  23
ENDBRANCH   1  20
TORSDOF 13
ENDMDL
MODEL 6
REMARK VINA RESULT:      -7.4      4.853     10.419
REMARK  Name = 
REMARK  15 active torsions:
REMARK  status: ('A' for Active; 'I' for Inactive)
REMARK    1  A    between atoms: C_1  and  O_2
REMARK    2  A    between atoms: O_2  and  C_3
REMARK    3  A    between atoms: C_6  and  C_7
REMARK    4  A    between atoms: C_7  and  C_8
REMARK    5  A    between atoms: C_7  and  N_15
REMARK    6  A    between atoms: C_8  and  C_9
REMARK    7  A    between atoms: N_15  and  C_16
REMARK    8  A    between atoms: C_16  and  C_17
REMARK    9  A    between atoms: C_17  and  O_18
REMARK   10  A    between atoms: C_17  and  C_19
REMARK   11  A    between atoms: C_19  and  C_20
REMARK   12  A    between atoms: C_23  and  O_24
REMARK   13  A    between atoms: C_25  and  N_26
REMARK   14  A    between atoms: N_26  and  S_27
REMARK   15  A    between atoms: S_27  and  C_28
REMARK                            x       y       z     vdW  Elec       q    Type
REMARK                         _______ _______ _______ _____ _____    ______ ____
ROOT
ATOM      1  C   UNL     1       1.621   8.983  17.807  0.00  0.00    +0.000 C 
ENDROOT
BRANCH   1   2
ATOM      2  N   UNL     1       1.957  10.406  17.777  0.00  0.00    +0.000 NA
ATOM      3  H   UNL     1       2.959  10.534  17.631  0.00  0.00    +0.000 HD
BRANCH   2   4
ATOM      4  C   UNL     1       1.563  11.189  18.975  0.00  0.00    +0.000 C 
BRANCH   4   8
ATOM      5  C   UNL     1       2.963  15.315  18.931  0.00  0.00    +0.000 A 
ATOM      6  C   UNL     1       3.069  14.509  17.798  0.00  0.00    +0.000 A 
ATOM      7  C   UNL     1       2.577  13.196  17.807  0.00  0.00    +0.000 A 
ATOM      8  C   UNL     1       2.031  12.645  18.976  0.00  0.00    +0.000 A 
ATOM      9  C   UNL     1       1.996  13.456  20.123  0.00  0.00    +0.000 A 
ATOM     10  C   UNL     1       2.414  14.787  20.093  0.00  0.00    +0.000 A 
BRANCH   5  12
ATOM     11  C   UNL     1       4.143  17.076  19.971  0.00  0.00    +0.000 C 
ATOM     12  O   UNL     1       3.473  16.579  18.816  0.00  0.00    +0.000 OA
ENDBRANCH   5  12
ENDBRANCH   4   8
BRANCH   4  13
ATOM     13  C   UNL     1       0.018  11.069  19.179  0.00  0.00    +0.000 C 
BRANCH  13  14
ATOM     14  C   UNL     1      -0.396  10.699  20.586  0.00  0.00    +0.000 A 
ATOM     15  C   UNL     1      -0.985  11.648  21.430  0.00  0.00    +0.000 A 
ATOM     16  C   UNL     1      -1.224  11.347  22.771  0.00  0.00    +0.000 A 
ATOM     17  C   UNL     1      -0.883  10.094  23.278  0.00  0.00    +0.000 A 
ATOM     18  C   UNL     1      -0.336   9.128  22.437  0.00  0.00    +0.000 A 
ATOM     19  C   UNL     1      -0.111   9.422  21.095  0.00  0.00    +0.000 A 
ENDBRANCH  13  14
ENDBRANCH   4  13
ENDBRANCH   2   4
ENDBRANCH   1   2
BRANCH   1  20
ATOM     20  C   UNL     1       2.763   8.024  18.196  0.00  0.00    +0.000 C 
BRANCH  20  21
ATOM     21  O   UNL     1       3.070   7.185  17.069  0.00  0.00    +0.000 OA
ATOM     22  H   UNL     1       2.252   6.757  16.768  0.00  0.00    +0.000 HD
ENDBRANCH  20  21
BRANCH  20  23
ATOM     23  C   UNL     1       2.349   7.175  19.406  0.00  0.00    +0.000 C 
BRANCH  23  24
ATOM     24  C   UNL     1       3.036   5.836  19.433  0.00  0.00    +0.000 A 
ATOM     25  C   UNL     1       2.287   4.667  19.634  0.00  0.00    +0.000 A 
ATOM     26  C   UNL     1       2.909   3.420  19.651  0.00  0.00    +0.000 A 
ATOM     27  C   UNL     1       4.283   3.340  19.442  0.00  0.00    +0.000 A 
ATOM     28  C   UNL     1       5.038   4.493  19.210  0.00  0.00    +0.000 A 
ATOM     29  C   UNL     1       4.422   5.740  19.228  0.00  0.00    +0.000 A 
BRANCH  27  30
ATOM     30  O   UNL     1       4.916   2.126  19.458  0.00  0.00    +0.000 OA
ATOM     31  H   UNL     1       4.382   1.504  18.936  0.00  0.00    +0.000 HD
ENDBRANCH  27  30
BRANCH  28  32
ATOM     32  N   UNL     1       6.446   4.392  18.981  0.00  0.00    +0.000 N 
ATOM     33  H   UNL     1       7.001   4.827  19.720  0.00  0.00    +0.000 HD
BRANCH  32  34
ATOM     34  S   UNL     1       7.033   4.816  17.455  0.00  0.00    +0.000 S 
ATOM     35  C   UNL     1       7.412   6.551  17.630  0.00  0.00    +0.000 C 
ATOM     36  O   UNL     1       8.293   4.118  17.308  0.00  0.00    +0.000 OA
ATOM     37  O   UNL     1       5.980   4.672  16.475  0.00  0.00    +0.000 OA
ENDBRANCH  32  34
ENDBRANCH  28  32
ENDBRANCH  23  24
ENDBRANCH  20  23
ENDBRANCH   1  20
TORSDOF 13
ENDMDL
MODEL 7
REMARK VINA RESULT:      -7.4      7.147      9.439
REMARK  Name = 
REMARK  15 active torsions:
REMARK  status: ('A' for Active; 'I' for Inactive)
REMARK    1  A    between atoms: C_1  and  O_2
REMARK    2  A    between atoms: O_2  and  C_3
REMARK    3  A    between atoms: C_6  and  C_7
REMARK    4  A    between atoms: C_7  and  C_8
REMARK    5  A    between atoms: C_7  and  N_15
REMARK    6  A    between atoms: C_8  and  C_9
REMARK    7  A    between atoms: N_15  and  C_16
REMARK    8  A    between atoms: C_16  and  C_17
REMARK    9  A    between atoms: C_17  and  O_18
REMARK   10  A    between atoms: C_17  and  C_19
REMARK   11  A    between atoms: C_19  and  C_20
REMARK   12  A    between atoms: C_23  and  O_24
REMARK   13  A    between atoms: C_25  and  N_26
REMARK   14  A    between atoms: N_26  and  S_27
REMARK   15  A    between atoms: S_27  and  C_28
REMARK                            x       y       z     vdW  Elec       q    Type
REMARK                         _______ _______ _______ _____ _____    ______ ____
ROOT
ATOM      1  C   UNL     1       7.487   7.016  17.097  0.00  0.00    +0.000 C 
ENDROOT
BRANCH   1   2
ATOM      2  N   UNL     1       7.460   5.587  17.407  0.00  0.00    +0.000 NA
ATOM      3  H   UNL     1       8.321   5.136  17.095  0.00  0.00    +0.000 HD
BRANCH   2   4
ATOM      4  C   UNL     1       6.313   4.826  16.850  0.00  0.00    +0.000 C 
BRANCH   4   8
ATOM      5  C   UNL     1       3.001   4.092  19.584  0.00  0.00    +0.000 A 
ATOM      6  C   UNL     1       3.161   3.327  18.428  0.00  0.00    +0.000 A 
ATOM      7  C   UNL     1       4.254   3.541  17.576  0.00  0.00    +0.000 A 
ATOM      8  C   UNL     1       5.169   4.573  17.832  0.00  0.00    +0.000 A 
ATOM      9  C   UNL     1       4.948   5.371  18.967  0.00  0.00    +0.000 A 
ATOM     10  C   UNL     1       3.906   5.110  19.856  0.00  0.00    +0.000 A 
BRANCH   5  12
ATOM     11  C   UNL     1       0.875   3.069  19.684  0.00  0.00    +0.000 C 
ATOM     12  O   UNL     1       1.903   3.801  20.346  0.00  0.00    +0.000 OA
ENDBRANCH   5  12
ENDBRANCH   4   8
BRANCH   4  13
ATOM     13  C   UNL     1       5.821   5.526  15.543  0.00  0.00    +0.000 C 
BRANCH  13  14
ATOM     14  C   UNL     1       6.267   4.847  14.267  0.00  0.00    +0.000 A 
ATOM     15  C   UNL     1       7.447   5.239  13.624  0.00  0.00    +0.000 A 
ATOM     16  C   UNL     1       7.774   4.716  12.373  0.00  0.00    +0.000 A 
ATOM     17  C   UNL     1       6.929   3.794  11.757  0.00  0.00    +0.000 A 
ATOM     18  C   UNL     1       5.776   3.364  12.408  0.00  0.00    +0.000 A 
ATOM     19  C   UNL     1       5.455   3.874  13.664  0.00  0.00    +0.000 A 
ENDBRANCH  13  14
ENDBRANCH   4  13
ENDBRANCH   2   4
ENDBRANCH   1   2
BRANCH   1  20
ATOM     20  C   UNL     1       8.461   7.872  17.929  0.00  0.00    +0.000 C 
BRANCH  20  21
ATOM     21  O   UNL     1       8.563   7.310  19.249  0.00  0.00    +0.000 OA
ATOM     22  H   UNL     1       9.499   7.140  19.442  0.00  0.00    +0.000 HD
ENDBRANCH  20  21
BRANCH  20  23
ATOM     23  C   UNL     1       7.963   9.322  17.994  0.00  0.00    +0.000 C 
BRANCH  23  24
ATOM     24  C   UNL     1       9.001  10.265  18.542  0.00  0.00    +0.000 A 
ATOM     25  C   UNL     1      10.006  10.766  17.702  0.00  0.00    +0.000 A 
ATOM     26  C   UNL     1      10.967  11.647  18.193  0.00  0.00    +0.000 A 
ATOM     27  C   UNL     1      10.909  12.048  19.525  0.00  0.00    +0.000 A 
ATOM     28  C   UNL     1       9.895  11.581  20.366  0.00  0.00    +0.000 A 
ATOM     29  C   UNL     1       8.957  10.674  19.884  0.00  0.00    +0.000 A 
BRANCH  27  30
ATOM     30  O   UNL     1      11.844  12.910  20.030  0.00  0.00    +0.000 OA
ATOM     31  H   UNL     1      12.019  13.590  19.358  0.00  0.00    +0.000 HD
ENDBRANCH  27  30
BRANCH  28  32
ATOM     32  N   UNL     1       9.839  12.016  21.728  0.00  0.00    +0.000 N 
ATOM     33  H   UNL     1       9.525  11.283  22.366  0.00  0.00    +0.000 HD
BRANCH  32  34
ATOM     34  S   UNL     1       9.067  13.480  22.061  0.00  0.00    +0.000 S 
ATOM     35  C   UNL     1       8.445  13.247  23.717  0.00  0.00    +0.000 C 
ATOM     36  O   UNL     1      10.118  14.474  22.137  0.00  0.00    +0.000 OA
ATOM     37  O   UNL     1       7.943  13.647  21.167  0.00  0.00    +0.000 OA
ENDBRANCH  32  34
ENDBRANCH  28  32
ENDBRANCH  23  24
ENDBRANCH  20  23
ENDBRANCH   1  20
TORSDOF 13
ENDMDL
MODEL 8
REMARK VINA RESULT:      -7.4      4.155     10.551
REMARK  Name = 
REMARK  15 active torsions:
REMARK  status: ('A' for Active; 'I' for Inactive)
REMARK    1  A    between atoms: C_1  and  O_2
REMARK    2  A    between atoms: O_2  and  C_3
REMARK    3  A    between atoms: C_6  and  C_7
REMARK    4  A    between atoms: C_7  and  C_8
REMARK    5  A    between atoms: C_7  and  N_15
REMARK    6  A    between atoms: C_8  and  C_9
REMARK    7  A    between atoms: N_15  and  C_16
REMARK    8  A    between atoms: C_16  and  C_17
REMARK    9  A    between atoms: C_17  and  O_18
REMARK   10  A    between atoms: C_17  and  C_19
REMARK   11  A    between atoms: C_19  and  C_20
REMARK   12  A    between atoms: C_23  and  O_24
REMARK   13  A    between atoms: C_25  and  N_26
REMARK   14  A    between atoms: N_26  and  S_27
REMARK   15  A    between atoms: S_27  and  C_28
REMARK                            x       y       z     vdW  Elec       q    Type
REMARK                         _______ _______ _______ _____ _____    ______ ____
ROOT
ATOM      1  C   UNL     1       0.673   9.323  19.278  0.00  0.00    +0.000 C 
ENDROOT
BRANCH   1   2
ATOM      2  N   UNL     1       0.401  10.616  19.905  0.00  0.00    +0.000 NA
ATOM      3  H   UNL     1       0.659  10.597  20.892  0.00  0.00    +0.000 HD
BRANCH   2   4
ATOM      4  C   UNL     1      -0.998  11.103  19.805  0.00  0.00    +0.000 C 
BRANCH   4   8
ATOM      5  C   UNL     1      -2.365  13.604  23.101  0.00  0.00    +0.000 A 
ATOM      6  C   UNL     1      -3.118  13.481  21.934  0.00  0.00    +0.000 A 
ATOM      7  C   UNL     1      -2.693  12.640  20.894  0.00  0.00    +0.000 A 
ATOM      8  C   UNL     1      -1.468  11.960  20.981  0.00  0.00    +0.000 A 
ATOM      9  C   UNL     1      -0.697  12.153  22.139  0.00  0.00    +0.000 A 
ATOM     10  C   UNL     1      -1.156  12.928  23.205  0.00  0.00    +0.000 A 
BRANCH   5  12
ATOM     11  C   UNL     1      -2.338  15.769  24.041  0.00  0.00    +0.000 C 
ATOM     12  O   UNL     1      -2.870  14.447  24.052  0.00  0.00    +0.000 OA
ENDBRANCH   5  12
ENDBRANCH   4   8
BRANCH   4  13
ATOM     13  C   UNL     1      -1.190  11.830  18.435  0.00  0.00    +0.000 C 
BRANCH  13  14
ATOM     14  C   UNL     1      -2.220  11.190  17.531  0.00  0.00    +0.000 A 
ATOM     15  C   UNL     1      -1.860  10.158  16.656  0.00  0.00    +0.000 A 
ATOM     16  C   UNL     1      -2.775   9.678  15.720  0.00  0.00    +0.000 A 
ATOM     17  C   UNL     1      -4.058  10.219  15.654  0.00  0.00    +0.000 A 
ATOM     18  C   UNL     1      -4.440  11.216  16.547  0.00  0.00    +0.000 A 
ATOM     19  C   UNL     1      -3.532  11.687  17.493  0.00  0.00    +0.000 A 
ENDBRANCH  13  14
ENDBRANCH   4  13
ENDBRANCH   2   4
ENDBRANCH   1   2
BRANCH   1  20
ATOM     20  C   UNL     1       1.926   9.253  18.384  0.00  0.00    +0.000 C 
BRANCH  20  21
ATOM     21  O   UNL     1       1.889  10.340  17.444  0.00  0.00    +0.000 OA
ATOM     22  H   UNL     1       1.658  11.154  17.920  0.00  0.00    +0.000 HD
ENDBRANCH  20  21
BRANCH  20  23
ATOM     23  C   UNL     1       1.976   7.904  17.653  0.00  0.00    +0.000 C 
BRANCH  23  24
ATOM     24  C   UNL     1       3.146   7.059  18.082  0.00  0.00    +0.000 A 
ATOM     25  C   UNL     1       3.011   6.169  19.157  0.00  0.00    +0.000 A 
ATOM     26  C   UNL     1       4.083   5.373  19.558  0.00  0.00    +0.000 A 
ATOM     27  C   UNL     1       5.287   5.450  18.864  0.00  0.00    +0.000 A 
ATOM     28  C   UNL     1       5.426   6.309  17.771  0.00  0.00    +0.000 A 
ATOM     29  C   UNL     1       4.368   7.129  17.394  0.00  0.00    +0.000 A 
BRANCH  27  30
ATOM     30  O   UNL     1       6.354   4.680  19.242  0.00  0.00    +0.000 OA
ATOM     31  H   UNL     1       6.683   5.021  20.091  0.00  0.00    +0.000 HD
ENDBRANCH  27  30
BRANCH  28  32
ATOM     32  N   UNL     1       6.665   6.364  17.058  0.00  0.00    +0.000 N 
ATOM     33  H   UNL     1       6.780   7.229  16.528  0.00  0.00    +0.000 HD
BRANCH  32  34
ATOM     34  S   UNL     1       7.105   5.024  16.130  0.00  0.00    +0.000 S 
ATOM     35  C   UNL     1       5.553   4.189  15.854  0.00  0.00    +0.000 C 
ATOM     36  O   UNL     1       7.538   5.551  14.852  0.00  0.00    +0.000 OA
ATOM     37  O   UNL     1       7.961   4.157  16.909  0.00  0.00    +0.000 OA
ENDBRANCH  32  34
ENDBRANCH  28  32
ENDBRANCH  23  24
ENDBRANCH  20  23
ENDBRANCH   1  20
TORSDOF 13
ENDMDL
MODEL 9
REMARK VINA RESULT:      -7.2      3.482      9.813
REMARK  Name = 
REMARK  15 active torsions:
REMARK  status: ('A' for Active; 'I' for Inactive)
REMARK    1  A    between atoms: C_1  and  O_2
REMARK    2  A    between atoms: O_2  and  C_3
REMARK    3  A    between atoms: C_6  and  C_7
REMARK    4  A    between atoms: C_7  and  C_8
REMARK    5  A    between atoms: C_7  and  N_15
REMARK    6  A    between atoms: C_8  and  C_9
REMARK    7  A    between atoms: N_15  and  C_16
REMARK    8  A    between atoms: C_16  and  C_17
REMARK    9  A    between atoms: C_17  and  O_18
REMARK   10  A    between atoms: C_17  and  C_19
REMARK   11  A    between atoms: C_19  and  C_20
REMARK   12  A    between atoms: C_23  and  O_24
REMARK   13  A    between atoms: C_25  and  N_26
REMARK   14  A    between atoms: N_26  and  S_27
REMARK   15  A    between atoms: S_27  and  C_28
REMARK                            x       y       z     vdW  Elec       q    Type
REMARK                         _______ _______ _______ _____ _____    ______ ____
ROOT
ATOM      1  C   UNL     1       1.789   9.381  17.869  0.00  0.00    +0.000 C 
ENDROOT
BRANCH   1   2
ATOM      2  N   UNL     1       0.411   9.462  18.354  0.00  0.00    +0.000 NA
ATOM      3  H   UNL     1      -0.199   8.858  17.802  0.00  0.00    +0.000 HD
BRANCH   2   4
ATOM      4  C   UNL     1      -0.187  10.821  18.380  0.00  0.00    +0.000 C 
BRANCH   4   8
ATOM      5  C   UNL     1      -4.530  10.954  18.053  0.00  0.00    +0.000 A 
ATOM      6  C   UNL     1      -3.830  11.953  18.729  0.00  0.00    +0.000 A 
ATOM      7  C   UNL     1      -2.429  11.926  18.793  0.00  0.00    +0.000 A 
ATOM      8  C   UNL     1      -1.709  10.858  18.237  0.00  0.00    +0.000 A 
ATOM      9  C   UNL     1      -2.442   9.831  17.619  0.00  0.00    +0.000 A 
ATOM     10  C   UNL     1      -3.829   9.896  17.488  0.00  0.00    +0.000 A 
BRANCH   5  12
ATOM     11  C   UNL     1      -6.495  11.240  19.329  0.00  0.00    +0.000 C 
ATOM     12  O   UNL     1      -5.892  11.076  18.049  0.00  0.00    +0.000 OA
ENDBRANCH   5  12
ENDBRANCH   4   8
BRANCH   4  13
ATOM     13  C   UNL     1       0.301  11.569  19.662  0.00  0.00    +0.000 C 
BRANCH  13  14
ATOM     14  C   UNL     1       0.083  10.804  20.948  0.00  0.00    +0.000 A 
ATOM     15  C   UNL     1      -0.933  11.175  21.837  0.00  0.00    +0.000 A 
ATOM     16  C   UNL     1      -1.032  10.565  23.088  0.00  0.00    +0.000 A 
ATOM     17  C   UNL     1      -0.121   9.577  23.458  0.00  0.00    +0.000 A 
ATOM     18  C   UNL     1       0.866   9.170  22.565  0.00  0.00    +0.000 A 
ATOM     19  C   UNL     1       0.957   9.767  21.310  0.00  0.00    +0.000 A 
ENDBRANCH  13  14
ENDBRANCH   4  13
ENDBRANCH   2   4
ENDBRANCH   1   2
BRANCH   1  20
ATOM     20  C   UNL     1       2.448   7.989  17.928  0.00  0.00    +0.000 C 
BRANCH  20  21
ATOM     21  O   UNL     1       2.278   7.450  19.250  0.00  0.00    +0.000 OA
ATOM     22  H   UNL     1       2.077   6.503  19.175  0.00  0.00    +0.000 HD
ENDBRANCH  20  21
BRANCH  20  23
ATOM     23  C   UNL     1       3.937   8.097  17.573  0.00  0.00    +0.000 C 
BRANCH  23  24
ATOM     24  C   UNL     1       4.530   6.773  17.168  0.00  0.00    +0.000 A 
ATOM     25  C   UNL     1       4.869   6.537  15.828  0.00  0.00    +0.000 A 
ATOM     26  C   UNL     1       5.428   5.320  15.442  0.00  0.00    +0.000 A 
ATOM     27  C   UNL     1       5.672   4.345  16.404  0.00  0.00    +0.000 A 
ATOM     28  C   UNL     1       5.369   4.578  17.749  0.00  0.00    +0.000 A 
ATOM     29  C   UNL     1       4.778   5.778  18.128  0.00  0.00    +0.000 A 
BRANCH  27  30
ATOM     30  O   UNL     1       6.218   3.141  16.048  0.00  0.00    +0.000 OA
ATOM     31  H   UNL     1       5.488   2.516  15.897  0.00  0.00    +0.000 HD
ENDBRANCH  27  30
BRANCH  28  32
ATOM     32  N   UNL     1       5.641   3.572  18.728  0.00  0.00    +0.000 N 
ATOM     33  H   UNL     1       6.316   2.876  18.406  0.00  0.00    +0.000 HD
BRANCH  32  34
ATOM     34  S   UNL     1       4.327   2.832  19.489  0.00  0.00    +0.000 S 
ATOM     35  C   UNL     1       3.517   1.965  18.157  0.00  0.00    +0.000 C 
ATOM     36  O   UNL     1       4.893   1.829  20.368  0.00  0.00    +0.000 OA
ATOM     37  O   UNL     1       3.427   3.845  19.992  0.00  0.00    +0.000 OA
ENDBRANCH  32  34
ENDBRANCH  28  32
ENDBRANCH  23  24
ENDBRANCH  20  23
ENDBRANCH   1  20
TORSDOF 13
ENDMDL
