MODEL 1
REMARK VINA RESULT:      -9.3      0.000      0.000
REMARK  Name = 
REMARK  2 active torsions:
REMARK  status: ('A' for Active; 'I' for Inactive)
REMARK    1  A    between atoms: N_5  and  C_6
REMARK    2  A    between atoms: C_19  and  O_20
REMARK                            x       y       z     vdW  Elec       q    Type
REMARK                         _______ _______ _______ _____ _____    ______ ____
ROOT
ATOM      1  N   UNL     1       6.886   5.474  19.601  0.00  0.00    +0.000 N 
ATOM      2  C   UNL     1       6.518   5.148  18.310  0.00  0.00    +0.000 A 
ATOM      3  N   UNL     1       5.294   4.609  18.141  0.00  0.00    +0.000 NA
ATOM      4  C   UNL     1       4.888   4.252  16.899  0.00  0.00    +0.000 A 
ATOM      5  N   UNL     1       3.610   3.816  16.644  0.00  0.00    +0.000 N 
ATOM      6  C   UNL     1       5.810   4.448  15.830  0.00  0.00    +0.000 A 
ATOM      7  C   UNL     1       7.012   5.053  16.154  0.00  0.00    +0.000 A 
ATOM      8  N   UNL     1       7.417   5.441  17.364  0.00  0.00    +0.000 NA
ATOM      9  N   UNL     1       7.749   5.206  15.007  0.00  0.00    +0.000 N 
ATOM     10  C   UNL     1       7.086   4.673  13.932  0.00  0.00    +0.000 A 
ATOM     11  C   UNL     1       7.468   4.584  12.579  0.00  0.00    +0.000 A 
ATOM     12  C   UNL     1       6.595   3.956  11.687  0.00  0.00    +0.000 A 
ATOM     13  C   UNL     1       5.388   3.440  12.138  0.00  0.00    +0.000 A 
ATOM     14  C   UNL     1       5.009   3.540  13.479  0.00  0.00    +0.000 A 
ATOM     15  C   UNL     1       5.863   4.177  14.410  0.00  0.00    +0.000 A 
ATOM     16  H   UNL     1       6.060   5.591  20.164  0.00  0.00    +0.000 HD
ATOM     17  H   UNL     1       7.567   6.220  19.598  0.00  0.00    +0.000 HD
ATOM     18  H   UNL     1       3.504   3.588  15.664  0.00  0.00    +0.000 HD
ATOM     19  H   UNL     1       8.662   5.632  14.988  0.00  0.00    +0.000 HD
ENDROOT
BRANCH   5  20
ATOM     20  C   UNL     1       2.618   3.102  17.448  0.00  0.00    +0.000 C 
ATOM     21  C   UNL     1       3.254   1.951  18.235  0.00  0.00    +0.000 C 
ATOM     22  C   UNL     1       3.409   2.208  19.726  0.00  0.00    +0.000 C 
ATOM     23  C   UNL     1       2.092   2.654  20.338  0.00  0.00    +0.000 C 
ATOM     24  C   UNL     1       1.629   3.960  19.707  0.00  0.00    +0.000 C 
ATOM     25  C   UNL     1       1.527   3.888  18.182  0.00  0.00    +0.000 C 
ENDBRANCH   5  20
BRANCH  13  26
ATOM     26  O   UNL     1       4.525   2.804  11.291  0.00  0.00    +0.000 OA
ATOM     27  H   UNL     1       4.931   1.974  10.995  0.00  0.00    +0.000 HD
ENDBRANCH  13  26
TORSDOF 2
ENDMDL
MODEL 2
REMARK VINA RESULT:      -8.2      3.914      5.892
REMARK  Name = 
REMARK  2 active torsions:
REMARK  status: ('A' for Active; 'I' for Inactive)
REMARK    1  A    between atoms: N_5  and  C_6
REMARK    2  A    between atoms: C_19  and  O_20
REMARK                            x       y       z     vdW  Elec       q    Type
REMARK                         _______ _______ _______ _____ _____    ______ ____
ROOT
ATOM      1  N   UNL     1       6.925   7.470  16.772  0.00  0.00    +0.000 N 
ATOM      2  C   UNL     1       5.829   6.712  17.137  0.00  0.00    +0.000 A 
ATOM      3  N   UNL     1       4.741   7.380  17.571  0.00  0.00    +0.000 NA
ATOM      4  C   UNL     1       3.644   6.687  17.961  0.00  0.00    +0.000 A 
ATOM      5  N   UNL     1       2.465   7.310  18.293  0.00  0.00    +0.000 N 
ATOM      6  C   UNL     1       3.719   5.264  17.911  0.00  0.00    +0.000 A 
ATOM      7  C   UNL     1       4.888   4.726  17.400  0.00  0.00    +0.000 A 
ATOM      8  N   UNL     1       5.965   5.391  16.982  0.00  0.00    +0.000 NA
ATOM      9  N   UNL     1       4.768   3.359  17.382  0.00  0.00    +0.000 N 
ATOM     10  C   UNL     1       3.564   2.972  17.912  0.00  0.00    +0.000 A 
ATOM     11  C   UNL     1       3.029   1.685  18.114  0.00  0.00    +0.000 A 
ATOM     12  C   UNL     1       1.771   1.579  18.710  0.00  0.00    +0.000 A 
ATOM     13  C   UNL     1       1.079   2.722  19.088  0.00  0.00    +0.000 A 
ATOM     14  C   UNL     1       1.609   3.997  18.876  0.00  0.00    +0.000 A 
ATOM     15  C   UNL     1       2.877   4.144  18.267  0.00  0.00    +0.000 A 
ATOM     16  H   UNL     1       6.624   8.404  16.548  0.00  0.00    +0.000 HD
ATOM     17  H   UNL     1       7.486   6.977  16.092  0.00  0.00    +0.000 HD
ATOM     18  H   UNL     1       1.770   6.627  18.566  0.00  0.00    +0.000 HD
ATOM     19  H   UNL     1       5.490   2.744  17.042  0.00  0.00    +0.000 HD
ENDROOT
BRANCH   5  20
ATOM     20  C   UNL     1       2.152   8.619  18.866  0.00  0.00    +0.000 C 
ATOM     21  C   UNL     1       1.511   9.548  17.828  0.00  0.00    +0.000 C 
ATOM     22  C   UNL     1       0.016   9.769  18.009  0.00  0.00    +0.000 C 
ATOM     23  C   UNL     1      -0.298  10.204  19.430  0.00  0.00    +0.000 C 
ATOM     24  C   UNL     1       0.115   9.122  20.419  0.00  0.00    +0.000 C 
ATOM     25  C   UNL     1       1.583   8.712  20.285  0.00  0.00    +0.000 C 
ENDBRANCH   5  20
BRANCH  13  26
ATOM     26  O   UNL     1      -0.145   2.647  19.690  0.00  0.00    +0.000 OA
ATOM     27  H   UNL     1      -0.019   2.592  20.651  0.00  0.00    +0.000 HD
ENDBRANCH  13  26
TORSDOF 2
ENDMDL
MODEL 3
REMARK VINA RESULT:      -8.0      4.076      5.883
REMARK  Name = 
REMARK  2 active torsions:
REMARK  status: ('A' for Active; 'I' for Inactive)
REMARK    1  A    between atoms: N_5  and  C_6
REMARK    2  A    between atoms: C_19  and  O_20
REMARK                            x       y       z     vdW  Elec       q    Type
REMARK                         _______ _______ _______ _____ _____    ______ ____
ROOT
ATOM      1  N   UNL     1       1.041   2.837  21.313  0.00  0.00    +0.000 N 
ATOM      2  C   UNL     1       1.996   3.613  20.686  0.00  0.00    +0.000 A 
ATOM      3  N   UNL     1       1.735   4.931  20.571  0.00  0.00    +0.000 NA
ATOM      4  C   UNL     1       2.627   5.737  19.948  0.00  0.00    +0.000 A 
ATOM      5  N   UNL     1       2.478   7.102  19.909  0.00  0.00    +0.000 N 
ATOM      6  C   UNL     1       3.800   5.123  19.417  0.00  0.00    +0.000 A 
ATOM      7  C   UNL     1       3.948   3.768  19.653  0.00  0.00    +0.000 A 
ATOM      8  N   UNL     1       3.097   2.964  20.291  0.00  0.00    +0.000 NA
ATOM      9  N   UNL     1       5.144   3.359  19.118  0.00  0.00    +0.000 N 
ATOM     10  C   UNL     1       5.775   4.402  18.491  0.00  0.00    +0.000 A 
ATOM     11  C   UNL     1       6.997   4.439  17.792  0.00  0.00    +0.000 A 
ATOM     12  C   UNL     1       7.393   5.650  17.219  0.00  0.00    +0.000 A 
ATOM     13  C   UNL     1       6.591   6.777  17.344  0.00  0.00    +0.000 A 
ATOM     14  C   UNL     1       5.384   6.736  18.046  0.00  0.00    +0.000 A 
ATOM     15  C   UNL     1       4.955   5.530  18.648  0.00  0.00    +0.000 A 
ATOM     16  H   UNL     1       0.468   3.422  21.899  0.00  0.00    +0.000 HD
ATOM     17  H   UNL     1       1.465   2.020  21.729  0.00  0.00    +0.000 HD
ATOM     18  H   UNL     1       3.237   7.525  19.392  0.00  0.00    +0.000 HD
ATOM     19  H   UNL     1       5.479   2.411  19.172  0.00  0.00    +0.000 HD
ENDROOT
BRANCH   5  20
ATOM     20  C   UNL     1       1.309   7.981  19.918  0.00  0.00    +0.000 C 
ATOM     21  C   UNL     1       0.818   8.248  21.346  0.00  0.00    +0.000 C 
ATOM     22  C   UNL     1       1.131   9.639  21.878  0.00  0.00    +0.000 C 
ATOM     23  C   UNL     1       0.660  10.708  20.906  0.00  0.00    +0.000 C 
ATOM     24  C   UNL     1       1.383  10.568  19.573  0.00  0.00    +0.000 C 
ATOM     25  C   UNL     1       1.246   9.173  18.958  0.00  0.00    +0.000 C 
ENDBRANCH   5  20
BRANCH  13  26
ATOM     26  O   UNL     1       6.944   7.968  16.777  0.00  0.00    +0.000 OA
ATOM     27  H   UNL     1       7.664   8.362  17.297  0.00  0.00    +0.000 HD
ENDBRANCH  13  26
TORSDOF 2
ENDMDL
MODEL 4
REMARK VINA RESULT:      -8.0      0.850      1.154
REMARK  Name = 
REMARK  2 active torsions:
REMARK  status: ('A' for Active; 'I' for Inactive)
REMARK    1  A    between atoms: N_5  and  C_6
REMARK    2  A    between atoms: C_19  and  O_20
REMARK                            x       y       z     vdW  Elec       q    Type
REMARK                         _______ _______ _______ _____ _____    ______ ____
ROOT
ATOM      1  N   UNL     1       7.738   5.557  19.958  0.00  0.00    +0.000 N 
ATOM      2  C   UNL     1       7.204   5.229  18.727  0.00  0.00    +0.000 A 
ATOM      3  N   UNL     1       6.031   4.565  18.726  0.00  0.00    +0.000 NA
ATOM      4  C   UNL     1       5.471   4.201  17.547  0.00  0.00    +0.000 A 
ATOM      5  N   UNL     1       4.221   3.635  17.475  0.00  0.00    +0.000 N 
ATOM      6  C   UNL     1       6.186   4.526  16.358  0.00  0.00    +0.000 A 
ATOM      7  C   UNL     1       7.355   5.249  16.518  0.00  0.00    +0.000 A 
ATOM      8  N   UNL     1       7.906   5.645  17.667  0.00  0.00    +0.000 NA
ATOM      9  N   UNL     1       7.880   5.514  15.278  0.00  0.00    +0.000 N 
ATOM     10  C   UNL     1       7.112   4.943  14.297  0.00  0.00    +0.000 A 
ATOM     11  C   UNL     1       7.281   4.934  12.899  0.00  0.00    +0.000 A 
ATOM     12  C   UNL     1       6.346   4.240  12.126  0.00  0.00    +0.000 A 
ATOM     13  C   UNL     1       5.286   3.582  12.735  0.00  0.00    +0.000 A 
ATOM     14  C   UNL     1       5.118   3.603  14.122  0.00  0.00    +0.000 A 
ATOM     15  C   UNL     1       6.039   4.303  14.936  0.00  0.00    +0.000 A 
ATOM     16  H   UNL     1       7.004   5.567  20.648  0.00  0.00    +0.000 HD
ATOM     17  H   UNL     1       8.329   6.372  19.883  0.00  0.00    +0.000 HD
ATOM     18  H   UNL     1       3.984   3.425  16.515  0.00  0.00    +0.000 HD
ATOM     19  H   UNL     1       8.729   6.037  15.137  0.00  0.00    +0.000 HD
ENDROOT
BRANCH   5  20
ATOM     20  C   UNL     1       3.448   2.796  18.391  0.00  0.00    +0.000 C 
ATOM     21  C   UNL     1       3.356   3.423  19.786  0.00  0.00    +0.000 C 
ATOM     22  C   UNL     1       1.999   4.019  20.128  0.00  0.00    +0.000 C 
ATOM     23  C   UNL     1       0.889   3.011  19.885  0.00  0.00    +0.000 C 
ATOM     24  C   UNL     1       0.844   2.616  18.414  0.00  0.00    +0.000 C 
ATOM     25  C   UNL     1       2.183   2.091  17.892  0.00  0.00    +0.000 C 
ENDBRANCH   5  20
BRANCH  13  26
ATOM     26  O   UNL     1       4.370   2.881  12.005  0.00  0.00    +0.000 OA
ATOM     27  H   UNL     1       3.514   3.338  12.053  0.00  0.00    +0.000 HD
ENDBRANCH  13  26
TORSDOF 2
ENDMDL
MODEL 5
REMARK VINA RESULT:      -7.8      4.280      7.129
REMARK  Name = 
REMARK  2 active torsions:
REMARK  status: ('A' for Active; 'I' for Inactive)
REMARK    1  A    between atoms: N_5  and  C_6
REMARK    2  A    between atoms: C_19  and  O_20
REMARK                            x       y       z     vdW  Elec       q    Type
REMARK                         _______ _______ _______ _____ _____    ______ ____
ROOT
ATOM      1  N   UNL     1       3.777   3.018  20.169  0.00  0.00    +0.000 N 
ATOM      2  C   UNL     1       3.392   4.288  19.787  0.00  0.00    +0.000 A 
ATOM      3  N   UNL     1       3.916   4.767  18.640  0.00  0.00    +0.000 NA
ATOM      4  C   UNL     1       3.589   6.014  18.227  0.00  0.00    +0.000 A 
ATOM      5  N   UNL     1       3.988   6.510  17.009  0.00  0.00    +0.000 N 
ATOM      6  C   UNL     1       2.713   6.769  19.061  0.00  0.00    +0.000 A 
ATOM      7  C   UNL     1       2.224   6.125  20.184  0.00  0.00    +0.000 A 
ATOM      8  N   UNL     1       2.508   4.888  20.591  0.00  0.00    +0.000 NA
ATOM      9  N   UNL     1       1.367   6.976  20.838  0.00  0.00    +0.000 N 
ATOM     10  C   UNL     1       1.312   8.189  20.201  0.00  0.00    +0.000 A 
ATOM     11  C   UNL     1       0.593   9.356  20.526  0.00  0.00    +0.000 A 
ATOM     12  C   UNL     1       0.747  10.475  19.704  0.00  0.00    +0.000 A 
ATOM     13  C   UNL     1       1.588  10.422  18.601  0.00  0.00    +0.000 A 
ATOM     14  C   UNL     1       2.291   9.259  18.278  0.00  0.00    +0.000 A 
ATOM     15  C   UNL     1       2.154   8.103  19.081  0.00  0.00    +0.000 A 
ATOM     16  H   UNL     1       4.104   2.511  19.363  0.00  0.00    +0.000 HD
ATOM     17  H   UNL     1       3.064   2.588  20.742  0.00  0.00    +0.000 HD
ATOM     18  H   UNL     1       3.656   7.457  16.887  0.00  0.00    +0.000 HD
ATOM     19  H   UNL     1       0.877   6.728  21.682  0.00  0.00    +0.000 HD
ENDROOT
BRANCH   5  20
ATOM     20  C   UNL     1       5.155   6.262  16.162  0.00  0.00    +0.000 C 
ATOM     21  C   UNL     1       6.463   6.537  16.913  0.00  0.00    +0.000 C 
ATOM     22  C   UNL     1       7.235   5.292  17.324  0.00  0.00    +0.000 C 
ATOM     23  C   UNL     1       7.447   4.370  16.135  0.00  0.00    +0.000 C 
ATOM     24  C   UNL     1       6.107   3.900  15.584  0.00  0.00    +0.000 C 
ATOM     25  C   UNL     1       5.169   5.054  15.221  0.00  0.00    +0.000 C 
ENDBRANCH   5  20
BRANCH  13  26
ATOM     26  O   UNL     1       1.770  11.508  17.793  0.00  0.00    +0.000 OA
ATOM     27  H   UNL     1       1.982  11.199  16.896  0.00  0.00    +0.000 HD
ENDBRANCH  13  26
TORSDOF 2
ENDMDL
MODEL 6
REMARK VINA RESULT:      -7.7      5.133      7.627
REMARK  Name = 
REMARK  2 active torsions:
REMARK  status: ('A' for Active; 'I' for Inactive)
REMARK    1  A    between atoms: N_5  and  C_6
REMARK    2  A    between atoms: C_19  and  O_20
REMARK                            x       y       z     vdW  Elec       q    Type
REMARK                         _______ _______ _______ _____ _____    ______ ____
ROOT
ATOM      1  N   UNL     1       4.414   6.540  16.350  0.00  0.00    +0.000 N 
ATOM      2  C   UNL     1       3.647   6.981  17.411  0.00  0.00    +0.000 A 
ATOM      3  N   UNL     1       3.431   6.107  18.415  0.00  0.00    +0.000 NA
ATOM      4  C   UNL     1       2.670   6.479  19.472  0.00  0.00    +0.000 A 
ATOM      5  N   UNL     1       2.517   5.682  20.580  0.00  0.00    +0.000 N 
ATOM      6  C   UNL     1       2.111   7.791  19.443  0.00  0.00    +0.000 A 
ATOM      7  C   UNL     1       2.459   8.587  18.366  0.00  0.00    +0.000 A 
ATOM      8  N   UNL     1       3.232   8.251  17.333  0.00  0.00    +0.000 NA
ATOM      9  N   UNL     1       1.876   9.819  18.526  0.00  0.00    +0.000 N 
ATOM     10  C   UNL     1       1.109   9.846  19.662  0.00  0.00    +0.000 A 
ATOM     11  C   UNL     1       0.319  10.880  20.203  0.00  0.00    +0.000 A 
ATOM     12  C   UNL     1      -0.392  10.622  21.377  0.00  0.00    +0.000 A 
ATOM     13  C   UNL     1      -0.312   9.375  21.982  0.00  0.00    +0.000 A 
ATOM     14  C   UNL     1       0.481   8.356  21.447  0.00  0.00    +0.000 A 
ATOM     15  C   UNL     1       1.223   8.584  20.264  0.00  0.00    +0.000 A 
ATOM     16  H   UNL     1       4.985   5.767  16.650  0.00  0.00    +0.000 HD
ATOM     17  H   UNL     1       4.870   7.318  15.895  0.00  0.00    +0.000 HD
ATOM     18  H   UNL     1       1.906   6.126  21.253  0.00  0.00    +0.000 HD
ATOM     19  H   UNL     1       1.992  10.576  17.872  0.00  0.00    +0.000 HD
ENDROOT
BRANCH   5  20
ATOM     20  C   UNL     1       2.533   4.232  20.779  0.00  0.00    +0.000 C 
ATOM     21  C   UNL     1       1.122   3.638  20.698  0.00  0.00    +0.000 C 
ATOM     22  C   UNL     1       0.830   2.865  19.420  0.00  0.00    +0.000 C 
ATOM     23  C   UNL     1       1.902   1.819  19.164  0.00  0.00    +0.000 C 
ATOM     24  C   UNL     1       3.259   2.485  18.980  0.00  0.00    +0.000 C 
ATOM     25  C   UNL     1       3.648   3.391  20.151  0.00  0.00    +0.000 C 
ENDBRANCH   5  20
BRANCH  13  26
ATOM     26  O   UNL     1      -1.011   9.089  23.120  0.00  0.00    +0.000 OA
ATOM     27  H   UNL     1      -0.455   8.548  23.703  0.00  0.00    +0.000 HD
ENDBRANCH  13  26
TORSDOF 2
ENDMDL
MODEL 7
REMARK VINA RESULT:      -7.6      3.829      5.418
REMARK  Name = 
REMARK  2 active torsions:
REMARK  status: ('A' for Active; 'I' for Inactive)
REMARK    1  A    between atoms: N_5  and  C_6
REMARK    2  A    between atoms: C_19  and  O_20
REMARK                            x       y       z     vdW  Elec       q    Type
REMARK                         _______ _______ _______ _____ _____    ______ ____
ROOT
ATOM      1  N   UNL     1       1.780   2.906  22.251  0.00  0.00    +0.000 N 
ATOM      2  C   UNL     1       2.373   3.568  21.194  0.00  0.00    +0.000 A 
ATOM      3  N   UNL     1       2.011   4.852  20.996  0.00  0.00    +0.000 NA
ATOM      4  C   UNL     1       2.546   5.544  19.961  0.00  0.00    +0.000 A 
ATOM      5  N   UNL     1       2.314   6.886  19.782  0.00  0.00    +0.000 N 
ATOM      6  C   UNL     1       3.457   4.849  19.113  0.00  0.00    +0.000 A 
ATOM      7  C   UNL     1       3.763   3.548  19.471  0.00  0.00    +0.000 A 
ATOM      8  N   UNL     1       3.273   2.860  20.503  0.00  0.00    +0.000 NA
ATOM      9  N   UNL     1       4.683   3.054  18.581  0.00  0.00    +0.000 N 
ATOM     10  C   UNL     1       4.961   3.981  17.609  0.00  0.00    +0.000 A 
ATOM     11  C   UNL     1       5.815   3.901  16.493  0.00  0.00    +0.000 A 
ATOM     12  C   UNL     1       5.888   5.003  15.637  0.00  0.00    +0.000 A 
ATOM     13  C   UNL     1       5.132   6.139  15.896  0.00  0.00    +0.000 A 
ATOM     14  C   UNL     1       4.294   6.216  17.010  0.00  0.00    +0.000 A 
ATOM     15  C   UNL     1       4.201   5.124  17.904  0.00  0.00    +0.000 A 
ATOM     16  H   UNL     1       1.444   3.580  22.920  0.00  0.00    +0.000 HD
ATOM     17  H   UNL     1       2.379   2.164  22.586  0.00  0.00    +0.000 HD
ATOM     18  H   UNL     1       2.789   7.219  18.953  0.00  0.00    +0.000 HD
ATOM     19  H   UNL     1       5.068   2.125  18.640  0.00  0.00    +0.000 HD
ENDROOT
BRANCH   5  20
ATOM     20  C   UNL     1       1.189   7.761  20.115  0.00  0.00    +0.000 C 
ATOM     21  C   UNL     1       1.044   7.937  21.631  0.00  0.00    +0.000 C 
ATOM     22  C   UNL     1       1.489   9.292  22.161  0.00  0.00    +0.000 C 
ATOM     23  C   UNL     1       0.820  10.419  21.392  0.00  0.00    +0.000 C 
ATOM     24  C   UNL     1       1.214  10.365  19.922  0.00  0.00    +0.000 C 
ATOM     25  C   UNL     1       0.922   9.011  19.271  0.00  0.00    +0.000 C 
ENDBRANCH   5  20
BRANCH  13  26
ATOM     26  O   UNL     1       5.170   7.223  15.066  0.00  0.00    +0.000 OA
ATOM     27  H   UNL     1       4.686   7.011  14.251  0.00  0.00    +0.000 HD
ENDBRANCH  13  26
TORSDOF 2
ENDMDL
MODEL 8
REMARK VINA RESULT:      -7.4      3.870      6.903
REMARK  Name = 
REMARK  2 active torsions:
REMARK  status: ('A' for Active; 'I' for Inactive)
REMARK    1  A    between atoms: N_5  and  C_6
REMARK    2  A    between atoms: C_19  and  O_20
REMARK                            x       y       z     vdW  Elec       q    Type
REMARK                         _______ _______ _______ _____ _____    ______ ____
ROOT
ATOM      1  N   UNL     1       3.009   2.329  21.635  0.00  0.00    +0.000 N 
ATOM      2  C   UNL     1       2.840   3.507  20.934  0.00  0.00    +0.000 A 
ATOM      3  N   UNL     1       3.447   3.597  19.733  0.00  0.00    +0.000 NA
ATOM      4  C   UNL     1       3.331   4.737  19.011  0.00  0.00    +0.000 A 
ATOM      5  N   UNL     1       3.819   4.844  17.731  0.00  0.00    +0.000 N 
ATOM      6  C   UNL     1       2.582   5.803  19.589  0.00  0.00    +0.000 A 
ATOM      7  C   UNL     1       1.982   5.544  20.810  0.00  0.00    +0.000 A 
ATOM      8  N   UNL     1       2.057   4.419  21.521  0.00  0.00    +0.000 NA
ATOM      9  N   UNL     1       1.269   6.653  21.190  0.00  0.00    +0.000 N 
ATOM     10  C   UNL     1       1.419   7.662  20.274  0.00  0.00    +0.000 A 
ATOM     11  C   UNL     1       0.897   8.970  20.266  0.00  0.00    +0.000 A 
ATOM     12  C   UNL     1       1.238   9.811  19.204  0.00  0.00    +0.000 A 
ATOM     13  C   UNL     1       2.071   9.354  18.192  0.00  0.00    +0.000 A 
ATOM     14  C   UNL     1       2.579   8.052  18.200  0.00  0.00    +0.000 A 
ATOM     15  C   UNL     1       2.247   7.169  19.254  0.00  0.00    +0.000 A 
ATOM     16  H   UNL     1       3.257   1.593  20.995  0.00  0.00    +0.000 HD
ATOM     17  H   UNL     1       2.230   2.172  22.259  0.00  0.00    +0.000 HD
ATOM     18  H   UNL     1       3.646   5.771  17.364  0.00  0.00    +0.000 HD
ATOM     19  H   UNL     1       0.737   6.703  22.044  0.00  0.00    +0.000 HD
ENDROOT
BRANCH   5  20
ATOM     20  C   UNL     1       4.939   4.215  17.031  0.00  0.00    +0.000 C 
ATOM     21  C   UNL     1       4.780   4.317  15.509  0.00  0.00    +0.000 C 
ATOM     22  C   UNL     1       5.698   5.328  14.840  0.00  0.00    +0.000 C 
ATOM     23  C   UNL     1       7.144   5.096  15.244  0.00  0.00    +0.000 C 
ATOM     24  C   UNL     1       7.309   5.274  16.748  0.00  0.00    +0.000 C 
ATOM     25  C   UNL     1       6.364   4.388  17.565  0.00  0.00    +0.000 C 
ENDBRANCH   5  20
BRANCH  13  26
ATOM     26  O   UNL     1       2.437  10.161  17.152  0.00  0.00    +0.000 OA
ATOM     27  H   UNL     1       2.398  11.086  17.445  0.00  0.00    +0.000 HD
ENDBRANCH  13  26
TORSDOF 2
ENDMDL
MODEL 9
REMARK VINA RESULT:      -7.4      3.425      6.909
REMARK  Name = 
REMARK  2 active torsions:
REMARK  status: ('A' for Active; 'I' for Inactive)
REMARK    1  A    between atoms: N_5  and  C_6
REMARK    2  A    between atoms: C_19  and  O_20
REMARK                            x       y       z     vdW  Elec       q    Type
REMARK                         _______ _______ _______ _____ _____    ______ ____
ROOT
ATOM      1  N   UNL     1       1.768   9.640  17.868  0.00  0.00    +0.000 N 
ATOM      2  C   UNL     1       2.245   8.430  18.333  0.00  0.00    +0.000 A 
ATOM      3  N   UNL     1       3.366   7.951  17.755  0.00  0.00    +0.000 NA
ATOM      4  C   UNL     1       3.868   6.759  18.158  0.00  0.00    +0.000 A 
ATOM      5  N   UNL     1       5.070   6.279  17.698  0.00  0.00    +0.000 N 
ATOM      6  C   UNL     1       3.150   6.058  19.171  0.00  0.00    +0.000 A 
ATOM      7  C   UNL     1       2.042   6.699  19.698  0.00  0.00    +0.000 A 
ATOM      8  N   UNL     1       1.551   7.885  19.338  0.00  0.00    +0.000 NA
ATOM      9  N   UNL     1       1.508   5.908  20.685  0.00  0.00    +0.000 N 
ATOM     10  C   UNL     1       2.207   4.734  20.794  0.00  0.00    +0.000 A 
ATOM     11  C   UNL     1       2.004   3.630  21.644  0.00  0.00    +0.000 A 
ATOM     12  C   UNL     1       2.864   2.536  21.522  0.00  0.00    +0.000 A 
ATOM     13  C   UNL     1       3.887   2.554  20.583  0.00  0.00    +0.000 A 
ATOM     14  C   UNL     1       4.090   3.656  19.749  0.00  0.00    +0.000 A 
ATOM     15  C   UNL     1       3.245   4.785  19.851  0.00  0.00    +0.000 A 
ATOM     16  H   UNL     1       2.517  10.146  17.425  0.00  0.00    +0.000 HD
ATOM     17  H   UNL     1       1.238  10.112  18.587  0.00  0.00    +0.000 HD
ATOM     18  H   UNL     1       5.267   5.374  18.104  0.00  0.00    +0.000 HD
ATOM     19  H   UNL     1       0.698   6.168  21.224  0.00  0.00    +0.000 HD
ENDROOT
BRANCH   5  20
ATOM     20  C   UNL     1       5.800   6.448  16.441  0.00  0.00    +0.000 C 
ATOM     21  C   UNL     1       7.252   5.973  16.567  0.00  0.00    +0.000 C 
ATOM     22  C   UNL     1       7.552   4.651  15.878  0.00  0.00    +0.000 C 
ATOM     23  C   UNL     1       7.087   4.677  14.432  0.00  0.00    +0.000 C 
ATOM     24  C   UNL     1       5.579   4.882  14.363  0.00  0.00    +0.000 C 
ATOM     25  C   UNL     1       5.108   6.132  15.112  0.00  0.00    +0.000 C 
ENDBRANCH   5  20
BRANCH  13  26
ATOM     26  O   UNL     1       4.731   1.490  20.430  0.00  0.00    +0.000 OA
ATOM     27  H   UNL     1       5.507   1.777  19.921  0.00  0.00    +0.000 HD
ENDBRANCH  13  26
TORSDOF 2
ENDMDL
