MODEL 1
REMARK VINA RESULT:      -8.8      0.000      0.000
REMARK  Name = 
REMARK  4 active torsions:
REMARK  status: ('A' for Active; 'I' for Inactive)
REMARK    1  A    between atoms: C_1  and  C_2
REMARK    2  A    between atoms: C_2  and  C_3
REMARK    3  A    between atoms: N_10  and  C_11
REMARK    4  A    between atoms: C_15  and  C_16
REMARK                            x       y       z     vdW  Elec       q    Type
REMARK                         _______ _______ _______ _____ _____    ______ ____
ROOT
ATOM      1  C   UNL     1       2.163   4.687  17.850  0.00  0.00    +0.000 C 
ATOM      2  C   UNL     1       2.723   4.886  19.273  0.00  0.00    +0.000 C 
ATOM      3  C   UNL     1       2.726   6.396  19.591  0.00  0.00    +0.000 C 
ATOM      4  N   UNL     1       1.696   4.376  20.182  0.00  0.00    +0.000 NA
ATOM      5  C   UNL     1       1.893   3.238  20.739  0.00  0.00    +0.000 C 
ATOM      6  N   UNL     1       0.949   2.761  21.581  0.00  0.00    +0.000 N 
ATOM      7  N   UNL     1       2.967   2.446  20.523  0.00  0.00    +0.000 NA
ATOM      8  C   UNL     1       3.982   2.952  19.902  0.00  0.00    +0.000 C 
ATOM      9  N   UNL     1       5.066   2.134  19.785  0.00  0.00    +0.000 N 
ATOM     10  N   UNL     1       4.059   4.233  19.390  0.00  0.00    +0.000 N 
ATOM     11  H   UNL     1       0.043   3.176  21.429  0.00  0.00    +0.000 HD
ATOM     12  H   UNL     1       0.945   1.748  21.625  0.00  0.00    +0.000 HD
ATOM     13  H   UNL     1       4.968   1.303  20.360  0.00  0.00    +0.000 HD
ATOM     14  H   UNL     1       5.956   2.591  19.921  0.00  0.00    +0.000 HD
ENDROOT
BRANCH  10  15
ATOM     15  C   UNL     1       5.119   4.725  18.575  0.00  0.00    +0.000 A 
ATOM     16  C   UNL     1       6.213   5.407  19.132  0.00  0.00    +0.000 A 
ATOM     17  C   UNL     1       7.232   5.957  18.350  0.00  0.00    +0.000 A 
ATOM     18  C   UNL     1       7.247   5.739  16.983  0.00  0.00    +0.000 A 
ATOM     19  C   UNL     1       6.235   4.980  16.389  0.00  0.00    +0.000 A 
ATOM     20  C   UNL     1       5.163   4.522  17.185  0.00  0.00    +0.000 A 
BRANCH  19  21
ATOM     21  C   UNL     1       6.294   4.624  14.925  0.00  0.00    +0.000 C 
ATOM     22  F   UNL     1       5.249   5.118  14.205  0.00  0.00    +0.000 F 
ATOM     23  F   UNL     1       7.418   5.105  14.322  0.00  0.00    +0.000 F 
ATOM     24  F   UNL     1       6.296   3.281  14.709  0.00  0.00    +0.000 F 
ENDBRANCH  19  21
ENDBRANCH  10  15
TORSDOF 2
ENDMDL
MODEL 2
REMARK VINA RESULT:      -8.6      1.807      2.453
REMARK  Name = 
REMARK  4 active torsions:
REMARK  status: ('A' for Active; 'I' for Inactive)
REMARK    1  A    between atoms: C_1  and  C_2
REMARK    2  A    between atoms: C_2  and  C_3
REMARK    3  A    between atoms: N_10  and  C_11
REMARK    4  A    between atoms: C_15  and  C_16
REMARK                            x       y       z     vdW  Elec       q    Type
REMARK                         _______ _______ _______ _____ _____    ______ ____
ROOT
ATOM      1  C   UNL     1       1.596   4.173  18.152  0.00  0.00    +0.000 C 
ATOM      2  C   UNL     1       2.404   4.606  19.393  0.00  0.00    +0.000 C 
ATOM      3  C   UNL     1       2.298   6.140  19.535  0.00  0.00    +0.000 C 
ATOM      4  N   UNL     1       1.646   4.130  20.550  0.00  0.00    +0.000 NA
ATOM      5  C   UNL     1       2.080   3.098  21.173  0.00  0.00    +0.000 C 
ATOM      6  N   UNL     1       1.386   2.653  22.245  0.00  0.00    +0.000 N 
ATOM      7  N   UNL     1       3.173   2.383  20.821  0.00  0.00    +0.000 NA
ATOM      8  C   UNL     1       3.978   2.892  19.946  0.00  0.00    +0.000 C 
ATOM      9  N   UNL     1       5.102   2.166  19.690  0.00  0.00    +0.000 N 
ATOM     10  N   UNL     1       3.802   4.097  19.292  0.00  0.00    +0.000 N 
ATOM     11  H   UNL     1       0.427   2.962  22.245  0.00  0.00    +0.000 HD
ATOM     12  H   UNL     1       1.508   1.658  22.399  0.00  0.00    +0.000 HD
ATOM     13  H   UNL     1       5.218   1.413  20.360  0.00  0.00    +0.000 HD
ATOM     14  H   UNL     1       5.942   2.715  19.582  0.00  0.00    +0.000 HD
ENDROOT
BRANCH  10  15
ATOM     15  C   UNL     1       4.613   4.570  18.220  0.00  0.00    +0.000 A 
ATOM     16  C   UNL     1       4.418   4.121  16.903  0.00  0.00    +0.000 A 
ATOM     17  C   UNL     1       5.241   4.517  15.846  0.00  0.00    +0.000 A 
ATOM     18  C   UNL     1       6.220   5.474  16.054  0.00  0.00    +0.000 A 
ATOM     19  C   UNL     1       6.390   6.029  17.325  0.00  0.00    +0.000 A 
ATOM     20  C   UNL     1       5.616   5.537  18.398  0.00  0.00    +0.000 A 
BRANCH  19  21
ATOM     21  C   UNL     1       7.363   7.158  17.551  0.00  0.00    +0.000 C 
ATOM     22  F   UNL     1       8.182   7.387  16.487  0.00  0.00    +0.000 F 
ATOM     23  F   UNL     1       6.734   8.342  17.794  0.00  0.00    +0.000 F 
ATOM     24  F   UNL     1       8.184   6.942  18.614  0.00  0.00    +0.000 F 
ENDBRANCH  19  21
ENDBRANCH  10  15
TORSDOF 2
ENDMDL
MODEL 3
REMARK VINA RESULT:      -8.3      4.573      5.859
REMARK  Name = 
REMARK  4 active torsions:
REMARK  status: ('A' for Active; 'I' for Inactive)
REMARK    1  A    between atoms: C_1  and  C_2
REMARK    2  A    between atoms: C_2  and  C_3
REMARK    3  A    between atoms: N_10  and  C_11
REMARK    4  A    between atoms: C_15  and  C_16
REMARK                            x       y       z     vdW  Elec       q    Type
REMARK                         _______ _______ _______ _____ _____    ______ ____
ROOT
ATOM      1  C   UNL     1       1.847   3.834  17.948  0.00  0.00    +0.000 C 
ATOM      2  C   UNL     1       2.409   3.919  19.381  0.00  0.00    +0.000 C 
ATOM      3  C   UNL     1       1.228   3.880  20.374  0.00  0.00    +0.000 C 
ATOM      4  N   UNL     1       3.069   2.636  19.629  0.00  0.00    +0.000 NA
ATOM      5  C   UNL     1       4.350   2.600  19.601  0.00  0.00    +0.000 C 
ATOM      6  N   UNL     1       4.966   1.419  19.830  0.00  0.00    +0.000 N 
ATOM      7  N   UNL     1       5.148   3.655  19.320  0.00  0.00    +0.000 NA
ATOM      8  C   UNL     1       4.618   4.835  19.308  0.00  0.00    +0.000 C 
ATOM      9  N   UNL     1       5.484   5.866  19.100  0.00  0.00    +0.000 N 
ATOM     10  N   UNL     1       3.281   5.121  19.515  0.00  0.00    +0.000 N 
ATOM     11  H   UNL     1       4.367   0.626  19.666  0.00  0.00    +0.000 HD
ATOM     12  H   UNL     1       5.873   1.362  19.379  0.00  0.00    +0.000 HD
ATOM     13  H   UNL     1       6.449   5.557  19.158  0.00  0.00    +0.000 HD
ATOM     14  H   UNL     1       5.309   6.683  19.667  0.00  0.00    +0.000 HD
ENDROOT
BRANCH  10  15
ATOM     15  C   UNL     1       2.685   6.404  19.345  0.00  0.00    +0.000 A 
ATOM     16  C   UNL     1       2.688   7.051  18.099  0.00  0.00    +0.000 A 
ATOM     17  C   UNL     1       2.170   8.337  17.920  0.00  0.00    +0.000 A 
ATOM     18  C   UNL     1       1.524   8.973  18.967  0.00  0.00    +0.000 A 
ATOM     19  C   UNL     1       1.406   8.331  20.202  0.00  0.00    +0.000 A 
ATOM     20  C   UNL     1       2.026   7.077  20.387  0.00  0.00    +0.000 A 
BRANCH  19  21
ATOM     21  C   UNL     1       0.603   8.949  21.318  0.00  0.00    +0.000 C 
ATOM     22  F   UNL     1       1.305   9.090  22.477  0.00  0.00    +0.000 F 
ATOM     23  F   UNL     1       0.156  10.198  21.004  0.00  0.00    +0.000 F 
ATOM     24  F   UNL     1      -0.503   8.223  21.637  0.00  0.00    +0.000 F 
ENDBRANCH  19  21
ENDBRANCH  10  15
TORSDOF 2
ENDMDL
MODEL 4
REMARK VINA RESULT:      -8.1      1.006      1.006
REMARK  Name = 
REMARK  4 active torsions:
REMARK  status: ('A' for Active; 'I' for Inactive)
REMARK    1  A    between atoms: C_1  and  C_2
REMARK    2  A    between atoms: C_2  and  C_3
REMARK    3  A    between atoms: N_10  and  C_11
REMARK    4  A    between atoms: C_15  and  C_16
REMARK                            x       y       z     vdW  Elec       q    Type
REMARK                         _______ _______ _______ _____ _____    ______ ____
ROOT
ATOM      1  C   UNL     1       1.491   4.238  17.985  0.00  0.00    +0.000 C 
ATOM      2  C   UNL     1       2.242   4.738  19.235  0.00  0.00    +0.000 C 
ATOM      3  C   UNL     1       1.924   6.235  19.432  0.00  0.00    +0.000 C 
ATOM      4  N   UNL     1       1.571   4.121  20.379  0.00  0.00    +0.000 NA
ATOM      5  C   UNL     1       2.152   3.139  20.964  0.00  0.00    +0.000 C 
ATOM      6  N   UNL     1       1.538   2.565  22.023  0.00  0.00    +0.000 N 
ATOM      7  N   UNL     1       3.330   2.597  20.581  0.00  0.00    +0.000 NA
ATOM      8  C   UNL     1       4.046   3.243  19.720  0.00  0.00    +0.000 C 
ATOM      9  N   UNL     1       5.259   2.691  19.433  0.00  0.00    +0.000 N 
ATOM     10  N   UNL     1       3.697   4.433  19.109  0.00  0.00    +0.000 N 
ATOM     11  H   UNL     1       0.544   2.736  22.039  0.00  0.00    +0.000 HD
ATOM     12  H   UNL     1       1.799   1.592  22.141  0.00  0.00    +0.000 HD
ATOM     13  H   UNL     1       5.486   1.940  20.076  0.00  0.00    +0.000 HD
ATOM     14  H   UNL     1       6.013   3.356  19.340  0.00  0.00    +0.000 HD
ENDROOT
BRANCH  10  15
ATOM     15  C   UNL     1       4.423   5.052  18.050  0.00  0.00    +0.000 A 
ATOM     16  C   UNL     1       4.965   6.339  18.192  0.00  0.00    +0.000 A 
ATOM     17  C   UNL     1       5.623   6.995  17.148  0.00  0.00    +0.000 A 
ATOM     18  C   UNL     1       5.861   6.331  15.956  0.00  0.00    +0.000 A 
ATOM     19  C   UNL     1       5.430   5.011  15.799  0.00  0.00    +0.000 A 
ATOM     20  C   UNL     1       4.679   4.406  16.830  0.00  0.00    +0.000 A 
BRANCH  19  21
ATOM     21  C   UNL     1       5.785   4.226  14.562  0.00  0.00    +0.000 C 
ATOM     22  F   UNL     1       4.771   4.158  13.654  0.00  0.00    +0.000 F 
ATOM     23  F   UNL     1       6.843   4.765  13.893  0.00  0.00    +0.000 F 
ATOM     24  F   UNL     1       6.128   2.938  14.835  0.00  0.00    +0.000 F 
ENDBRANCH  19  21
ENDBRANCH  10  15
TORSDOF 2
ENDMDL
MODEL 5
REMARK VINA RESULT:      -8.0      1.011      1.350
REMARK  Name = 
REMARK  4 active torsions:
REMARK  status: ('A' for Active; 'I' for Inactive)
REMARK    1  A    between atoms: C_1  and  C_2
REMARK    2  A    between atoms: C_2  and  C_3
REMARK    3  A    between atoms: N_10  and  C_11
REMARK    4  A    between atoms: C_15  and  C_16
REMARK                            x       y       z     vdW  Elec       q    Type
REMARK                         _______ _______ _______ _____ _____    ______ ____
ROOT
ATOM      1  C   UNL     1       2.208   5.274  17.672  0.00  0.00    +0.000 C 
ATOM      2  C   UNL     1       2.870   4.802  18.983  0.00  0.00    +0.000 C 
ATOM      3  C   UNL     1       3.432   6.037  19.720  0.00  0.00    +0.000 C 
ATOM      4  N   UNL     1       1.773   4.388  19.858  0.00  0.00    +0.000 NA
ATOM      5  C   UNL     1       1.573   3.133  20.024  0.00  0.00    +0.000 C 
ATOM      6  N   UNL     1       0.562   2.743  20.832  0.00  0.00    +0.000 N 
ATOM      7  N   UNL     1       2.277   2.150  19.419  0.00  0.00    +0.000 NA
ATOM      8  C   UNL     1       3.376   2.470  18.816  0.00  0.00    +0.000 C 
ATOM      9  N   UNL     1       4.084   1.430  18.295  0.00  0.00    +0.000 N 
ATOM     10  N   UNL     1       3.885   3.749  18.691  0.00  0.00    +0.000 N 
ATOM     11  H   UNL     1      -0.140   3.456  20.954  0.00  0.00    +0.000 HD
ATOM     12  H   UNL     1       0.195   1.831  20.581  0.00  0.00    +0.000 HD
ATOM     13  H   UNL     1       3.721   0.537  18.614  0.00  0.00    +0.000 HD
ATOM     14  H   UNL     1       5.085   1.500  18.414  0.00  0.00    +0.000 HD
ENDROOT
BRANCH  10  15
ATOM     15  C   UNL     1       5.010   4.106  17.893  0.00  0.00    +0.000 A 
ATOM     16  C   UNL     1       6.234   4.469  18.479  0.00  0.00    +0.000 A 
ATOM     17  C   UNL     1       7.333   4.886  17.723  0.00  0.00    +0.000 A 
ATOM     18  C   UNL     1       7.276   4.842  16.340  0.00  0.00    +0.000 A 
ATOM     19  C   UNL     1       6.115   4.392  15.706  0.00  0.00    +0.000 A 
ATOM     20  C   UNL     1       4.985   4.073  16.489  0.00  0.00    +0.000 A 
BRANCH  19  21
ATOM     21  C   UNL     1       6.071   4.218  14.209  0.00  0.00    +0.000 C 
ATOM     22  F   UNL     1       6.432   2.970  13.799  0.00  0.00    +0.000 F 
ATOM     23  F   UNL     1       4.823   4.426  13.702  0.00  0.00    +0.000 F 
ATOM     24  F   UNL     1       6.894   5.080  13.553  0.00  0.00    +0.000 F 
ENDBRANCH  19  21
ENDBRANCH  10  15
TORSDOF 2
ENDMDL
MODEL 6
REMARK VINA RESULT:      -7.8      1.278      2.349
REMARK  Name = 
REMARK  4 active torsions:
REMARK  status: ('A' for Active; 'I' for Inactive)
REMARK    1  A    between atoms: C_1  and  C_2
REMARK    2  A    between atoms: C_2  and  C_3
REMARK    3  A    between atoms: N_10  and  C_11
REMARK    4  A    between atoms: C_15  and  C_16
REMARK                            x       y       z     vdW  Elec       q    Type
REMARK                         _______ _______ _______ _____ _____    ______ ____
ROOT
ATOM      1  C   UNL     1       4.612   2.542  19.970  0.00  0.00    +0.000 C 
ATOM      2  C   UNL     1       3.518   2.736  18.901  0.00  0.00    +0.000 C 
ATOM      3  C   UNL     1       3.540   1.520  17.950  0.00  0.00    +0.000 C 
ATOM      4  N   UNL     1       2.243   2.566  19.598  0.00  0.00    +0.000 NA
ATOM      5  C   UNL     1       1.553   3.614  19.860  0.00  0.00    +0.000 C 
ATOM      6  N   UNL     1       0.373   3.464  20.503  0.00  0.00    +0.000 N 
ATOM      7  N   UNL     1       1.931   4.881  19.577  0.00  0.00    +0.000 NA
ATOM      8  C   UNL     1       2.936   5.053  18.781  0.00  0.00    +0.000 C 
ATOM      9  N   UNL     1       3.221   6.348  18.467  0.00  0.00    +0.000 N 
ATOM     10  N   UNL     1       3.702   4.049  18.218  0.00  0.00    +0.000 N 
ATOM     11  H   UNL     1       0.309   2.595  21.008  0.00  0.00    +0.000 HD
ATOM     12  H   UNL     1       0.120   4.284  21.043  0.00  0.00    +0.000 HD
ATOM     13  H   UNL     1       2.484   6.975  18.774  0.00  0.00    +0.000 HD
ATOM     14  H   UNL     1       3.475   6.501  17.502  0.00  0.00    +0.000 HD
ENDROOT
BRANCH  10  15
ATOM     15  C   UNL     1       4.898   4.256  17.471  0.00  0.00    +0.000 A 
ATOM     16  C   UNL     1       6.122   4.513  18.110  0.00  0.00    +0.000 A 
ATOM     17  C   UNL     1       7.295   4.784  17.401  0.00  0.00    +0.000 A 
ATOM     18  C   UNL     1       7.304   4.692  16.019  0.00  0.00    +0.000 A 
ATOM     19  C   UNL     1       6.135   4.340  15.339  0.00  0.00    +0.000 A 
ATOM     20  C   UNL     1       4.940   4.172  16.070  0.00  0.00    +0.000 A 
BRANCH  19  21
ATOM     21  C   UNL     1       6.148   4.113  13.849  0.00  0.00    +0.000 C 
ATOM     22  F   UNL     1       4.941   4.334  13.257  0.00  0.00    +0.000 F 
ATOM     23  F   UNL     1       7.028   4.934  13.209  0.00  0.00    +0.000 F 
ATOM     24  F   UNL     1       6.503   2.844  13.512  0.00  0.00    +0.000 F 
ENDBRANCH  19  21
ENDBRANCH  10  15
TORSDOF 2
ENDMDL
MODEL 7
REMARK VINA RESULT:      -7.8      0.962      2.260
REMARK  Name = 
REMARK  4 active torsions:
REMARK  status: ('A' for Active; 'I' for Inactive)
REMARK    1  A    between atoms: C_1  and  C_2
REMARK    2  A    between atoms: C_2  and  C_3
REMARK    3  A    between atoms: N_10  and  C_11
REMARK    4  A    between atoms: C_15  and  C_16
REMARK                            x       y       z     vdW  Elec       q    Type
REMARK                         _______ _______ _______ _____ _____    ______ ____
ROOT
ATOM      1  C   UNL     1       4.754   2.093  20.200  0.00  0.00    +0.000 C 
ATOM      2  C   UNL     1       3.622   2.580  19.274  0.00  0.00    +0.000 C 
ATOM      3  C   UNL     1       3.563   1.651  18.042  0.00  0.00    +0.000 C 
ATOM      4  N   UNL     1       2.373   2.262  19.967  0.00  0.00    +0.000 NA
ATOM      5  C   UNL     1       1.731   3.220  20.525  0.00  0.00    +0.000 C 
ATOM      6  N   UNL     1       0.576   2.934  21.167  0.00  0.00    +0.000 N 
ATOM      7  N   UNL     1       2.138   4.509  20.559  0.00  0.00    +0.000 NA
ATOM      8  C   UNL     1       3.113   4.861  19.785  0.00  0.00    +0.000 C 
ATOM      9  N   UNL     1       3.426   6.186  19.800  0.00  0.00    +0.000 N 
ATOM     10  N   UNL     1       3.820   4.021  18.944  0.00  0.00    +0.000 N 
ATOM     11  H   UNL     1       0.506   1.965  21.433  0.00  0.00    +0.000 HD
ATOM     12  H   UNL     1       0.374   3.591  21.912  0.00  0.00    +0.000 HD
ATOM     13  H   UNL     1       2.725   6.728  20.296  0.00  0.00    +0.000 HD
ATOM     14  H   UNL     1       3.643   6.579  18.896  0.00  0.00    +0.000 HD
ENDROOT
BRANCH  10  15
ATOM     15  C   UNL     1       4.988   4.389  18.216  0.00  0.00    +0.000 A 
ATOM     16  C   UNL     1       6.170   4.765  18.874  0.00  0.00    +0.000 A 
ATOM     17  C   UNL     1       7.308   5.194  18.186  0.00  0.00    +0.000 A 
ATOM     18  C   UNL     1       7.336   5.148  16.803  0.00  0.00    +0.000 A 
ATOM     19  C   UNL     1       6.220   4.686  16.100  0.00  0.00    +0.000 A 
ATOM     20  C   UNL     1       5.048   4.356  16.813  0.00  0.00    +0.000 A 
BRANCH  19  21
ATOM     21  C   UNL     1       6.269   4.511  14.604  0.00  0.00    +0.000 C 
ATOM     22  F   UNL     1       6.349   3.208  14.213  0.00  0.00    +0.000 F 
ATOM     23  F   UNL     1       5.160   5.012  13.988  0.00  0.00    +0.000 F 
ATOM     24  F   UNL     1       7.333   5.138  14.033  0.00  0.00    +0.000 F 
ENDBRANCH  19  21
ENDBRANCH  10  15
TORSDOF 2
ENDMDL
MODEL 8
REMARK VINA RESULT:      -7.4      1.635      1.783
REMARK  Name = 
REMARK  4 active torsions:
REMARK  status: ('A' for Active; 'I' for Inactive)
REMARK    1  A    between atoms: C_1  and  C_2
REMARK    2  A    between atoms: C_2  and  C_3
REMARK    3  A    between atoms: N_10  and  C_11
REMARK    4  A    between atoms: C_15  and  C_16
REMARK                            x       y       z     vdW  Elec       q    Type
REMARK                         _______ _______ _______ _____ _____    ______ ____
ROOT
ATOM      1  C   UNL     1       2.407   2.598  17.377  0.00  0.00    +0.000 C 
ATOM      2  C   UNL     1       2.466   3.695  18.460  0.00  0.00    +0.000 C 
ATOM      3  C   UNL     1       1.365   4.735  18.163  0.00  0.00    +0.000 C 
ATOM      4  N   UNL     1       1.984   3.069  19.691  0.00  0.00    +0.000 NA
ATOM      5  C   UNL     1       2.845   2.756  20.587  0.00  0.00    +0.000 C 
ATOM      6  N   UNL     1       2.407   2.178  21.728  0.00  0.00    +0.000 N 
ATOM      7  N   UNL     1       4.182   2.924  20.469  0.00  0.00    +0.000 NA
ATOM      8  C   UNL     1       4.620   3.661  19.500  0.00  0.00    +0.000 C 
ATOM      9  N   UNL     1       5.967   3.862  19.478  0.00  0.00    +0.000 N 
ATOM     10  N   UNL     1       3.843   4.266  18.530  0.00  0.00    +0.000 N 
ATOM     11  H   UNL     1       1.503   1.745  21.625  0.00  0.00    +0.000 HD
ATOM     12  H   UNL     1       3.109   1.588  22.158  0.00  0.00    +0.000 HD
ATOM     13  H   UNL     1       6.404   3.538  20.336  0.00  0.00    +0.000 HD
ATOM     14  H   UNL     1       6.249   4.800  19.235  0.00  0.00    +0.000 HD
ENDROOT
BRANCH  10  15
ATOM     15  C   UNL     1       4.349   4.943  17.383  0.00  0.00    +0.000 A 
ATOM     16  C   UNL     1       4.449   6.343  17.347  0.00  0.00    +0.000 A 
ATOM     17  C   UNL     1       4.878   7.035  16.211  0.00  0.00    +0.000 A 
ATOM     18  C   UNL     1       5.334   6.335  15.107  0.00  0.00    +0.000 A 
ATOM     19  C   UNL     1       5.350   4.938  15.129  0.00  0.00    +0.000 A 
ATOM     20  C   UNL     1       4.816   4.262  16.247  0.00  0.00    +0.000 A 
BRANCH  19  21
ATOM     21  C   UNL     1       5.954   4.155  13.991  0.00  0.00    +0.000 C 
ATOM     22  F   UNL     1       5.083   3.921  12.971  0.00  0.00    +0.000 F 
ATOM     23  F   UNL     1       7.016   4.798  13.428  0.00  0.00    +0.000 F 
ATOM     24  F   UNL     1       6.414   2.934  14.376  0.00  0.00    +0.000 F 
ENDBRANCH  19  21
ENDBRANCH  10  15
TORSDOF 2
ENDMDL
MODEL 9
REMARK VINA RESULT:      -7.4      4.065      5.960
REMARK  Name = 
REMARK  4 active torsions:
REMARK  status: ('A' for Active; 'I' for Inactive)
REMARK    1  A    between atoms: C_1  and  C_2
REMARK    2  A    between atoms: C_2  and  C_3
REMARK    3  A    between atoms: N_10  and  C_11
REMARK    4  A    between atoms: C_15  and  C_16
REMARK                            x       y       z     vdW  Elec       q    Type
REMARK                         _______ _______ _______ _____ _____    ______ ____
ROOT
ATOM      1  C   UNL     1       3.996   7.012  17.244  0.00  0.00    +0.000 C 
ATOM      2  C   UNL     1       5.159   6.089  16.826  0.00  0.00    +0.000 C 
ATOM      3  C   UNL     1       4.819   5.464  15.456  0.00  0.00    +0.000 C 
ATOM      4  N   UNL     1       6.275   6.975  16.498  0.00  0.00    +0.000 NA
ATOM      5  C   UNL     1       7.237   7.072  17.340  0.00  0.00    +0.000 C 
ATOM      6  N   UNL     1       8.273   7.888  17.044  0.00  0.00    +0.000 N 
ATOM      7  N   UNL     1       7.285   6.444  18.537  0.00  0.00    +0.000 NA
ATOM      8  C   UNL     1       6.432   5.499  18.763  0.00  0.00    +0.000 C 
ATOM      9  N   UNL     1       6.579   4.847  19.950  0.00  0.00    +0.000 N 
ATOM     10  N   UNL     1       5.429   5.093  17.903  0.00  0.00    +0.000 N 
ATOM     11  H   UNL     1       8.035   8.592  16.362  0.00  0.00    +0.000 HD
ATOM     12  H   UNL     1       8.734   8.246  17.873  0.00  0.00    +0.000 HD
ATOM     13  H   UNL     1       7.453   5.094  20.403  0.00  0.00    +0.000 HD
ATOM     14  H   UNL     1       6.442   3.847  19.902  0.00  0.00    +0.000 HD
ENDROOT
BRANCH  10  15
ATOM     15  C   UNL     1       4.402   4.160  18.228  0.00  0.00    +0.000 A 
ATOM     16  C   UNL     1       4.283   2.938  17.546  0.00  0.00    +0.000 A 
ATOM     17  C   UNL     1       3.247   2.036  17.798  0.00  0.00    +0.000 A 
ATOM     18  C   UNL     1       2.356   2.279  18.831  0.00  0.00    +0.000 A 
ATOM     19  C   UNL     1       2.490   3.433  19.607  0.00  0.00    +0.000 A 
ATOM     20  C   UNL     1       3.482   4.377  19.266  0.00  0.00    +0.000 A 
BRANCH  19  21
ATOM     21  C   UNL     1       1.612   3.659  20.811  0.00  0.00    +0.000 C 
ATOM     22  F   UNL     1       0.536   4.454  20.555  0.00  0.00    +0.000 F 
ATOM     23  F   UNL     1       1.102   2.496  21.305  0.00  0.00    +0.000 F 
ATOM     24  F   UNL     1       2.275   4.249  21.843  0.00  0.00    +0.000 F 
ENDBRANCH  19  21
ENDBRANCH  10  15
TORSDOF 2
ENDMDL
