MODEL 1
REMARK VINA RESULT:      -8.2      0.000      0.000
REMARK  Name = 
REMARK  7 active torsions:
REMARK  status: ('A' for Active; 'I' for Inactive)
REMARK    1  A    between atoms: C_1  and  C_2
REMARK    2  A    between atoms: C_2  and  C_3
REMARK    3  A    between atoms: C_3  and  C_4
REMARK    4  A    between atoms: C_9  and  C_10
REMARK    5  A    between atoms: C_13  and  C_14
REMARK    6  A    between atoms: C_21  and  C_22
REMARK    7  A    between atoms: C_25  and  C_26
REMARK                            x       y       z     vdW  Elec       q    Type
REMARK                         _______ _______ _______ _____ _____    ______ ____
ROOT
ATOM      1  C   UNL     1       2.990  14.106  18.424  0.00  0.00    +0.000 C 
ATOM      2  O   UNL     1       2.961  14.347  19.629  0.00  0.00    +0.000 OA
ATOM      3  N   UNL     1       2.413  13.005  17.824  0.00  0.00    +0.000 N 
ATOM      4  C   UNL     1       1.690  12.077  18.570  0.00  0.00    +0.000 A 
ATOM      5  C   UNL     1       0.711  12.499  19.444  0.00  0.00    +0.000 A 
ATOM      6  C   UNL     1       0.059  11.520  20.165  0.00  0.00    +0.000 A 
ATOM      7  N   UNL     1       0.401  10.223  20.038  0.00  0.00    +0.000 NA
ATOM      8  C   UNL     1       1.369   9.910  19.158  0.00  0.00    +0.000 A 
ATOM      9  N   UNL     1       1.991  10.799  18.362  0.00  0.00    +0.000 NA
ATOM     10  H   UNL     1       2.881  12.617  17.017  0.00  0.00    +0.000 HD
ENDROOT
BRANCH   6  11
ATOM     11  C   UNL     1      -1.039  11.823  21.102  0.00  0.00    +0.000 A 
ATOM     12  C   UNL     1      -1.015  11.336  22.422  0.00  0.00    +0.000 A 
ATOM     13  C   UNL     1      -2.051  11.605  23.322  0.00  0.00    +0.000 A 
ATOM     14  C   UNL     1      -3.150  12.380  22.927  0.00  0.00    +0.000 A 
ATOM     15  C   UNL     1      -3.188  12.871  21.616  0.00  0.00    +0.000 A 
ATOM     16  C   UNL     1      -2.149  12.600  20.725  0.00  0.00    +0.000 A 
BRANCH  14  17
ATOM     17  C   UNL     1      -4.268  12.708  23.881  0.00  0.00    +0.000 C 
ATOM     18  F   UNL     1      -4.390  11.818  24.903  0.00  0.00    +0.000 F 
ATOM     19  F   UNL     1      -4.112  13.930  24.462  0.00  0.00    +0.000 F 
ATOM     20  F   UNL     1      -5.480  12.739  23.264  0.00  0.00    +0.000 F 
ENDBRANCH  14  17
ENDBRANCH   6  11
BRANCH   8  21
ATOM     21  C   UNL     1       1.807   8.502  19.091  0.00  0.00    +0.000 A 
ATOM     22  C   UNL     1       2.295   7.939  17.895  0.00  0.00    +0.000 A 
ATOM     23  C   UNL     1       2.719   6.606  17.830  0.00  0.00    +0.000 A 
ATOM     24  C   UNL     1       2.661   5.785  18.962  0.00  0.00    +0.000 A 
ATOM     25  C   UNL     1       2.160   6.321  20.155  0.00  0.00    +0.000 A 
ATOM     26  C   UNL     1       1.740   7.655  20.213  0.00  0.00    +0.000 A 
BRANCH  24  27
ATOM     27  C   UNL     1       3.133   4.353  18.915  0.00  0.00    +0.000 C 
ATOM     28  F   UNL     1       4.058   4.115  17.942  0.00  0.00    +0.000 F 
ATOM     29  F   UNL     1       3.714   3.960  20.083  0.00  0.00    +0.000 F 
ATOM     30  F   UNL     1       2.118   3.475  18.688  0.00  0.00    +0.000 F 
ENDBRANCH  24  27
ENDBRANCH   8  21
BRANCH   1  31
ATOM     31  C   UNL     1       3.672  15.038  17.453  0.00  0.00    +0.000 C 
BRANCH  31  33
ATOM     32  C   UNL     1       2.155  17.059  17.659  0.00  0.00    +0.000 C 
ATOM     33  C   UNL     1       3.547  16.490  17.907  0.00  0.00    +0.000 C 
ENDBRANCH  31  33
ENDBRANCH   1  31
TORSDOF 6
ENDMDL
MODEL 2
REMARK VINA RESULT:      -8.2      7.468     10.418
REMARK  Name = 
REMARK  7 active torsions:
REMARK  status: ('A' for Active; 'I' for Inactive)
REMARK    1  A    between atoms: C_1  and  C_2
REMARK    2  A    between atoms: C_2  and  C_3
REMARK    3  A    between atoms: C_3  and  C_4
REMARK    4  A    between atoms: C_9  and  C_10
REMARK    5  A    between atoms: C_13  and  C_14
REMARK    6  A    between atoms: C_21  and  C_22
REMARK    7  A    between atoms: C_25  and  C_26
REMARK                            x       y       z     vdW  Elec       q    Type
REMARK                         _______ _______ _______ _____ _____    ______ ____
ROOT
ATOM      1  C   UNL     1       6.292   4.306  13.692  0.00  0.00    +0.000 C 
ATOM      2  O   UNL     1       5.085   4.477  13.842  0.00  0.00    +0.000 OA
ATOM      3  N   UNL     1       7.258   4.617  14.628  0.00  0.00    +0.000 N 
ATOM      4  C   UNL     1       6.908   5.123  15.878  0.00  0.00    +0.000 A 
ATOM      5  C   UNL     1       5.936   4.504  16.633  0.00  0.00    +0.000 A 
ATOM      6  C   UNL     1       5.630   5.083  17.847  0.00  0.00    +0.000 A 
ATOM      7  N   UNL     1       6.234   6.220  18.243  0.00  0.00    +0.000 NA
ATOM      8  C   UNL     1       7.172   6.750  17.437  0.00  0.00    +0.000 A 
ATOM      9  N   UNL     1       7.580   6.199  16.280  0.00  0.00    +0.000 NA
ATOM     10  H   UNL     1       8.153   4.935  14.285  0.00  0.00    +0.000 HD
ENDROOT
BRANCH   6  11
ATOM     11  C   UNL     1       4.643   4.502  18.776  0.00  0.00    +0.000 A 
ATOM     12  C   UNL     1       3.530   5.251  19.205  0.00  0.00    +0.000 A 
ATOM     13  C   UNL     1       2.588   4.720  20.093  0.00  0.00    +0.000 A 
ATOM     14  C   UNL     1       2.729   3.413  20.580  0.00  0.00    +0.000 A 
ATOM     15  C   UNL     1       3.833   2.658  20.163  0.00  0.00    +0.000 A 
ATOM     16  C   UNL     1       4.766   3.193  19.274  0.00  0.00    +0.000 A 
BRANCH  14  17
ATOM     17  C   UNL     1       1.719   2.807  21.516  0.00  0.00    +0.000 C 
ATOM     18  F   UNL     1       1.748   3.339  22.768  0.00  0.00    +0.000 F 
ATOM     19  F   UNL     1       0.441   2.961  21.071  0.00  0.00    +0.000 F 
ATOM     20  F   UNL     1       1.900   1.468  21.675  0.00  0.00    +0.000 F 
ENDBRANCH  14  17
ENDBRANCH   6  11
BRANCH   8  21
ATOM     21  C   UNL     1       7.761   8.045  17.828  0.00  0.00    +0.000 A 
ATOM     22  C   UNL     1       8.699   8.141  18.875  0.00  0.00    +0.000 A 
ATOM     23  C   UNL     1       9.266   9.368  19.244  0.00  0.00    +0.000 A 
ATOM     24  C   UNL     1       8.907  10.546  18.579  0.00  0.00    +0.000 A 
ATOM     25  C   UNL     1       7.961  10.473  17.549  0.00  0.00    +0.000 A 
ATOM     26  C   UNL     1       7.400   9.244  17.184  0.00  0.00    +0.000 A 
BRANCH  24  27
ATOM     27  C   UNL     1       9.524  11.872  18.949  0.00  0.00    +0.000 C 
ATOM     28  F   UNL     1       9.010  12.413  20.089  0.00  0.00    +0.000 F 
ATOM     29  F   UNL     1      10.867  11.780  19.153  0.00  0.00    +0.000 F 
ATOM     30  F   UNL     1       9.356  12.814  17.981  0.00  0.00    +0.000 F 
ENDBRANCH  24  27
ENDBRANCH   8  21
BRANCH   1  31
ATOM     31  C   UNL     1       6.848   3.704  12.425  0.00  0.00    +0.000 C 
BRANCH  31  33
ATOM     32  C   UNL     1       6.642   1.559  11.089  0.00  0.00    +0.000 C 
ATOM     33  C   UNL     1       5.903   2.646  11.860  0.00  0.00    +0.000 C 
ENDBRANCH  31  33
ENDBRANCH   1  31
TORSDOF 6
ENDMDL
MODEL 3
REMARK VINA RESULT:      -8.1      0.603      1.256
REMARK  Name = 
REMARK  7 active torsions:
REMARK  status: ('A' for Active; 'I' for Inactive)
REMARK    1  A    between atoms: C_1  and  C_2
REMARK    2  A    between atoms: C_2  and  C_3
REMARK    3  A    between atoms: C_3  and  C_4
REMARK    4  A    between atoms: C_9  and  C_10
REMARK    5  A    between atoms: C_13  and  C_14
REMARK    6  A    between atoms: C_21  and  C_22
REMARK    7  A    between atoms: C_25  and  C_26
REMARK                            x       y       z     vdW  Elec       q    Type
REMARK                         _______ _______ _______ _____ _____    ______ ____
ROOT
ATOM      1  C   UNL     1       2.945  14.107  18.377  0.00  0.00    +0.000 C 
ATOM      2  O   UNL     1       2.923  14.364  19.579  0.00  0.00    +0.000 OA
ATOM      3  N   UNL     1       2.371  12.995  17.795  0.00  0.00    +0.000 N 
ATOM      4  C   UNL     1       1.657  12.073  18.559  0.00  0.00    +0.000 A 
ATOM      5  C   UNL     1       0.681  12.501  19.433  0.00  0.00    +0.000 A 
ATOM      6  C   UNL     1       0.040  11.528  20.171  0.00  0.00    +0.000 A 
ATOM      7  N   UNL     1       0.387  10.232  20.058  0.00  0.00    +0.000 NA
ATOM      8  C   UNL     1       1.352   9.912  19.176  0.00  0.00    +0.000 A 
ATOM      9  N   UNL     1       1.964  10.794  18.366  0.00  0.00    +0.000 NA
ATOM     10  H   UNL     1       2.836  12.599  16.991  0.00  0.00    +0.000 HD
ENDROOT
BRANCH   6  11
ATOM     11  C   UNL     1      -1.055  11.839  21.110  0.00  0.00    +0.000 A 
ATOM     12  C   UNL     1      -2.198  12.537  20.678  0.00  0.00    +0.000 A 
ATOM     13  C   UNL     1      -3.242  12.849  21.556  0.00  0.00    +0.000 A 
ATOM     14  C   UNL     1      -3.175  12.465  22.902  0.00  0.00    +0.000 A 
ATOM     15  C   UNL     1      -2.042  11.770  23.346  0.00  0.00    +0.000 A 
ATOM     16  C   UNL     1      -1.007  11.460  22.464  0.00  0.00    +0.000 A 
BRANCH  14  17
ATOM     17  C   UNL     1      -4.294  12.763  23.864  0.00  0.00    +0.000 C 
ATOM     18  F   UNL     1      -4.477  11.797  24.804  0.00  0.00    +0.000 F 
ATOM     19  F   UNL     1      -4.093  13.922  24.550  0.00  0.00    +0.000 F 
ATOM     20  F   UNL     1      -5.492  12.905  23.234  0.00  0.00    +0.000 F 
ENDBRANCH  14  17
ENDBRANCH   6  11
BRANCH   8  21
ATOM     21  C   UNL     1       1.797   8.506  19.125  0.00  0.00    +0.000 A 
ATOM     22  C   UNL     1       2.345   7.949  17.953  0.00  0.00    +0.000 A 
ATOM     23  C   UNL     1       2.775   6.618  17.903  0.00  0.00    +0.000 A 
ATOM     24  C   UNL     1       2.666   5.792  19.028  0.00  0.00    +0.000 A 
ATOM     25  C   UNL     1       2.105   6.322  20.197  0.00  0.00    +0.000 A 
ATOM     26  C   UNL     1       1.678   7.654  20.240  0.00  0.00    +0.000 A 
BRANCH  24  27
ATOM     27  C   UNL     1       3.144   4.362  18.998  0.00  0.00    +0.000 C 
ATOM     28  F   UNL     1       3.218   3.837  17.743  0.00  0.00    +0.000 F 
ATOM     29  F   UNL     1       4.388   4.220  19.533  0.00  0.00    +0.000 F 
ATOM     30  F   UNL     1       2.335   3.526  19.705  0.00  0.00    +0.000 F 
ENDBRANCH  24  27
ENDBRANCH   8  21
BRANCH   1  31
ATOM     31  C   UNL     1       3.616  15.030  17.390  0.00  0.00    +0.000 C 
BRANCH  31  33
ATOM     32  C   UNL     1       6.089  14.574  17.709  0.00  0.00    +0.000 C 
ATOM     33  C   UNL     1       4.942  15.550  17.939  0.00  0.00    +0.000 C 
ENDBRANCH  31  33
ENDBRANCH   1  31
TORSDOF 6
ENDMDL
MODEL 4
REMARK VINA RESULT:      -8.1      7.451     10.391
REMARK  Name = 
REMARK  7 active torsions:
REMARK  status: ('A' for Active; 'I' for Inactive)
REMARK    1  A    between atoms: C_1  and  C_2
REMARK    2  A    between atoms: C_2  and  C_3
REMARK    3  A    between atoms: C_3  and  C_4
REMARK    4  A    between atoms: C_9  and  C_10
REMARK    5  A    between atoms: C_13  and  C_14
REMARK    6  A    between atoms: C_21  and  C_22
REMARK    7  A    between atoms: C_25  and  C_26
REMARK                            x       y       z     vdW  Elec       q    Type
REMARK                         _______ _______ _______ _____ _____    ______ ____
ROOT
ATOM      1  C   UNL     1       6.343   4.356  13.733  0.00  0.00    +0.000 C 
ATOM      2  O   UNL     1       5.135   4.523  13.885  0.00  0.00    +0.000 OA
ATOM      3  N   UNL     1       7.309   4.672  14.666  0.00  0.00    +0.000 N 
ATOM      4  C   UNL     1       6.960   5.181  15.916  0.00  0.00    +0.000 A 
ATOM      5  C   UNL     1       5.991   4.560  16.675  0.00  0.00    +0.000 A 
ATOM      6  C   UNL     1       5.685   5.141  17.887  0.00  0.00    +0.000 A 
ATOM      7  N   UNL     1       6.286   6.281  18.280  0.00  0.00    +0.000 NA
ATOM      8  C   UNL     1       7.221   6.812  17.471  0.00  0.00    +0.000 A 
ATOM      9  N   UNL     1       7.629   6.259  16.315  0.00  0.00    +0.000 NA
ATOM     10  H   UNL     1       8.203   4.992  14.322  0.00  0.00    +0.000 HD
ENDROOT
BRANCH   6  11
ATOM     11  C   UNL     1       4.702   4.559  18.820  0.00  0.00    +0.000 A 
ATOM     12  C   UNL     1       3.723   5.366  19.430  0.00  0.00    +0.000 A 
ATOM     13  C   UNL     1       2.787   4.834  20.324  0.00  0.00    +0.000 A 
ATOM     14  C   UNL     1       2.799   3.468  20.634  0.00  0.00    +0.000 A 
ATOM     15  C   UNL     1       3.769   2.653  20.035  0.00  0.00    +0.000 A 
ATOM     16  C   UNL     1       4.697   3.190  19.142  0.00  0.00    +0.000 A 
BRANCH  14  17
ATOM     17  C   UNL     1       1.790   2.863  21.572  0.00  0.00    +0.000 C 
ATOM     18  F   UNL     1       0.503   3.008  21.155  0.00  0.00    +0.000 F 
ATOM     19  F   UNL     1       1.980   1.526  21.747  0.00  0.00    +0.000 F 
ATOM     20  F   UNL     1       1.845   3.414  22.815  0.00  0.00    +0.000 F 
ENDBRANCH  14  17
ENDBRANCH   6  11
BRANCH   8  21
ATOM     21  C   UNL     1       7.807   8.110  17.858  0.00  0.00    +0.000 A 
ATOM     22  C   UNL     1       8.752   8.211  18.897  0.00  0.00    +0.000 A 
ATOM     23  C   UNL     1       9.315   9.440  19.263  0.00  0.00    +0.000 A 
ATOM     24  C   UNL     1       8.945  10.616  18.600  0.00  0.00    +0.000 A 
ATOM     25  C   UNL     1       7.992  10.539  17.577  0.00  0.00    +0.000 A 
ATOM     26  C   UNL     1       7.434   9.307  17.217  0.00  0.00    +0.000 A 
BRANCH  24  27
ATOM     27  C   UNL     1       9.558  11.945  18.965  0.00  0.00    +0.000 C 
ATOM     28  F   UNL     1      10.159  12.575  17.917  0.00  0.00    +0.000 F 
ATOM     29  F   UNL     1       8.638  12.826  19.449  0.00  0.00    +0.000 F 
ATOM     30  F   UNL     1      10.512  11.834  19.930  0.00  0.00    +0.000 F 
ENDBRANCH  24  27
ENDBRANCH   8  21
BRANCH   1  31
ATOM     31  C   UNL     1       6.899   3.752  12.467  0.00  0.00    +0.000 C 
BRANCH  31  33
ATOM     32  C   UNL     1       6.013   1.615  11.429  0.00  0.00    +0.000 C 
ATOM     33  C   UNL     1       5.793   3.110  11.634  0.00  0.00    +0.000 C 
ENDBRANCH  31  33
ENDBRANCH   1  31
TORSDOF 6
ENDMDL
MODEL 5
REMARK VINA RESULT:      -8.1      0.392      1.044
REMARK  Name = 
REMARK  7 active torsions:
REMARK  status: ('A' for Active; 'I' for Inactive)
REMARK    1  A    between atoms: C_1  and  C_2
REMARK    2  A    between atoms: C_2  and  C_3
REMARK    3  A    between atoms: C_3  and  C_4
REMARK    4  A    between atoms: C_9  and  C_10
REMARK    5  A    between atoms: C_13  and  C_14
REMARK    6  A    between atoms: C_21  and  C_22
REMARK    7  A    between atoms: C_25  and  C_26
REMARK                            x       y       z     vdW  Elec       q    Type
REMARK                         _______ _______ _______ _____ _____    ______ ____
ROOT
ATOM      1  C   UNL     1       2.895  14.175  18.471  0.00  0.00    +0.000 C 
ATOM      2  O   UNL     1       2.856  14.417  19.675  0.00  0.00    +0.000 OA
ATOM      3  N   UNL     1       2.328  13.072  17.867  0.00  0.00    +0.000 N 
ATOM      4  C   UNL     1       1.601  12.142  18.609  0.00  0.00    +0.000 A 
ATOM      5  C   UNL     1       0.613  12.561  19.474  0.00  0.00    +0.000 A 
ATOM      6  C   UNL     1      -0.041  11.581  20.190  0.00  0.00    +0.000 A 
ATOM      7  N   UNL     1       0.306  10.285  20.067  0.00  0.00    +0.000 NA
ATOM      8  C   UNL     1       1.282   9.974  19.196  0.00  0.00    +0.000 A 
ATOM      9  N   UNL     1       1.908  10.864  18.404  0.00  0.00    +0.000 NA
ATOM     10  H   UNL     1       2.803  12.684  17.065  0.00  0.00    +0.000 HD
ENDROOT
BRANCH   6  11
ATOM     11  C   UNL     1      -1.148  11.882  21.117  0.00  0.00    +0.000 A 
ATOM     12  C   UNL     1      -1.088  11.479  22.465  0.00  0.00    +0.000 A 
ATOM     13  C   UNL     1      -2.132  11.748  23.357  0.00  0.00    +0.000 A 
ATOM     14  C   UNL     1      -3.274  12.435  22.926  0.00  0.00    +0.000 A 
ATOM     15  C   UNL     1      -3.349  12.840  21.587  0.00  0.00    +0.000 A 
ATOM     16  C   UNL     1      -2.302  12.572  20.704  0.00  0.00    +0.000 A 
BRANCH  14  17
ATOM     17  C   UNL     1      -4.402  12.760  23.869  0.00  0.00    +0.000 C 
ATOM     18  F   UNL     1      -4.467  11.932  24.947  0.00  0.00    +0.000 F 
ATOM     19  F   UNL     1      -4.312  14.023  24.370  0.00  0.00    +0.000 F 
ATOM     20  F   UNL     1      -5.619  12.683  23.264  0.00  0.00    +0.000 F 
ENDBRANCH  14  17
ENDBRANCH   6  11
BRANCH   8  21
ATOM     21  C   UNL     1       1.726   8.567  19.134  0.00  0.00    +0.000 A 
ATOM     22  C   UNL     1       1.681   7.731  20.266  0.00  0.00    +0.000 A 
ATOM     23  C   UNL     1       2.094   6.394  20.210  0.00  0.00    +0.000 A 
ATOM     24  C   UNL     1       2.575   5.849  19.014  0.00  0.00    +0.000 A 
ATOM     25  C   UNL     1       2.646   6.670  17.882  0.00  0.00    +0.000 A 
ATOM     26  C   UNL     1       2.230   8.005  17.945  0.00  0.00    +0.000 A 
BRANCH  24  27
ATOM     27  C   UNL     1       3.004   4.405  18.929  0.00  0.00    +0.000 C 
ATOM     28  F   UNL     1       3.390   4.023  17.679  0.00  0.00    +0.000 F 
ATOM     29  F   UNL     1       4.059   4.129  19.744  0.00  0.00    +0.000 F 
ATOM     30  F   UNL     1       2.014   3.544  19.292  0.00  0.00    +0.000 F 
ENDBRANCH  24  27
ENDBRANCH   8  21
BRANCH   1  31
ATOM     31  C   UNL     1       3.582  15.108  17.505  0.00  0.00    +0.000 C 
BRANCH  31  33
ATOM     32  C   UNL     1       5.140  16.734  18.670  0.00  0.00    +0.000 C 
ATOM     33  C   UNL     1       3.743  16.501  18.107  0.00  0.00    +0.000 C 
ENDBRANCH  31  33
ENDBRANCH   1  31
TORSDOF 6
ENDMDL
MODEL 6
REMARK VINA RESULT:      -8.1      0.641      1.757
REMARK  Name = 
REMARK  7 active torsions:
REMARK  status: ('A' for Active; 'I' for Inactive)
REMARK    1  A    between atoms: C_1  and  C_2
REMARK    2  A    between atoms: C_2  and  C_3
REMARK    3  A    between atoms: C_3  and  C_4
REMARK    4  A    between atoms: C_9  and  C_10
REMARK    5  A    between atoms: C_13  and  C_14
REMARK    6  A    between atoms: C_21  and  C_22
REMARK    7  A    between atoms: C_25  and  C_26
REMARK                            x       y       z     vdW  Elec       q    Type
REMARK                         _______ _______ _______ _____ _____    ______ ____
ROOT
ATOM      1  C   UNL     1       2.982  14.042  18.488  0.00  0.00    +0.000 C 
ATOM      2  O   UNL     1       2.932  14.297  19.690  0.00  0.00    +0.000 OA
ATOM      3  N   UNL     1       2.408  12.941  17.888  0.00  0.00    +0.000 N 
ATOM      4  C   UNL     1       1.662  12.027  18.630  0.00  0.00    +0.000 A 
ATOM      5  C   UNL     1       0.669  12.466  19.480  0.00  0.00    +0.000 A 
ATOM      6  C   UNL     1      -0.005  11.501  20.198  0.00  0.00    +0.000 A 
ATOM      7  N   UNL     1       0.328  10.200  20.091  0.00  0.00    +0.000 NA
ATOM      8  C   UNL     1       1.310   9.869  19.234  0.00  0.00    +0.000 A 
ATOM      9  N   UNL     1       1.956  10.744  18.442  0.00  0.00    +0.000 NA
ATOM     10  H   UNL     1       2.888  12.540  17.095  0.00  0.00    +0.000 HD
ENDROOT
BRANCH   6  11
ATOM     11  C   UNL     1      -1.119  11.824  21.109  0.00  0.00    +0.000 A 
ATOM     12  C   UNL     1      -2.233  12.554  20.653  0.00  0.00    +0.000 A 
ATOM     13  C   UNL     1      -3.295  12.878  21.505  0.00  0.00    +0.000 A 
ATOM     14  C   UNL     1      -3.276  12.475  22.847  0.00  0.00    +0.000 A 
ATOM     15  C   UNL     1      -2.173  11.750  23.315  0.00  0.00    +0.000 A 
ATOM     16  C   UNL     1      -1.119  11.428  22.458  0.00  0.00    +0.000 A 
BRANCH  14  17
ATOM     17  C   UNL     1      -4.416  12.788  23.780  0.00  0.00    +0.000 C 
ATOM     18  F   UNL     1      -4.404  14.066  24.245  0.00  0.00    +0.000 F 
ATOM     19  F   UNL     1      -5.631  12.612  23.192  0.00  0.00    +0.000 F 
ATOM     20  F   UNL     1      -4.414  11.989  24.882  0.00  0.00    +0.000 F 
ENDBRANCH  14  17
ENDBRANCH   6  11
BRANCH   8  21
ATOM     21  C   UNL     1       1.737   8.456  19.190  0.00  0.00    +0.000 A 
ATOM     22  C   UNL     1       1.628   7.619  20.317  0.00  0.00    +0.000 A 
ATOM     23  C   UNL     1       2.025   6.277  20.278  0.00  0.00    +0.000 A 
ATOM     24  C   UNL     1       2.554   5.726  19.105  0.00  0.00    +0.000 A 
ATOM     25  C   UNL     1       2.690   6.549  17.979  0.00  0.00    +0.000 A 
ATOM     26  C   UNL     1       2.290   7.889  18.026  0.00  0.00    +0.000 A 
BRANCH  24  27
ATOM     27  C   UNL     1       2.967   4.277  19.038  0.00  0.00    +0.000 C 
ATOM     28  F   UNL     1       2.167   3.447  19.765  0.00  0.00    +0.000 F 
ATOM     29  F   UNL     1       2.947   3.791  17.766  0.00  0.00    +0.000 F 
ATOM     30  F   UNL     1       4.232   4.072  19.497  0.00  0.00    +0.000 F 
ENDBRANCH  24  27
ENDBRANCH   8  21
BRANCH   1  31
ATOM     31  C   UNL     1       3.692  14.958  17.522  0.00  0.00    +0.000 C 
BRANCH  31  33
ATOM     32  C   UNL     1       5.556  16.291  18.606  0.00  0.00    +0.000 C 
ATOM     33  C   UNL     1       5.185  15.032  17.831  0.00  0.00    +0.000 C 
ENDBRANCH  31  33
ENDBRANCH   1  31
TORSDOF 6
ENDMDL
MODEL 7
REMARK VINA RESULT:      -8.0      0.668      1.148
REMARK  Name = 
REMARK  7 active torsions:
REMARK  status: ('A' for Active; 'I' for Inactive)
REMARK    1  A    between atoms: C_1  and  C_2
REMARK    2  A    between atoms: C_2  and  C_3
REMARK    3  A    between atoms: C_3  and  C_4
REMARK    4  A    between atoms: C_9  and  C_10
REMARK    5  A    between atoms: C_13  and  C_14
REMARK    6  A    between atoms: C_21  and  C_22
REMARK    7  A    between atoms: C_25  and  C_26
REMARK                            x       y       z     vdW  Elec       q    Type
REMARK                         _______ _______ _______ _____ _____    ______ ____
ROOT
ATOM      1  C   UNL     1       3.125  14.086  18.509  0.00  0.00    +0.000 C 
ATOM      2  O   UNL     1       3.063  14.319  19.714  0.00  0.00    +0.000 OA
ATOM      3  N   UNL     1       2.549  13.000  17.883  0.00  0.00    +0.000 N 
ATOM      4  C   UNL     1       1.786  12.080  18.599  0.00  0.00    +0.000 A 
ATOM      5  C   UNL     1       0.787  12.513  19.445  0.00  0.00    +0.000 A 
ATOM      6  C   UNL     1       0.096  11.540  20.138  0.00  0.00    +0.000 A 
ATOM      7  N   UNL     1       0.418  10.239  20.011  0.00  0.00    +0.000 NA
ATOM      8  C   UNL     1       1.408   9.914  19.160  0.00  0.00    +0.000 A 
ATOM      9  N   UNL     1       2.071  10.798  18.391  0.00  0.00    +0.000 NA
ATOM     10  H   UNL     1       3.035  12.609  17.089  0.00  0.00    +0.000 HD
ENDROOT
BRANCH   6  11
ATOM     11  C   UNL     1      -1.026  11.857  21.042  0.00  0.00    +0.000 A 
ATOM     12  C   UNL     1      -0.997  11.458  22.391  0.00  0.00    +0.000 A 
ATOM     13  C   UNL     1      -2.055  11.742  23.262  0.00  0.00    +0.000 A 
ATOM     14  C   UNL     1      -3.181  12.441  22.806  0.00  0.00    +0.000 A 
ATOM     15  C   UNL     1      -3.224  12.842  21.465  0.00  0.00    +0.000 A 
ATOM     16  C   UNL     1      -2.163  12.559  20.604  0.00  0.00    +0.000 A 
BRANCH  14  17
ATOM     17  C   UNL     1      -4.323  12.782  23.725  0.00  0.00    +0.000 C 
ATOM     18  F   UNL     1      -4.254  14.041  24.236  0.00  0.00    +0.000 F 
ATOM     19  F   UNL     1      -5.532  12.692  23.106  0.00  0.00    +0.000 F 
ATOM     20  F   UNL     1      -4.390  11.947  24.798  0.00  0.00    +0.000 F 
ENDBRANCH  14  17
ENDBRANCH   6  11
BRANCH   8  21
ATOM     21  C   UNL     1       1.824   8.499  19.096  0.00  0.00    +0.000 A 
ATOM     22  C   UNL     1       2.330   7.934  17.910  0.00  0.00    +0.000 A 
ATOM     23  C   UNL     1       2.731   6.593  17.847  0.00  0.00    +0.000 A 
ATOM     24  C   UNL     1       2.633   5.769  18.973  0.00  0.00    +0.000 A 
ATOM     25  C   UNL     1       2.114   6.308  20.157  0.00  0.00    +0.000 A 
ATOM     26  C   UNL     1       1.715   7.649  20.213  0.00  0.00    +0.000 A 
BRANCH  24  27
ATOM     27  C   UNL     1       3.081   4.329  18.931  0.00  0.00    +0.000 C 
ATOM     28  F   UNL     1       2.781   3.699  17.760  0.00  0.00    +0.000 F 
ATOM     29  F   UNL     1       4.428   4.200  19.087  0.00  0.00    +0.000 F 
ATOM     30  F   UNL     1       2.516   3.576  19.914  0.00  0.00    +0.000 F 
ENDBRANCH  24  27
ENDBRANCH   8  21
BRANCH   1  31
ATOM     31  C   UNL     1       3.854  15.012  17.568  0.00  0.00    +0.000 C 
BRANCH  31  33
ATOM     32  C   UNL     1       5.930  16.069  18.569  0.00  0.00    +0.000 C 
ATOM     33  C   UNL     1       5.365  14.909  17.757  0.00  0.00    +0.000 C 
ENDBRANCH  31  33
ENDBRANCH   1  31
TORSDOF 6
ENDMDL
MODEL 8
REMARK VINA RESULT:      -8.0      2.619      3.374
REMARK  Name = 
REMARK  7 active torsions:
REMARK  status: ('A' for Active; 'I' for Inactive)
REMARK    1  A    between atoms: C_1  and  C_2
REMARK    2  A    between atoms: C_2  and  C_3
REMARK    3  A    between atoms: C_3  and  C_4
REMARK    4  A    between atoms: C_9  and  C_10
REMARK    5  A    between atoms: C_13  and  C_14
REMARK    6  A    between atoms: C_21  and  C_22
REMARK    7  A    between atoms: C_25  and  C_26
REMARK                            x       y       z     vdW  Elec       q    Type
REMARK                         _______ _______ _______ _____ _____    ______ ____
ROOT
ATOM      1  C   UNL     1       1.778  14.905  19.369  0.00  0.00    +0.000 C 
ATOM      2  O   UNL     1       0.905  14.950  20.233  0.00  0.00    +0.000 OA
ATOM      3  N   UNL     1       1.978  13.852  18.501  0.00  0.00    +0.000 N 
ATOM      4  C   UNL     1       1.138  12.740  18.515  0.00  0.00    +0.000 A 
ATOM      5  C   UNL     1      -0.230  12.902  18.492  0.00  0.00    +0.000 A 
ATOM      6  C   UNL     1      -0.991  11.752  18.535  0.00  0.00    +0.000 A 
ATOM      7  N   UNL     1      -0.411  10.541  18.634  0.00  0.00    +0.000 NA
ATOM      8  C   UNL     1       0.933  10.485  18.649  0.00  0.00    +0.000 A 
ATOM      9  N   UNL     1       1.740  11.554  18.528  0.00  0.00    +0.000 NA
ATOM     10  H   UNL     1       2.929  13.652  18.223  0.00  0.00    +0.000 HD
ENDROOT
BRANCH   6  11
ATOM     11  C   UNL     1      -2.465  11.774  18.472  0.00  0.00    +0.000 A 
ATOM     12  C   UNL     1      -3.143  11.306  17.330  0.00  0.00    +0.000 A 
ATOM     13  C   UNL     1      -4.540  11.327  17.247  0.00  0.00    +0.000 A 
ATOM     14  C   UNL     1      -5.306  11.818  18.313  0.00  0.00    +0.000 A 
ATOM     15  C   UNL     1      -4.644  12.289  19.454  0.00  0.00    +0.000 A 
ATOM     16  C   UNL     1      -3.251  12.261  19.531  0.00  0.00    +0.000 A 
BRANCH  14  17
ATOM     17  C   UNL     1      -6.810  11.830  18.263  0.00  0.00    +0.000 C 
ATOM     18  F   UNL     1      -7.384  12.504  19.296  0.00  0.00    +0.000 F 
ATOM     19  F   UNL     1      -7.287  12.408  17.125  0.00  0.00    +0.000 F 
ATOM     20  F   UNL     1      -7.338  10.576  18.294  0.00  0.00    +0.000 F 
ENDBRANCH  14  17
ENDBRANCH   6  11
BRANCH   8  21
ATOM     21  C   UNL     1       1.564   9.166  18.854  0.00  0.00    +0.000 A 
ATOM     22  C   UNL     1       1.447   8.476  20.076  0.00  0.00    +0.000 A 
ATOM     23  C   UNL     1       2.038   7.222  20.273  0.00  0.00    +0.000 A 
ATOM     24  C   UNL     1       2.775   6.616  19.249  0.00  0.00    +0.000 A 
ATOM     25  C   UNL     1       2.919   7.295  18.033  0.00  0.00    +0.000 A 
ATOM     26  C   UNL     1       2.325   8.548  17.843  0.00  0.00    +0.000 A 
BRANCH  24  27
ATOM     27  C   UNL     1       3.400   5.256  19.434  0.00  0.00    +0.000 C 
ATOM     28  F   UNL     1       3.317   4.462  18.329  0.00  0.00    +0.000 F 
ATOM     29  F   UNL     1       4.725   5.331  19.739  0.00  0.00    +0.000 F 
ATOM     30  F   UNL     1       2.823   4.549  20.445  0.00  0.00    +0.000 F 
ENDBRANCH  24  27
ENDBRANCH   8  21
BRANCH   1  31
ATOM     31  C   UNL     1       2.737  16.051  19.164  0.00  0.00    +0.000 C 
BRANCH  31  33
ATOM     32  C   UNL     1       1.321  17.563  17.702  0.00  0.00    +0.000 C 
ATOM     33  C   UNL     1       1.992  17.379  19.058  0.00  0.00    +0.000 C 
ENDBRANCH  31  33
ENDBRANCH   1  31
TORSDOF 6
ENDMDL
MODEL 9
REMARK VINA RESULT:      -8.0      2.445      3.184
REMARK  Name = 
REMARK  7 active torsions:
REMARK  status: ('A' for Active; 'I' for Inactive)
REMARK    1  A    between atoms: C_1  and  C_2
REMARK    2  A    between atoms: C_2  and  C_3
REMARK    3  A    between atoms: C_3  and  C_4
REMARK    4  A    between atoms: C_9  and  C_10
REMARK    5  A    between atoms: C_13  and  C_14
REMARK    6  A    between atoms: C_21  and  C_22
REMARK    7  A    between atoms: C_25  and  C_26
REMARK                            x       y       z     vdW  Elec       q    Type
REMARK                         _______ _______ _______ _____ _____    ______ ____
ROOT
ATOM      1  C   UNL     1       1.617  15.092  19.383  0.00  0.00    +0.000 C 
ATOM      2  O   UNL     1       0.801  15.174  20.299  0.00  0.00    +0.000 OA
ATOM      3  N   UNL     1       1.749  14.011  18.536  0.00  0.00    +0.000 N 
ATOM      4  C   UNL     1       0.899  12.911  18.638  0.00  0.00    +0.000 A 
ATOM      5  C   UNL     1      -0.466  13.090  18.697  0.00  0.00    +0.000 A 
ATOM      6  C   UNL     1      -1.236  11.953  18.824  0.00  0.00    +0.000 A 
ATOM      7  N   UNL     1      -0.664  10.737  18.922  0.00  0.00    +0.000 NA
ATOM      8  C   UNL     1       0.677  10.664  18.853  0.00  0.00    +0.000 A 
ATOM      9  N   UNL     1       1.487  11.718  18.649  0.00  0.00    +0.000 NA
ATOM     10  H   UNL     1       2.677  13.791  18.205  0.00  0.00    +0.000 HD
ENDROOT
BRANCH   6  11
ATOM     11  C   UNL     1      -2.710  11.992  18.854  0.00  0.00    +0.000 A 
ATOM     12  C   UNL     1      -3.392  12.605  19.922  0.00  0.00    +0.000 A 
ATOM     13  C   UNL     1      -4.790  12.646  19.973  0.00  0.00    +0.000 A 
ATOM     14  C   UNL     1      -5.553  12.073  18.947  0.00  0.00    +0.000 A 
ATOM     15  C   UNL     1      -4.888  11.457  17.879  0.00  0.00    +0.000 A 
ATOM     16  C   UNL     1      -3.494  11.425  17.834  0.00  0.00    +0.000 A 
BRANCH  14  17
ATOM     17  C   UNL     1      -7.058  12.122  18.962  0.00  0.00    +0.000 C 
ATOM     18  F   UNL     1      -7.636  10.975  19.411  0.00  0.00    +0.000 F 
ATOM     19  F   UNL     1      -7.536  13.121  19.754  0.00  0.00    +0.000 F 
ATOM     20  F   UNL     1      -7.579  12.344  17.725  0.00  0.00    +0.000 F 
ENDBRANCH  14  17
ENDBRANCH   6  11
BRANCH   8  21
ATOM     21  C   UNL     1       1.305   9.344  19.058  0.00  0.00    +0.000 A 
ATOM     22  C   UNL     1       1.260   8.692  20.306  0.00  0.00    +0.000 A 
ATOM     23  C   UNL     1       1.848   7.437  20.502  0.00  0.00    +0.000 A 
ATOM     24  C   UNL     1       2.510   6.790  19.452  0.00  0.00    +0.000 A 
ATOM     25  C   UNL     1       2.583   7.431  18.209  0.00  0.00    +0.000 A 
ATOM     26  C   UNL     1       1.992   8.686  18.020  0.00  0.00    +0.000 A 
BRANCH  24  27
ATOM     27  C   UNL     1       3.130   5.428  19.638  0.00  0.00    +0.000 C 
ATOM     28  F   UNL     1       2.656   4.757  20.726  0.00  0.00    +0.000 F 
ATOM     29  F   UNL     1       2.913   4.609  18.573  0.00  0.00    +0.000 F 
ATOM     30  F   UNL     1       4.481   5.486  19.797  0.00  0.00    +0.000 F 
ENDBRANCH  24  27
ENDBRANCH   8  21
BRANCH   1  31
ATOM     31  C   UNL     1       2.574  16.219  19.082  0.00  0.00    +0.000 C 
BRANCH  31  33
ATOM     32  C   UNL     1       1.039  17.610  17.621  0.00  0.00    +0.000 C 
ATOM     33  C   UNL     1       2.324  16.794  17.691  0.00  0.00    +0.000 C 
ENDBRANCH  31  33
ENDBRANCH   1  31
TORSDOF 6
ENDMDL
