MODEL 1
REMARK VINA RESULT:      -7.0      0.000      0.000
REMARK  Name = 
REMARK  8 active torsions:
REMARK  status: ('A' for Active; 'I' for Inactive)
REMARK    1  A    between atoms: C_1  and  C_2
REMARK    2  A    between atoms: C_2  and  N_3
REMARK    3  A    between atoms: N_3  and  C_4
REMARK    4  A    between atoms: N_3  and  C_6
REMARK    5  A    between atoms: C_4  and  C_5
REMARK    6  A    between atoms: C_9  and  C_10
REMARK    7  A    between atoms: C_10  and  N_12
REMARK    8  A    between atoms: N_15  and  C_16
REMARK                            x       y       z     vdW  Elec       q    Type
REMARK                         _______ _______ _______ _____ _____    ______ ____
ROOT
ATOM      1  C   UNL     1       0.863  11.173  18.930  0.00  0.00    +0.000 C 
ATOM      2  S   UNL     1       1.965  12.408  18.622  0.00  0.00    +0.000 S 
ENDROOT
BRANCH   1   6
ATOM      3  C   UNL     1       2.237   7.066  19.383  0.00  0.00    +0.000 A 
ATOM      4  C   UNL     1       1.604   7.746  20.434  0.00  0.00    +0.000 A 
ATOM      5  C   UNL     1       1.127   9.058  20.297  0.00  0.00    +0.000 A 
ATOM      6  C   UNL     1       1.250   9.730  19.081  0.00  0.00    +0.000 A 
ATOM      7  C   UNL     1       1.823   9.046  18.002  0.00  0.00    +0.000 A 
ATOM      8  C   UNL     1       2.314   7.743  18.158  0.00  0.00    +0.000 A 
BRANCH   3   9
ATOM      9  N   UNL     1       2.773   5.798  19.552  0.00  0.00    +0.000 N 
BRANCH   9  11
ATOM     10  C   UNL     1       4.842   4.456  19.251  0.00  0.00    +0.000 C 
ATOM     11  C   UNL     1       3.737   5.264  18.586  0.00  0.00    +0.000 C 
ENDBRANCH   9  11
BRANCH   9  12
ATOM     12  C   UNL     1       2.366   4.947  20.676  0.00  0.00    +0.000 C 
ATOM     13  C   UNL     1       1.176   4.069  20.306  0.00  0.00    +0.000 C 
ENDBRANCH   9  12
ENDBRANCH   3   9
ENDBRANCH   1   6
BRANCH   1  14
ATOM     14  N   UNL     1      -0.509  11.392  18.956  0.00  0.00    +0.000 N 
ATOM     15  C   UNL     1      -1.202  11.749  20.200  0.00  0.00    +0.000 C 
ATOM     16  C   UNL     1      -2.404  12.647  19.873  0.00  0.00    +0.000 C 
ATOM     17  N   UNL     1      -3.285  11.972  18.904  0.00  0.00    +0.000 N 
ATOM     18  C   UNL     1      -2.640  11.514  17.660  0.00  0.00    +0.000 C 
ATOM     19  C   UNL     1      -1.367  10.700  17.984  0.00  0.00    +0.000 C 
BRANCH  17  20
ATOM     20  C   UNL     1      -4.632  11.802  19.143  0.00  0.00    +0.000 A 
ATOM     21  C   UNL     1      -5.286  12.459  20.196  0.00  0.00    +0.000 A 
ATOM     22  C   UNL     1      -6.654  12.283  20.435  0.00  0.00    +0.000 A 
ATOM     23  C   UNL     1      -7.403  11.443  19.617  0.00  0.00    +0.000 A 
ATOM     24  C   UNL     1      -6.783  10.783  18.563  0.00  0.00    +0.000 A 
ATOM     25  C   UNL     1      -5.417  10.963  18.336  0.00  0.00    +0.000 A 
ENDBRANCH  17  20
ENDBRANCH   1  14
TORSDOF 6
ENDMDL
MODEL 2
REMARK VINA RESULT:      -7.0      0.296      1.047
REMARK  Name = 
REMARK  8 active torsions:
REMARK  status: ('A' for Active; 'I' for Inactive)
REMARK    1  A    between atoms: C_1  and  C_2
REMARK    2  A    between atoms: C_2  and  N_3
REMARK    3  A    between atoms: N_3  and  C_4
REMARK    4  A    between atoms: N_3  and  C_6
REMARK    5  A    between atoms: C_4  and  C_5
REMARK    6  A    between atoms: C_9  and  C_10
REMARK    7  A    between atoms: C_10  and  N_12
REMARK    8  A    between atoms: N_15  and  C_16
REMARK                            x       y       z     vdW  Elec       q    Type
REMARK                         _______ _______ _______ _____ _____    ______ ____
ROOT
ATOM      1  C   UNL     1       0.905  11.107  18.866  0.00  0.00    +0.000 C 
ATOM      2  S   UNL     1       2.007  12.328  18.500  0.00  0.00    +0.000 S 
ENDROOT
BRANCH   1   6
ATOM      3  C   UNL     1       2.281   7.028  19.520  0.00  0.00    +0.000 A 
ATOM      4  C   UNL     1       1.604   7.741  20.520  0.00  0.00    +0.000 A 
ATOM      5  C   UNL     1       1.127   9.045  20.318  0.00  0.00    +0.000 A 
ATOM      6  C   UNL     1       1.293   9.673  19.084  0.00  0.00    +0.000 A 
ATOM      7  C   UNL     1       1.910   8.954  18.054  0.00  0.00    +0.000 A 
ATOM      8  C   UNL     1       2.401   7.661  18.276  0.00  0.00    +0.000 A 
BRANCH   3   9
ATOM      9  N   UNL     1       2.816   5.770  19.755  0.00  0.00    +0.000 N 
BRANCH   9  11
ATOM     10  C   UNL     1       3.547   4.440  17.789  0.00  0.00    +0.000 C 
ATOM     11  C   UNL     1       3.962   5.293  18.978  0.00  0.00    +0.000 C 
ENDBRANCH   9  11
BRANCH   9  12
ATOM     12  C   UNL     1       2.230   4.872  20.757  0.00  0.00    +0.000 C 
ATOM     13  C   UNL     1       0.979   4.184  20.223  0.00  0.00    +0.000 C 
ENDBRANCH   9  12
ENDBRANCH   3   9
ENDBRANCH   1   6
BRANCH   1  14
ATOM     14  N   UNL     1      -0.467  11.327  18.883  0.00  0.00    +0.000 N 
ATOM     15  C   UNL     1      -1.152  11.782  20.100  0.00  0.00    +0.000 C 
ATOM     16  C   UNL     1      -2.357  12.650  19.708  0.00  0.00    +0.000 C 
ATOM     17  N   UNL     1      -3.244  11.900  18.802  0.00  0.00    +0.000 N 
ATOM     18  C   UNL     1      -2.606  11.343  17.595  0.00  0.00    +0.000 C 
ATOM     19  C   UNL     1      -1.329  10.559  17.975  0.00  0.00    +0.000 C 
BRANCH  17  20
ATOM     20  C   UNL     1      -4.588  11.748  19.062  0.00  0.00    +0.000 A 
ATOM     21  C   UNL     1      -5.418  10.967  18.244  0.00  0.00    +0.000 A 
ATOM     22  C   UNL     1      -6.783  10.815  18.513  0.00  0.00    +0.000 A 
ATOM     23  C   UNL     1      -7.351  11.443  19.617  0.00  0.00    +0.000 A 
ATOM     24  C   UNL     1      -6.553  12.219  20.449  0.00  0.00    +0.000 A 
ATOM     25  C   UNL     1      -5.192  12.366  20.170  0.00  0.00    +0.000 A 
ENDBRANCH  17  20
ENDBRANCH   1  14
TORSDOF 6
ENDMDL
MODEL 3
REMARK VINA RESULT:      -7.0      0.076      1.618
REMARK  Name = 
REMARK  8 active torsions:
REMARK  status: ('A' for Active; 'I' for Inactive)
REMARK    1  A    between atoms: C_1  and  C_2
REMARK    2  A    between atoms: C_2  and  N_3
REMARK    3  A    between atoms: N_3  and  C_4
REMARK    4  A    between atoms: N_3  and  C_6
REMARK    5  A    between atoms: C_4  and  C_5
REMARK    6  A    between atoms: C_9  and  C_10
REMARK    7  A    between atoms: C_10  and  N_12
REMARK    8  A    between atoms: N_15  and  C_16
REMARK                            x       y       z     vdW  Elec       q    Type
REMARK                         _______ _______ _______ _____ _____    ______ ____
ROOT
ATOM      1  C   UNL     1       0.877  11.189  18.889  0.00  0.00    +0.000 C 
ATOM      2  S   UNL     1       1.969  12.436  18.591  0.00  0.00    +0.000 S 
ENDROOT
BRANCH   1   6
ATOM      3  C   UNL     1       2.283   7.088  19.302  0.00  0.00    +0.000 A 
ATOM      4  C   UNL     1       1.651   7.755  20.361  0.00  0.00    +0.000 A 
ATOM      5  C   UNL     1       1.164   9.066  20.237  0.00  0.00    +0.000 A 
ATOM      6  C   UNL     1       1.275   9.748  19.026  0.00  0.00    +0.000 A 
ATOM      7  C   UNL     1       1.847   9.076  17.939  0.00  0.00    +0.000 A 
ATOM      8  C   UNL     1       2.348   7.775  18.082  0.00  0.00    +0.000 A 
BRANCH   3   9
ATOM      9  N   UNL     1       2.829   5.823  19.457  0.00  0.00    +0.000 N 
BRANCH   9  11
ATOM     10  C   UNL     1       1.208   4.115  20.247  0.00  0.00    +0.000 C 
ATOM     11  C   UNL     1       2.423   4.970  20.576  0.00  0.00    +0.000 C 
ENDBRANCH   9  11
BRANCH   9  12
ATOM     12  C   UNL     1       3.850   5.319  18.530  0.00  0.00    +0.000 C 
ATOM     13  C   UNL     1       4.924   4.525  19.264  0.00  0.00    +0.000 C 
ENDBRANCH   9  12
ENDBRANCH   3   9
ENDBRANCH   1   6
BRANCH   1  14
ATOM     14  N   UNL     1      -0.497  11.398  18.918  0.00  0.00    +0.000 N 
ATOM     15  C   UNL     1      -1.187  11.761  20.162  0.00  0.00    +0.000 C 
ATOM     16  C   UNL     1      -2.397  12.646  19.831  0.00  0.00    +0.000 C 
ATOM     17  N   UNL     1      -3.277  11.955  18.872  0.00  0.00    +0.000 N 
ATOM     18  C   UNL     1      -2.634  11.490  17.629  0.00  0.00    +0.000 C 
ATOM     19  C   UNL     1      -1.352  10.689  17.956  0.00  0.00    +0.000 C 
BRANCH  17  20
ATOM     20  C   UNL     1      -4.621  11.776  19.118  0.00  0.00    +0.000 A 
ATOM     21  C   UNL     1      -5.427  10.982  18.288  0.00  0.00    +0.000 A 
ATOM     22  C   UNL     1      -6.792  10.802  18.543  0.00  0.00    +0.000 A 
ATOM     23  C   UNL     1      -7.383  11.415  19.643  0.00  0.00    +0.000 A 
ATOM     24  C   UNL     1      -6.609  12.203  20.486  0.00  0.00    +0.000 A 
ATOM     25  C   UNL     1      -5.248  12.378  20.221  0.00  0.00    +0.000 A 
ENDBRANCH  17  20
ENDBRANCH   1  14
TORSDOF 6
ENDMDL
MODEL 4
REMARK VINA RESULT:      -6.8      3.611      9.962
REMARK  Name = 
REMARK  8 active torsions:
REMARK  status: ('A' for Active; 'I' for Inactive)
REMARK    1  A    between atoms: C_1  and  C_2
REMARK    2  A    between atoms: C_2  and  N_3
REMARK    3  A    between atoms: N_3  and  C_4
REMARK    4  A    between atoms: N_3  and  C_6
REMARK    5  A    between atoms: C_4  and  C_5
REMARK    6  A    between atoms: C_9  and  C_10
REMARK    7  A    between atoms: C_10  and  N_12
REMARK    8  A    between atoms: N_15  and  C_16
REMARK                            x       y       z     vdW  Elec       q    Type
REMARK                         _______ _______ _______ _____ _____    ______ ____
ROOT
ATOM      1  C   UNL     1       2.932   5.687  19.405  0.00  0.00    +0.000 C 
ATOM      2  S   UNL     1       2.527   4.596  20.622  0.00  0.00    +0.000 S 
ENDROOT
BRANCH   1   6
ATOM      3  C   UNL     1       1.070   9.603  19.003  0.00  0.00    +0.000 A 
ATOM      4  C   UNL     1       1.147   8.953  20.243  0.00  0.00    +0.000 A 
ATOM      5  C   UNL     1       1.770   7.705  20.398  0.00  0.00    +0.000 A 
ATOM      6  C   UNL     1       2.364   7.073  19.305  0.00  0.00    +0.000 A 
ATOM      7  C   UNL     1       2.353   7.735  18.072  0.00  0.00    +0.000 A 
ATOM      8  C   UNL     1       1.709   8.971  17.926  0.00  0.00    +0.000 A 
BRANCH   3   9
ATOM      9  N   UNL     1       0.386  10.799  18.845  0.00  0.00    +0.000 N 
BRANCH   9  11
ATOM     10  C   UNL     1       0.190  13.259  18.567  0.00  0.00    +0.000 C 
ATOM     11  C   UNL     1       1.116  12.064  18.734  0.00  0.00    +0.000 C 
ENDBRANCH   9  11
BRANCH   9  12
ATOM     12  C   UNL     1      -1.081  10.835  18.822  0.00  0.00    +0.000 C 
ATOM     13  C   UNL     1      -1.634  10.139  17.583  0.00  0.00    +0.000 C 
ENDBRANCH   9  12
ENDBRANCH   3   9
ENDBRANCH   1   6
BRANCH   1  14
ATOM     14  N   UNL     1       3.746   5.335  18.335  0.00  0.00    +0.000 N 
ATOM     15  C   UNL     1       4.698   6.290  17.754  0.00  0.00    +0.000 C 
ATOM     16  C   UNL     1       5.916   5.526  17.214  0.00  0.00    +0.000 C 
ATOM     17  N   UNL     1       5.480   4.500  16.251  0.00  0.00    +0.000 N 
ATOM     18  C   UNL     1       4.463   3.551  16.741  0.00  0.00    +0.000 C 
ATOM     19  C   UNL     1       3.283   4.315  17.384  0.00  0.00    +0.000 C 
BRANCH  17  20
ATOM     20  C   UNL     1       6.008   4.424  14.980  0.00  0.00    +0.000 A 
ATOM     21  C   UNL     1       5.412   3.648  13.975  0.00  0.00    +0.000 A 
ATOM     22  C   UNL     1       5.951   3.576  12.686  0.00  0.00    +0.000 A 
ATOM     23  C   UNL     1       7.106   4.285  12.371  0.00  0.00    +0.000 A 
ATOM     24  C   UNL     1       7.716   5.067  13.345  0.00  0.00    +0.000 A 
ATOM     25  C   UNL     1       7.170   5.130  14.630  0.00  0.00    +0.000 A 
ENDBRANCH  17  20
ENDBRANCH   1  14
TORSDOF 6
ENDMDL
MODEL 5
REMARK VINA RESULT:      -6.8      1.184      8.455
REMARK  Name = 
REMARK  8 active torsions:
REMARK  status: ('A' for Active; 'I' for Inactive)
REMARK    1  A    between atoms: C_1  and  C_2
REMARK    2  A    between atoms: C_2  and  N_3
REMARK    3  A    between atoms: N_3  and  C_4
REMARK    4  A    between atoms: N_3  and  C_6
REMARK    5  A    between atoms: C_4  and  C_5
REMARK    6  A    between atoms: C_9  and  C_10
REMARK    7  A    between atoms: C_10  and  N_12
REMARK    8  A    between atoms: N_15  and  C_16
REMARK                            x       y       z     vdW  Elec       q    Type
REMARK                         _______ _______ _______ _____ _____    ______ ____
ROOT
ATOM      1  C   UNL     1       0.706  11.135  18.843  0.00  0.00    +0.000 C 
ATOM      2  S   UNL     1       1.783  12.427  18.749  0.00  0.00    +0.000 S 
ENDROOT
BRANCH   1   6
ATOM      3  C   UNL     1      -3.591  11.835  18.751  0.00  0.00    +0.000 A 
ATOM      4  C   UNL     1      -2.969  10.977  17.832  0.00  0.00    +0.000 A 
ATOM      5  C   UNL     1      -1.591  10.716  17.865  0.00  0.00    +0.000 A 
ATOM      6  C   UNL     1      -0.787  11.294  18.847  0.00  0.00    +0.000 A 
ATOM      7  C   UNL     1      -1.399  12.103  19.811  0.00  0.00    +0.000 A 
ATOM      8  C   UNL     1      -2.773  12.373  19.754  0.00  0.00    +0.000 A 
BRANCH   3   9
ATOM      9  N   UNL     1      -4.939  12.148  18.663  0.00  0.00    +0.000 N 
BRANCH   9  11
ATOM     10  C   UNL     1      -6.686  12.947  17.089  0.00  0.00    +0.000 C 
ATOM     11  C   UNL     1      -5.693  11.850  17.443  0.00  0.00    +0.000 C 
ENDBRANCH   9  11
BRANCH   9  12
ATOM     12  C   UNL     1      -5.637  12.812  19.770  0.00  0.00    +0.000 C 
ATOM     13  C   UNL     1      -6.392  11.809  20.634  0.00  0.00    +0.000 C 
ENDBRANCH   9  12
ENDBRANCH   3   9
ENDBRANCH   1   6
BRANCH   1  14
ATOM     14  N   UNL     1       1.133   9.827  19.037  0.00  0.00    +0.000 N 
ATOM     15  C   UNL     1       1.467   8.957  17.902  0.00  0.00    +0.000 C 
ATOM     16  C   UNL     1       2.569   7.974  18.323  0.00  0.00    +0.000 C 
ATOM     17  N   UNL     1       2.141   7.218  19.513  0.00  0.00    +0.000 N 
ATOM     18  C   UNL     1       1.714   8.028  20.669  0.00  0.00    +0.000 C 
ATOM     19  C   UNL     1       0.683   9.092  20.227  0.00  0.00    +0.000 C 
BRANCH  17  20
ATOM     20  C   UNL     1       2.159   5.841  19.543  0.00  0.00    +0.000 A 
ATOM     21  C   UNL     1       1.846   5.121  20.707  0.00  0.00    +0.000 A 
ATOM     22  C   UNL     1       1.864   3.722  20.733  0.00  0.00    +0.000 A 
ATOM     23  C   UNL     1       2.196   3.007  19.586  0.00  0.00    +0.000 A 
ATOM     24  C   UNL     1       2.506   3.692  18.417  0.00  0.00    +0.000 A 
ATOM     25  C   UNL     1       2.486   5.089  18.403  0.00  0.00    +0.000 A 
ENDBRANCH  17  20
ENDBRANCH   1  14
TORSDOF 6
ENDMDL
MODEL 6
REMARK VINA RESULT:      -6.8      0.335      1.012
REMARK  Name = 
REMARK  8 active torsions:
REMARK  status: ('A' for Active; 'I' for Inactive)
REMARK    1  A    between atoms: C_1  and  C_2
REMARK    2  A    between atoms: C_2  and  N_3
REMARK    3  A    between atoms: N_3  and  C_4
REMARK    4  A    between atoms: N_3  and  C_6
REMARK    5  A    between atoms: C_4  and  C_5
REMARK    6  A    between atoms: C_9  and  C_10
REMARK    7  A    between atoms: C_10  and  N_12
REMARK    8  A    between atoms: N_15  and  C_16
REMARK                            x       y       z     vdW  Elec       q    Type
REMARK                         _______ _______ _______ _____ _____    ______ ____
ROOT
ATOM      1  C   UNL     1       0.936  11.421  18.858  0.00  0.00    +0.000 C 
ATOM      2  S   UNL     1       1.958  12.702  18.469  0.00  0.00    +0.000 S 
ENDROOT
BRANCH   1   6
ATOM      3  C   UNL     1       2.066   7.261  19.471  0.00  0.00    +0.000 A 
ATOM      4  C   UNL     1       2.362   7.931  18.274  0.00  0.00    +0.000 A 
ATOM      5  C   UNL     1       2.033   9.280  18.070  0.00  0.00    +0.000 A 
ATOM      6  C   UNL     1       1.412  10.014  19.080  0.00  0.00    +0.000 A 
ATOM      7  C   UNL     1       1.166   9.381  20.303  0.00  0.00    +0.000 A 
ATOM      8  C   UNL     1       1.480   8.028  20.487  0.00  0.00    +0.000 A 
BRANCH   3   9
ATOM      9  N   UNL     1       2.326   5.908  19.634  0.00  0.00    +0.000 N 
BRANCH   9  11
ATOM     10  C   UNL     1       4.686   5.220  19.279  0.00  0.00    +0.000 C 
ATOM     11  C   UNL     1       3.262   5.218  18.743  0.00  0.00    +0.000 C 
ENDBRANCH   9  11
BRANCH   9  12
ATOM     12  C   UNL     1       1.648   5.127  20.675  0.00  0.00    +0.000 C 
ATOM     13  C   UNL     1       1.046   3.847  20.106  0.00  0.00    +0.000 C 
ENDBRANCH   9  12
ENDBRANCH   3   9
ENDBRANCH   1   6
BRANCH   1  14
ATOM     14  N   UNL     1      -0.446  11.559  18.890  0.00  0.00    +0.000 N 
ATOM     15  C   UNL     1      -1.139  12.020  20.100  0.00  0.00    +0.000 C 
ATOM     16  C   UNL     1      -2.400  12.798  19.697  0.00  0.00    +0.000 C 
ATOM     17  N   UNL     1      -3.254  11.960  18.836  0.00  0.00    +0.000 N 
ATOM     18  C   UNL     1      -2.602  11.396  17.640  0.00  0.00    +0.000 C 
ATOM     19  C   UNL     1      -1.275  10.705  18.028  0.00  0.00    +0.000 C 
BRANCH  17  20
ATOM     20  C   UNL     1      -4.583  11.739  19.126  0.00  0.00    +0.000 A 
ATOM     21  C   UNL     1      -5.209  12.336  20.231  0.00  0.00    +0.000 A 
ATOM     22  C   UNL     1      -6.560  12.109  20.520  0.00  0.00    +0.000 A 
ATOM     23  C   UNL     1      -7.318  11.275  19.704  0.00  0.00    +0.000 A 
ATOM     24  C   UNL     1      -6.726  10.674  18.600  0.00  0.00    +0.000 A 
ATOM     25  C   UNL     1      -5.377  10.906  18.321  0.00  0.00    +0.000 A 
ENDBRANCH  17  20
ENDBRANCH   1  14
TORSDOF 6
ENDMDL
MODEL 7
REMARK VINA RESULT:      -6.7      3.487      9.923
REMARK  Name = 
REMARK  8 active torsions:
REMARK  status: ('A' for Active; 'I' for Inactive)
REMARK    1  A    between atoms: C_1  and  C_2
REMARK    2  A    between atoms: C_2  and  N_3
REMARK    3  A    between atoms: N_3  and  C_4
REMARK    4  A    between atoms: N_3  and  C_6
REMARK    5  A    between atoms: C_4  and  C_5
REMARK    6  A    between atoms: C_9  and  C_10
REMARK    7  A    between atoms: C_10  and  N_12
REMARK    8  A    between atoms: N_15  and  C_16
REMARK                            x       y       z     vdW  Elec       q    Type
REMARK                         _______ _______ _______ _____ _____    ______ ____
ROOT
ATOM      1  C   UNL     1       2.791   5.668  19.618  0.00  0.00    +0.000 C 
ATOM      2  S   UNL     1       2.345   4.579  20.823  0.00  0.00    +0.000 S 
ENDROOT
BRANCH   1   6
ATOM      3  C   UNL     1       1.073   9.651  19.237  0.00  0.00    +0.000 A 
ATOM      4  C   UNL     1       1.063   8.963  20.460  0.00  0.00    +0.000 A 
ATOM      5  C   UNL     1       1.639   7.692  20.609  0.00  0.00    +0.000 A 
ATOM      6  C   UNL     1       2.271   7.073  19.531  0.00  0.00    +0.000 A 
ATOM      7  C   UNL     1       2.347   7.771  18.320  0.00  0.00    +0.000 A 
ATOM      8  C   UNL     1       1.749   9.030  18.178  0.00  0.00    +0.000 A 
BRANCH   3   9
ATOM      9  N   UNL     1       0.434  10.872  19.081  0.00  0.00    +0.000 N 
BRANCH   9  11
ATOM     10  C   UNL     1      -1.626  10.173  17.884  0.00  0.00    +0.000 C 
ATOM     11  C   UNL     1      -1.028  10.947  19.049  0.00  0.00    +0.000 C 
ENDBRANCH   9  11
BRANCH   9  12
ATOM     12  C   UNL     1       1.202  12.111  18.909  0.00  0.00    +0.000 C 
ATOM     13  C   UNL     1       0.321  13.243  18.392  0.00  0.00    +0.000 C 
ENDBRANCH   9  12
ENDBRANCH   3   9
ENDBRANCH   1   6
BRANCH   1  14
ATOM     14  N   UNL     1       3.596   5.298  18.546  0.00  0.00    +0.000 N 
ATOM     15  C   UNL     1       4.732   6.127  18.124  0.00  0.00    +0.000 C 
ATOM     16  C   UNL     1       5.830   5.224  17.545  0.00  0.00    +0.000 C 
ATOM     17  N   UNL     1       5.283   4.407  16.448  0.00  0.00    +0.000 N 
ATOM     18  C   UNL     1       4.090   3.606  16.778  0.00  0.00    +0.000 C 
ATOM     19  C   UNL     1       3.022   4.490  17.461  0.00  0.00    +0.000 C 
BRANCH  17  20
ATOM     20  C   UNL     1       5.866   4.381  15.200  0.00  0.00    +0.000 A 
ATOM     21  C   UNL     1       5.289   3.686  14.126  0.00  0.00    +0.000 A 
ATOM     22  C   UNL     1       5.885   3.665  12.860  0.00  0.00    +0.000 A 
ATOM     23  C   UNL     1       7.078   4.345  12.638  0.00  0.00    +0.000 A 
ATOM     24  C   UNL     1       7.671   5.047  13.681  0.00  0.00    +0.000 A 
ATOM     25  C   UNL     1       7.069   5.060  14.942  0.00  0.00    +0.000 A 
ENDBRANCH  17  20
ENDBRANCH   1  14
TORSDOF 6
ENDMDL
MODEL 8
REMARK VINA RESULT:      -6.6      1.195      8.478
REMARK  Name = 
REMARK  8 active torsions:
REMARK  status: ('A' for Active; 'I' for Inactive)
REMARK    1  A    between atoms: C_1  and  C_2
REMARK    2  A    between atoms: C_2  and  N_3
REMARK    3  A    between atoms: N_3  and  C_4
REMARK    4  A    between atoms: N_3  and  C_6
REMARK    5  A    between atoms: C_4  and  C_5
REMARK    6  A    between atoms: C_9  and  C_10
REMARK    7  A    between atoms: C_10  and  N_12
REMARK    8  A    between atoms: N_15  and  C_16
REMARK                            x       y       z     vdW  Elec       q    Type
REMARK                         _______ _______ _______ _____ _____    ______ ____
ROOT
ATOM      1  C   UNL     1       0.778  11.200  18.802  0.00  0.00    +0.000 C 
ATOM      2  S   UNL     1       1.863  12.474  18.611  0.00  0.00    +0.000 S 
ENDROOT
BRANCH   1   6
ATOM      3  C   UNL     1      -3.501  11.968  19.039  0.00  0.00    +0.000 A 
ATOM      4  C   UNL     1      -2.966  11.098  18.079  0.00  0.00    +0.000 A 
ATOM      5  C   UNL     1      -1.594  10.814  18.006  0.00  0.00    +0.000 A 
ATOM      6  C   UNL     1      -0.707  11.383  18.920  0.00  0.00    +0.000 A 
ATOM      7  C   UNL     1      -1.230  12.204  19.925  0.00  0.00    +0.000 A 
ATOM      8  C   UNL     1      -2.600  12.496  19.974  0.00  0.00    +0.000 A 
BRANCH   3   9
ATOM      9  N   UNL     1      -4.848  12.301  19.054  0.00  0.00    +0.000 N 
BRANCH   9  11
ATOM     10  C   UNL     1      -6.123  12.473  21.178  0.00  0.00    +0.000 C 
ATOM     11  C   UNL     1      -5.378  13.209  20.074  0.00  0.00    +0.000 C 
ENDBRANCH   9  11
BRANCH   9  12
ATOM     12  C   UNL     1      -5.780  11.730  18.075  0.00  0.00    +0.000 C 
ATOM     13  C   UNL     1      -6.305  12.796  17.120  0.00  0.00    +0.000 C 
ENDBRANCH   9  12
ENDBRANCH   3   9
ENDBRANCH   1   6
BRANCH   1  14
ATOM     14  N   UNL     1       1.199   9.887  18.975  0.00  0.00    +0.000 N 
ATOM     15  C   UNL     1       1.533   9.035  17.827  0.00  0.00    +0.000 C 
ATOM     16  C   UNL     1       2.630   8.041  18.235  0.00  0.00    +0.000 C 
ATOM     17  N   UNL     1       2.195   7.268  19.412  0.00  0.00    +0.000 N 
ATOM     18  C   UNL     1       1.769   8.060  20.580  0.00  0.00    +0.000 C 
ATOM     19  C   UNL     1       0.744   9.136  20.153  0.00  0.00    +0.000 C 
BRANCH  17  20
ATOM     20  C   UNL     1       2.208   5.889  19.420  0.00  0.00    +0.000 A 
ATOM     21  C   UNL     1       1.964   5.154  20.590  0.00  0.00    +0.000 A 
ATOM     22  C   UNL     1       1.977   3.754  20.593  0.00  0.00    +0.000 A 
ATOM     23  C   UNL     1       2.232   3.056  19.417  0.00  0.00    +0.000 A 
ATOM     24  C   UNL     1       2.471   3.757  18.242  0.00  0.00    +0.000 A 
ATOM     25  C   UNL     1       2.459   5.154  18.250  0.00  0.00    +0.000 A 
ENDBRANCH  17  20
ENDBRANCH   1  14
TORSDOF 6
ENDMDL
MODEL 9
REMARK VINA RESULT:      -6.6      1.133      8.252
REMARK  Name = 
REMARK  8 active torsions:
REMARK  status: ('A' for Active; 'I' for Inactive)
REMARK    1  A    between atoms: C_1  and  C_2
REMARK    2  A    between atoms: C_2  and  N_3
REMARK    3  A    between atoms: N_3  and  C_4
REMARK    4  A    between atoms: N_3  and  C_6
REMARK    5  A    between atoms: C_4  and  C_5
REMARK    6  A    between atoms: C_9  and  C_10
REMARK    7  A    between atoms: C_10  and  N_12
REMARK    8  A    between atoms: N_15  and  C_16
REMARK                            x       y       z     vdW  Elec       q    Type
REMARK                         _______ _______ _______ _____ _____    ______ ____
ROOT
ATOM      1  C   UNL     1       0.922  11.292  18.736  0.00  0.00    +0.000 C 
ATOM      2  S   UNL     1       2.087  12.501  18.599  0.00  0.00    +0.000 S 
ENDROOT
BRANCH   1   6
ATOM      3  C   UNL     1      -3.393  11.827  18.962  0.00  0.00    +0.000 A 
ATOM      4  C   UNL     1      -2.529  12.465  19.864  0.00  0.00    +0.000 A 
ATOM      5  C   UNL     1      -1.134  12.329  19.788  0.00  0.00    +0.000 A 
ATOM      6  C   UNL     1      -0.554  11.560  18.779  0.00  0.00    +0.000 A 
ATOM      7  C   UNL     1      -1.398  10.967  17.832  0.00  0.00    +0.000 A 
ATOM      8  C   UNL     1      -2.790  11.093  17.932  0.00  0.00    +0.000 A 
BRANCH   3   9
ATOM      9  N   UNL     1      -4.772  11.906  19.092  0.00  0.00    +0.000 N 
BRANCH   9  11
ATOM     10  C   UNL     1      -6.809  10.543  18.690  0.00  0.00    +0.000 C 
ATOM     11  C   UNL     1      -5.649  11.314  18.079  0.00  0.00    +0.000 C 
ENDBRANCH   9  11
BRANCH   9  12
ATOM     12  C   UNL     1      -5.387  12.610  20.223  0.00  0.00    +0.000 C 
ATOM     13  C   UNL     1      -5.883  13.993  19.814  0.00  0.00    +0.000 C 
ENDBRANCH   9  12
ENDBRANCH   3   9
ENDBRANCH   1   6
BRANCH   1  14
ATOM     14  N   UNL     1       1.258   9.958  18.933  0.00  0.00    +0.000 N 
ATOM     15  C   UNL     1       1.559   9.072  17.802  0.00  0.00    +0.000 C 
ATOM     16  C   UNL     1       2.584   8.018  18.242  0.00  0.00    +0.000 C 
ATOM     17  N   UNL     1       2.081   7.288  19.419  0.00  0.00    +0.000 N 
ATOM     18  C   UNL     1       1.683   8.120  20.569  0.00  0.00    +0.000 C 
ATOM     19  C   UNL     1       0.735   9.251  20.110  0.00  0.00    +0.000 C 
BRANCH  17  20
ATOM     20  C   UNL     1       2.008   5.912  19.443  0.00  0.00    +0.000 A 
ATOM     21  C   UNL     1       1.722   5.206  20.622  0.00  0.00    +0.000 A 
ATOM     22  C   UNL     1       1.648   3.808  20.642  0.00  0.00    +0.000 A 
ATOM     23  C   UNL     1       1.857   3.082  19.474  0.00  0.00    +0.000 A 
ATOM     24  C   UNL     1       2.137   3.753  18.290  0.00  0.00    +0.000 A 
ATOM     25  C   UNL     1       2.211   5.149  18.282  0.00  0.00    +0.000 A 
ENDBRANCH  17  20
ENDBRANCH   1  14
TORSDOF 6
ENDMDL
