MODEL 1
REMARK VINA RESULT:      -6.9      0.000      0.000
REMARK  Name = 
REMARK  8 active torsions:
REMARK  status: ('A' for Active; 'I' for Inactive)
REMARK    1  A    between atoms: C_1  and  O_2
REMARK    2  A    between atoms: O_2  and  C_3
REMARK    3  A    between atoms: C_8  and  C_9
REMARK    4  A    between atoms: N_11  and  C_12
REMARK    5  A    between atoms: C_14  and  C_15
REMARK    6  A    between atoms: C_19  and  N_20
REMARK    7  A    between atoms: N_23  and  C_24
REMARK    8  A    between atoms: C_24  and  C_25
REMARK                            x       y       z     vdW  Elec       q    Type
REMARK                         _______ _______ _______ _____ _____    ______ ____
ROOT
ATOM      1  C   UNL     1      -0.073  13.702  18.842  0.00  0.00    +0.000 A 
ATOM      2  C   UNL     1      -0.166  15.096  18.681  0.00  0.00    +0.000 A 
ATOM      3  C   UNL     1       0.867  15.921  19.116  0.00  0.00    +0.000 A 
ATOM      4  C   UNL     1       2.000  15.348  19.692  0.00  0.00    +0.000 A 
ATOM      5  C   UNL     1       2.090  13.958  19.838  0.00  0.00    +0.000 A 
ATOM      6  C   UNL     1       1.062  13.090  19.430  0.00  0.00    +0.000 A 
ENDROOT
BRANCH   6   7
ATOM      7  N   UNL     1       1.232  11.713  19.541  0.00  0.00    +0.000 N 
ATOM      8  C   UNL     1       0.981  10.974  20.793  0.00  0.00    +0.000 C 
ATOM      9  C   UNL     1       0.198   9.669  20.549  0.00  0.00    +0.000 C 
ATOM     10  N   UNL     1       0.740   8.787  19.490  0.00  0.00    +0.000 NA
ATOM     11  C   UNL     1       0.890   9.607  18.262  0.00  0.00    +0.000 C 
ATOM     12  C   UNL     1       1.733  10.899  18.421  0.00  0.00    +0.000 C 
BRANCH  10  13
ATOM     13  C   UNL     1       2.033   8.175  19.874  0.00  0.00    +0.000 C 
BRANCH  13  14
ATOM     14  C   UNL     1       2.132   6.684  19.594  0.00  0.00    +0.000 A 
ATOM     15  C   UNL     1       2.533   6.223  18.338  0.00  0.00    +0.000 A 
ATOM     16  C   UNL     1       2.552   4.851  18.096  0.00  0.00    +0.000 A 
ATOM     17  C   UNL     1       2.184   3.987  19.115  0.00  0.00    +0.000 A 
ATOM     18  F   UNL     1       2.180   2.664  18.911  0.00  0.00    +0.000 F 
ATOM     19  C   UNL     1       1.814   4.514  20.339  0.00  0.00    +0.000 A 
ATOM     20  N   UNL     1       1.777   5.843  20.602  0.00  0.00    +0.000 NA
ENDBRANCH  13  14
ENDBRANCH  10  13
ENDBRANCH   6   7
BRANCH   1  23
ATOM     21  C   UNL     1      -2.167  12.574  19.468  0.00  0.00    +0.000 C 
ATOM     22  O   UNL     1      -2.021  12.717  20.679  0.00  0.00    +0.000 OA
ATOM     23  N   UNL     1      -1.207  12.918  18.527  0.00  0.00    +0.000 N 
ATOM     24  H   UNL     1      -1.525  13.000  17.565  0.00  0.00    +0.000 HD
BRANCH  21  30
ATOM     25  C   UNL     1      -3.697  11.399  17.765  0.00  0.00    +0.000 A 
ATOM     26  N   UNL     1      -4.921  11.028  17.306  0.00  0.00    +0.000 NA
ATOM     27  C   UNL     1      -5.993  11.375  18.048  0.00  0.00    +0.000 A 
ATOM     28  C   UNL     1      -5.906  12.081  19.232  0.00  0.00    +0.000 A 
ATOM     29  C   UNL     1      -4.641  12.448  19.687  0.00  0.00    +0.000 A 
ATOM     30  C   UNL     1      -3.495  12.107  18.951  0.00  0.00    +0.000 A 
BRANCH  25  32
ATOM     31  C   UNL     1      -2.906  10.877  15.612  0.00  0.00    +0.000 C 
ATOM     32  O   UNL     1      -2.601  11.066  16.993  0.00  0.00    +0.000 OA
ENDBRANCH  25  32
ENDBRANCH  21  30
ENDBRANCH   1  23
BRANCH   3  33
ATOM     33  C   UNL     1       0.756  17.348  19.006  0.00  0.00    +0.000 C 
ATOM     34  N   UNL     1       0.690  18.502  18.913  0.00  0.00    +0.000 NA
ENDBRANCH   3  33
TORSDOF 7
ENDMDL
MODEL 2
REMARK VINA RESULT:      -6.6      4.536      9.132
REMARK  Name = 
REMARK  8 active torsions:
REMARK  status: ('A' for Active; 'I' for Inactive)
REMARK    1  A    between atoms: C_1  and  O_2
REMARK    2  A    between atoms: O_2  and  C_3
REMARK    3  A    between atoms: C_8  and  C_9
REMARK    4  A    between atoms: N_11  and  C_12
REMARK    5  A    between atoms: C_14  and  C_15
REMARK    6  A    between atoms: C_19  and  N_20
REMARK    7  A    between atoms: N_23  and  C_24
REMARK    8  A    between atoms: C_24  and  C_25
REMARK                            x       y       z     vdW  Elec       q    Type
REMARK                         _______ _______ _______ _____ _____    ______ ____
ROOT
ATOM      1  C   UNL     1       3.111   4.892  20.143  0.00  0.00    +0.000 A 
ATOM      2  C   UNL     1       2.251   4.358  21.119  0.00  0.00    +0.000 A 
ATOM      3  C   UNL     1       2.181   2.982  21.312  0.00  0.00    +0.000 A 
ATOM      4  C   UNL     1       2.988   2.144  20.544  0.00  0.00    +0.000 A 
ATOM      5  C   UNL     1       3.851   2.684  19.582  0.00  0.00    +0.000 A 
ATOM      6  C   UNL     1       3.938   4.067  19.341  0.00  0.00    +0.000 A 
ENDROOT
BRANCH   6   7
ATOM      7  N   UNL     1       4.859   4.553  18.417  0.00  0.00    +0.000 N 
ATOM      8  C   UNL     1       4.648   4.472  16.959  0.00  0.00    +0.000 C 
ATOM      9  C   UNL     1       5.016   5.788  16.247  0.00  0.00    +0.000 C 
ATOM     10  N   UNL     1       6.348   6.345  16.579  0.00  0.00    +0.000 NA
ATOM     11  C   UNL     1       6.430   6.448  18.058  0.00  0.00    +0.000 C 
ATOM     12  C   UNL     1       6.145   5.136  18.834  0.00  0.00    +0.000 C 
BRANCH  10  13
ATOM     13  C   UNL     1       7.453   5.515  16.049  0.00  0.00    +0.000 C 
BRANCH  13  14
ATOM     14  C   UNL     1       7.247   5.028  14.623  0.00  0.00    +0.000 A 
ATOM     15  C   UNL     1       6.369   3.975  14.352  0.00  0.00    +0.000 A 
ATOM     16  C   UNL     1       6.252   3.513  13.043  0.00  0.00    +0.000 A 
ATOM     17  C   UNL     1       7.003   4.121  12.049  0.00  0.00    +0.000 A 
ATOM     18  F   UNL     1       6.922   3.693  10.783  0.00  0.00    +0.000 F 
ATOM     19  C   UNL     1       7.838   5.169  12.388  0.00  0.00    +0.000 A 
ATOM     20  N   UNL     1       7.981   5.636  13.652  0.00  0.00    +0.000 NA
ENDBRANCH  13  14
ENDBRANCH  10  13
ENDBRANCH   6   7
BRANCH   1  23
ATOM     21  C   UNL     1       2.272   6.805  18.844  0.00  0.00    +0.000 C 
ATOM     22  O   UNL     1       1.778   6.130  17.945  0.00  0.00    +0.000 OA
ATOM     23  N   UNL     1       3.036   6.279  19.876  0.00  0.00    +0.000 N 
ATOM     24  H   UNL     1       3.171   6.875  20.689  0.00  0.00    +0.000 HD
BRANCH  21  30
ATOM     25  C   UNL     1       1.280   8.901  19.960  0.00  0.00    +0.000 A 
ATOM     26  N   UNL     1       0.965  10.223  19.967  0.00  0.00    +0.000 NA
ATOM     27  C   UNL     1       1.322  10.951  18.888  0.00  0.00    +0.000 A 
ATOM     28  C   UNL     1       1.978  10.423  17.794  0.00  0.00    +0.000 A 
ATOM     29  C   UNL     1       2.295   9.066  17.808  0.00  0.00    +0.000 A 
ATOM     30  C   UNL     1       1.948   8.268  18.911  0.00  0.00    +0.000 A 
BRANCH  25  32
ATOM     31  C   UNL     1      -0.020   8.822  21.918  0.00  0.00    +0.000 C 
ATOM     32  O   UNL     1       0.893   8.150  21.053  0.00  0.00    +0.000 OA
ENDBRANCH  25  32
ENDBRANCH  21  30
ENDBRANCH   1  23
BRANCH   3  33
ATOM     33  C   UNL     1       1.266   2.425  22.267  0.00  0.00    +0.000 C 
ATOM     34  N   UNL     1       0.508   1.985  23.027  0.00  0.00    +0.000 NA
ENDBRANCH   3  33
TORSDOF 7
ENDMDL
MODEL 3
REMARK VINA RESULT:      -6.4      4.698      7.394
REMARK  Name = 
REMARK  8 active torsions:
REMARK  status: ('A' for Active; 'I' for Inactive)
REMARK    1  A    between atoms: C_1  and  O_2
REMARK    2  A    between atoms: O_2  and  C_3
REMARK    3  A    between atoms: C_8  and  C_9
REMARK    4  A    between atoms: N_11  and  C_12
REMARK    5  A    between atoms: C_14  and  C_15
REMARK    6  A    between atoms: C_19  and  N_20
REMARK    7  A    between atoms: N_23  and  C_24
REMARK    8  A    between atoms: C_24  and  C_25
REMARK                            x       y       z     vdW  Elec       q    Type
REMARK                         _______ _______ _______ _____ _____    ______ ____
ROOT
ATOM      1  C   UNL     1      -3.865  11.393  17.336  0.00  0.00    +0.000 A 
ATOM      2  C   UNL     1      -4.371  11.055  16.069  0.00  0.00    +0.000 A 
ATOM      3  C   UNL     1      -3.592  10.325  15.176  0.00  0.00    +0.000 A 
ATOM      4  C   UNL     1      -2.317   9.916  15.561  0.00  0.00    +0.000 A 
ATOM      5  C   UNL     1      -1.824  10.246  16.831  0.00  0.00    +0.000 A 
ATOM      6  C   UNL     1      -2.570  10.998  17.755  0.00  0.00    +0.000 A 
ENDROOT
BRANCH   6   7
ATOM      7  N   UNL     1      -2.056  11.243  19.026  0.00  0.00    +0.000 N 
ATOM      8  C   UNL     1      -1.069  10.357  19.673  0.00  0.00    +0.000 C 
ATOM      9  C   UNL     1       0.065  11.150  20.350  0.00  0.00    +0.000 C 
ATOM     10  N   UNL     1      -0.368  12.242  21.252  0.00  0.00    +0.000 NA
ATOM     11  C   UNL     1      -1.300  13.108  20.487  0.00  0.00    +0.000 C 
ATOM     12  C   UNL     1      -2.508  12.381  19.842  0.00  0.00    +0.000 C 
BRANCH  10  13
ATOM     13  C   UNL     1      -1.016  11.732  22.482  0.00  0.00    +0.000 C 
BRANCH  13  14
ATOM     14  C   UNL     1      -1.718  12.795  23.312  0.00  0.00    +0.000 A 
ATOM     15  C   UNL     1      -3.089  12.708  23.567  0.00  0.00    +0.000 A 
ATOM     16  C   UNL     1      -3.711  13.732  24.277  0.00  0.00    +0.000 A 
ATOM     17  C   UNL     1      -2.946  14.800  24.719  0.00  0.00    +0.000 A 
ATOM     18  F   UNL     1      -3.516  15.806  25.394  0.00  0.00    +0.000 F 
ATOM     19  C   UNL     1      -1.591  14.812  24.445  0.00  0.00    +0.000 A 
ATOM     20  N   UNL     1      -0.958  13.836  23.750  0.00  0.00    +0.000 NA
ENDBRANCH  13  14
ENDBRANCH  10  13
ENDBRANCH   6   7
BRANCH   1  23
ATOM     21  C   UNL     1      -5.832  11.887  18.727  0.00  0.00    +0.000 C 
ATOM     22  O   UNL     1      -6.451  10.872  18.421  0.00  0.00    +0.000 OA
ATOM     23  N   UNL     1      -4.628  12.263  18.149  0.00  0.00    +0.000 N 
ATOM     24  H   UNL     1      -4.085  12.963  18.648  0.00  0.00    +0.000 HD
BRANCH  21  30
ATOM     25  C   UNL     1      -6.750  14.051  19.776  0.00  0.00    +0.000 A 
ATOM     26  N   UNL     1      -7.158  14.790  20.841  0.00  0.00    +0.000 NA
ATOM     27  C   UNL     1      -7.150  14.192  22.050  0.00  0.00    +0.000 A 
ATOM     28  C   UNL     1      -6.750  12.886  22.254  0.00  0.00    +0.000 A 
ATOM     29  C   UNL     1      -6.339  12.144  21.149  0.00  0.00    +0.000 A 
ATOM     30  C   UNL     1      -6.333  12.722  19.868  0.00  0.00    +0.000 A 
BRANCH  25  32
ATOM     31  C   UNL     1      -6.393  16.054  18.596  0.00  0.00    +0.000 C 
ATOM     32  O   UNL     1      -6.734  14.669  18.541  0.00  0.00    +0.000 OA
ENDBRANCH  25  32
ENDBRANCH  21  30
ENDBRANCH   1  23
BRANCH   3  33
ATOM     33  C   UNL     1      -4.080  10.025  13.860  0.00  0.00    +0.000 C 
ATOM     34  N   UNL     1      -4.475   9.759  12.802  0.00  0.00    +0.000 NA
ENDBRANCH   3  33
TORSDOF 7
ENDMDL
MODEL 4
REMARK VINA RESULT:      -6.3      4.325      8.418
REMARK  Name = 
REMARK  8 active torsions:
REMARK  status: ('A' for Active; 'I' for Inactive)
REMARK    1  A    between atoms: C_1  and  O_2
REMARK    2  A    between atoms: O_2  and  C_3
REMARK    3  A    between atoms: C_8  and  C_9
REMARK    4  A    between atoms: N_11  and  C_12
REMARK    5  A    between atoms: C_14  and  C_15
REMARK    6  A    between atoms: C_19  and  N_20
REMARK    7  A    between atoms: N_23  and  C_24
REMARK    8  A    between atoms: C_24  and  C_25
REMARK                            x       y       z     vdW  Elec       q    Type
REMARK                         _______ _______ _______ _____ _____    ______ ____
ROOT
ATOM      1  C   UNL     1      -2.682  10.571  17.820  0.00  0.00    +0.000 A 
ATOM      2  C   UNL     1      -2.364  10.105  16.532  0.00  0.00    +0.000 A 
ATOM      3  C   UNL     1      -3.143  10.479  15.441  0.00  0.00    +0.000 A 
ATOM      4  C   UNL     1      -4.224  11.336  15.637  0.00  0.00    +0.000 A 
ATOM      5  C   UNL     1      -4.527  11.807  16.922  0.00  0.00    +0.000 A 
ATOM      6  C   UNL     1      -3.778  11.438  18.054  0.00  0.00    +0.000 A 
ENDROOT
BRANCH   6   7
ATOM      7  N   UNL     1      -4.085  11.986  19.297  0.00  0.00    +0.000 N 
ATOM      8  C   UNL     1      -3.250  13.014  19.945  0.00  0.00    +0.000 C 
ATOM      9  C   UNL     1      -4.096  14.150  20.552  0.00  0.00    +0.000 C 
ATOM     10  N   UNL     1      -5.212  13.718  21.426  0.00  0.00    +0.000 NA
ATOM     11  C   UNL     1      -6.024  12.741  20.659  0.00  0.00    +0.000 C 
ATOM     12  C   UNL     1      -5.243  11.531  20.083  0.00  0.00    +0.000 C 
BRANCH  10  13
ATOM     13  C   UNL     1      -4.735  13.122  22.695  0.00  0.00    +0.000 C 
BRANCH  13  14
ATOM     14  C   UNL     1      -3.872  14.046  23.539  0.00  0.00    +0.000 A 
ATOM     15  C   UNL     1      -2.518  13.766  23.742  0.00  0.00    +0.000 A 
ATOM     16  C   UNL     1      -1.773  14.599  24.573  0.00  0.00    +0.000 A 
ATOM     17  C   UNL     1      -2.396  15.687  25.163  0.00  0.00    +0.000 A 
ATOM     18  F   UNL     1      -1.710  16.500  25.976  0.00  0.00    +0.000 F 
ATOM     19  C   UNL     1      -3.735  15.913  24.904  0.00  0.00    +0.000 A 
ATOM     20  N   UNL     1      -4.489  15.117  24.108  0.00  0.00    +0.000 NA
ENDBRANCH  13  14
ENDBRANCH  10  13
ENDBRANCH   6   7
BRANCH   1  23
ATOM     21  C   UNL     1      -0.767  10.594  19.364  0.00  0.00    +0.000 C 
ATOM     22  O   UNL     1      -0.120  11.429  18.736  0.00  0.00    +0.000 OA
ATOM     23  N   UNL     1      -1.960  10.044  18.916  0.00  0.00    +0.000 N 
ATOM     24  H   UNL     1      -2.531   9.573  19.613  0.00  0.00    +0.000 HD
BRANCH  21  30
ATOM     25  C   UNL     1       0.747   9.369  21.045  0.00  0.00    +0.000 A 
ATOM     26  N   UNL     1       1.100   9.019  22.310  0.00  0.00    +0.000 NA
ATOM     27  C   UNL     1       0.368   9.529  23.322  0.00  0.00    +0.000 A 
ATOM     28  C   UNL     1      -0.708  10.374  23.136  0.00  0.00    +0.000 A 
ATOM     29  C   UNL     1      -1.052  10.723  21.831  0.00  0.00    +0.000 A 
ATOM     30  C   UNL     1      -0.317  10.221  20.745  0.00  0.00    +0.000 A 
BRANCH  25  32
ATOM     31  C   UNL     1       1.897   7.483  20.238  0.00  0.00    +0.000 C 
ATOM     32  O   UNL     1       1.480   8.828  20.007  0.00  0.00    +0.000 OA
ENDBRANCH  25  32
ENDBRANCH  21  30
ENDBRANCH   1  23
BRANCH   3  33
ATOM     33  C   UNL     1      -2.860   9.962  14.132  0.00  0.00    +0.000 C 
ATOM     34  N   UNL     1      -2.637   9.566  13.065  0.00  0.00    +0.000 NA
ENDBRANCH   3  33
TORSDOF 7
ENDMDL
MODEL 5
REMARK VINA RESULT:      -6.2      2.948      5.291
REMARK  Name = 
REMARK  8 active torsions:
REMARK  status: ('A' for Active; 'I' for Inactive)
REMARK    1  A    between atoms: C_1  and  O_2
REMARK    2  A    between atoms: O_2  and  C_3
REMARK    3  A    between atoms: C_8  and  C_9
REMARK    4  A    between atoms: N_11  and  C_12
REMARK    5  A    between atoms: C_14  and  C_15
REMARK    6  A    between atoms: C_19  and  N_20
REMARK    7  A    between atoms: N_23  and  C_24
REMARK    8  A    between atoms: C_24  and  C_25
REMARK                            x       y       z     vdW  Elec       q    Type
REMARK                         _______ _______ _______ _____ _____    ______ ____
ROOT
ATOM      1  C   UNL     1      -0.774  12.973  22.324  0.00  0.00    +0.000 A 
ATOM      2  C   UNL     1      -1.440  14.079  22.880  0.00  0.00    +0.000 A 
ATOM      3  C   UNL     1      -2.605  13.895  23.618  0.00  0.00    +0.000 A 
ATOM      4  C   UNL     1      -3.089  12.604  23.817  0.00  0.00    +0.000 A 
ATOM      5  C   UNL     1      -2.413  11.505  23.270  0.00  0.00    +0.000 A 
ATOM      6  C   UNL     1      -1.244  11.648  22.502  0.00  0.00    +0.000 A 
ENDROOT
BRANCH   6   7
ATOM      7  N   UNL     1      -0.577  10.518  22.037  0.00  0.00    +0.000 N 
ATOM      8  C   UNL     1      -0.602  10.101  20.622  0.00  0.00    +0.000 C 
ATOM      9  C   UNL     1       0.793   9.683  20.117  0.00  0.00    +0.000 C 
ATOM     10  N   UNL     1       1.514   8.705  20.965  0.00  0.00    +0.000 NA
ATOM     11  C   UNL     1       1.540   9.250  22.346  0.00  0.00    +0.000 C 
ATOM     12  C   UNL     1       0.157   9.620  22.943  0.00  0.00    +0.000 C 
BRANCH  10  13
ATOM     13  C   UNL     1       0.883   7.366  20.941  0.00  0.00    +0.000 C 
BRANCH  13  14
ATOM     14  C   UNL     1       1.779   6.257  20.415  0.00  0.00    +0.000 A 
ATOM     15  C   UNL     1       1.532   4.924  20.753  0.00  0.00    +0.000 A 
ATOM     16  C   UNL     1       2.411   3.939  20.305  0.00  0.00    +0.000 A 
ATOM     17  C   UNL     1       3.496   4.313  19.529  0.00  0.00    +0.000 A 
ATOM     18  F   UNL     1       4.365   3.393  19.093  0.00  0.00    +0.000 F 
ATOM     19  C   UNL     1       3.668   5.650  19.219  0.00  0.00    +0.000 A 
ATOM     20  N   UNL     1       2.837   6.631  19.646  0.00  0.00    +0.000 NA
ENDBRANCH  13  14
ENDBRANCH  10  13
ENDBRANCH   6   7
BRANCH   1  23
ATOM     21  C   UNL     1       0.151  13.557  20.121  0.00  0.00    +0.000 C 
ATOM     22  O   UNL     1      -0.915  13.461  19.517  0.00  0.00    +0.000 OA
ATOM     23  N   UNL     1       0.316  13.219  21.456  0.00  0.00    +0.000 N 
ATOM     24  H   UNL     1       1.150  13.576  21.914  0.00  0.00    +0.000 HD
BRANCH  21  30
ATOM     25  C   UNL     1       1.468  15.542  19.146  0.00  0.00    +0.000 A 
ATOM     26  N   UNL     1       2.525  16.066  18.473  0.00  0.00    +0.000 NA
ATOM     27  C   UNL     1       3.480  15.210  18.053  0.00  0.00    +0.000 A 
ATOM     28  C   UNL     1       3.431  13.847  18.268  0.00  0.00    +0.000 A 
ATOM     29  C   UNL     1       2.340  13.330  18.962  0.00  0.00    +0.000 A 
ATOM     30  C   UNL     1       1.323  14.181  19.423  0.00  0.00    +0.000 A 
BRANCH  25  32
ATOM     31  C   UNL     1       0.969  17.689  19.966  0.00  0.00    +0.000 C 
ATOM     32  O   UNL     1       0.478  16.414  19.555  0.00  0.00    +0.000 OA
ENDBRANCH  25  32
ENDBRANCH  21  30
ENDBRANCH   1  23
BRANCH   3  33
ATOM     33  C   UNL     1      -3.323  15.024  24.141  0.00  0.00    +0.000 C 
ATOM     34  N   UNL     1      -3.901  15.945  24.543  0.00  0.00    +0.000 NA
ENDBRANCH   3  33
TORSDOF 7
ENDMDL
MODEL 6
REMARK VINA RESULT:      -6.2      3.514      4.395
REMARK  Name = 
REMARK  8 active torsions:
REMARK  status: ('A' for Active; 'I' for Inactive)
REMARK    1  A    between atoms: C_1  and  O_2
REMARK    2  A    between atoms: O_2  and  C_3
REMARK    3  A    between atoms: C_8  and  C_9
REMARK    4  A    between atoms: N_11  and  C_12
REMARK    5  A    between atoms: C_14  and  C_15
REMARK    6  A    between atoms: C_19  and  N_20
REMARK    7  A    between atoms: N_23  and  C_24
REMARK    8  A    between atoms: C_24  and  C_25
REMARK                            x       y       z     vdW  Elec       q    Type
REMARK                         _______ _______ _______ _____ _____    ______ ____
ROOT
ATOM      1  C   UNL     1      -3.229  14.113  22.367  0.00  0.00    +0.000 A 
ATOM      2  C   UNL     1      -3.879  15.159  23.046  0.00  0.00    +0.000 A 
ATOM      3  C   UNL     1      -3.358  15.648  24.240  0.00  0.00    +0.000 A 
ATOM      4  C   UNL     1      -2.176  15.106  24.740  0.00  0.00    +0.000 A 
ATOM      5  C   UNL     1      -1.527  14.072  24.052  0.00  0.00    +0.000 A 
ATOM      6  C   UNL     1      -2.030  13.535  22.853  0.00  0.00    +0.000 A 
ENDROOT
BRANCH   6   7
ATOM      7  N   UNL     1      -1.311  12.552  22.178  0.00  0.00    +0.000 N 
ATOM      8  C   UNL     1      -0.446  12.848  21.020  0.00  0.00    +0.000 C 
ATOM      9  C   UNL     1       0.906  12.114  21.105  0.00  0.00    +0.000 C 
ATOM     10  N   UNL     1       0.828  10.659  21.374  0.00  0.00    +0.000 NA
ATOM     11  C   UNL     1      -0.004  10.477  22.590  0.00  0.00    +0.000 C 
ATOM     12  C   UNL     1      -1.411  11.129  22.540  0.00  0.00    +0.000 C 
BRANCH  10  13
ATOM     13  C   UNL     1       0.261   9.905  20.233  0.00  0.00    +0.000 C 
BRANCH  13  14
ATOM     14  C   UNL     1       1.243   8.969  19.547  0.00  0.00    +0.000 A 
ATOM     15  C   UNL     1       1.683   9.230  18.246  0.00  0.00    +0.000 A 
ATOM     16  C   UNL     1       2.533   8.318  17.625  0.00  0.00    +0.000 A 
ATOM     17  C   UNL     1       2.925   7.186  18.322  0.00  0.00    +0.000 A 
ATOM     18  F   UNL     1       3.732   6.285  17.748  0.00  0.00    +0.000 F 
ATOM     19  C   UNL     1       2.464   7.001  19.612  0.00  0.00    +0.000 A 
ATOM     20  N   UNL     1       1.630   7.865  20.241  0.00  0.00    +0.000 NA
ENDBRANCH  13  14
ENDBRANCH  10  13
ENDBRANCH   6   7
BRANCH   1  23
ATOM     21  C   UNL     1      -5.011  12.756  21.350  0.00  0.00    +0.000 C 
ATOM     22  O   UNL     1      -5.429  12.296  22.409  0.00  0.00    +0.000 OA
ATOM     23  N   UNL     1      -3.875  13.545  21.244  0.00  0.00    +0.000 N 
ATOM     24  H   UNL     1      -3.770  14.075  20.382  0.00  0.00    +0.000 HD
BRANCH  21  30
ATOM     25  C   UNL     1      -6.609  11.437  19.823  0.00  0.00    +0.000 A 
ATOM     26  N   UNL     1      -7.300  11.272  18.664  0.00  0.00    +0.000 NA
ATOM     27  C   UNL     1      -7.210  12.254  17.743  0.00  0.00    +0.000 A 
ATOM     28  C   UNL     1      -6.457  13.398  17.918  0.00  0.00    +0.000 A 
ATOM     29  C   UNL     1      -5.759  13.550  19.114  0.00  0.00    +0.000 A 
ATOM     30  C   UNL     1      -5.824  12.557  20.105  0.00  0.00    +0.000 A 
BRANCH  25  32
ATOM     31  C   UNL     1      -7.554   9.358  20.383  0.00  0.00    +0.000 C 
ATOM     32  O   UNL     1      -6.680  10.422  20.756  0.00  0.00    +0.000 OA
ENDBRANCH  25  32
ENDBRANCH  21  30
ENDBRANCH   1  23
BRANCH   3  33
ATOM     33  C   UNL     1      -4.045  16.677  24.968  0.00  0.00    +0.000 C 
ATOM     34  N   UNL     1      -4.620  17.496  25.554  0.00  0.00    +0.000 NA
ENDBRANCH   3  33
TORSDOF 7
ENDMDL
MODEL 7
REMARK VINA RESULT:      -6.2      1.029      1.757
REMARK  Name = 
REMARK  8 active torsions:
REMARK  status: ('A' for Active; 'I' for Inactive)
REMARK    1  A    between atoms: C_1  and  O_2
REMARK    2  A    between atoms: O_2  and  C_3
REMARK    3  A    between atoms: C_8  and  C_9
REMARK    4  A    between atoms: N_11  and  C_12
REMARK    5  A    between atoms: C_14  and  C_15
REMARK    6  A    between atoms: C_19  and  N_20
REMARK    7  A    between atoms: N_23  and  C_24
REMARK    8  A    between atoms: C_24  and  C_25
REMARK                            x       y       z     vdW  Elec       q    Type
REMARK                         _______ _______ _______ _____ _____    ______ ____
ROOT
ATOM      1  C   UNL     1      -0.087  13.743  18.871  0.00  0.00    +0.000 A 
ATOM      2  C   UNL     1      -0.176  15.136  18.705  0.00  0.00    +0.000 A 
ATOM      3  C   UNL     1       0.899  15.951  19.049  0.00  0.00    +0.000 A 
ATOM      4  C   UNL     1       2.067  15.369  19.535  0.00  0.00    +0.000 A 
ATOM      5  C   UNL     1       2.153  13.978  19.685  0.00  0.00    +0.000 A 
ATOM      6  C   UNL     1       1.084  13.120  19.370  0.00  0.00    +0.000 A 
ENDROOT
BRANCH   6   7
ATOM      7  N   UNL     1       1.246  11.742  19.478  0.00  0.00    +0.000 N 
ATOM      8  C   UNL     1       0.981  11.001  20.726  0.00  0.00    +0.000 C 
ATOM      9  C   UNL     1       0.193   9.701  20.472  0.00  0.00    +0.000 C 
ATOM     10  N   UNL     1       0.739   8.819  19.415  0.00  0.00    +0.000 NA
ATOM     11  C   UNL     1       0.904   9.641  18.190  0.00  0.00    +0.000 C 
ATOM     12  C   UNL     1       1.752  10.928  18.360  0.00  0.00    +0.000 C 
BRANCH  10  13
ATOM     13  C   UNL     1       2.025   8.200  19.808  0.00  0.00    +0.000 C 
BRANCH  13  14
ATOM     14  C   UNL     1       2.105   6.702  19.560  0.00  0.00    +0.000 A 
ATOM     15  C   UNL     1       2.453   6.208  18.300  0.00  0.00    +0.000 A 
ATOM     16  C   UNL     1       2.454   4.831  18.090  0.00  0.00    +0.000 A 
ATOM     17  C   UNL     1       2.122   3.993  19.143  0.00  0.00    +0.000 A 
ATOM     18  F   UNL     1       2.103   2.666  18.971  0.00  0.00    +0.000 F 
ATOM     19  C   UNL     1       1.805   4.551  20.368  0.00  0.00    +0.000 A 
ATOM     20  N   UNL     1       1.786   5.886  20.601  0.00  0.00    +0.000 NA
ENDBRANCH  13  14
ENDBRANCH  10  13
ENDBRANCH   6   7
BRANCH   1  23
ATOM     21  C   UNL     1      -2.163  12.688  19.664  0.00  0.00    +0.000 C 
ATOM     22  O   UNL     1      -1.944  12.880  20.857  0.00  0.00    +0.000 OA
ATOM     23  N   UNL     1      -1.253  12.971  18.656  0.00  0.00    +0.000 N 
ATOM     24  H   UNL     1      -1.624  13.019  17.710  0.00  0.00    +0.000 HD
BRANCH  21  30
ATOM     25  C   UNL     1      -4.724  12.567  19.878  0.00  0.00    +0.000 A 
ATOM     26  N   UNL     1      -5.940  12.096  19.495  0.00  0.00    +0.000 NA
ATOM     27  C   UNL     1      -5.976  11.252  18.443  0.00  0.00    +0.000 A 
ATOM     28  C   UNL     1      -4.853  10.847  17.751  0.00  0.00    +0.000 A 
ATOM     29  C   UNL     1      -3.615  11.343  18.157  0.00  0.00    +0.000 A 
ATOM     30  C   UNL     1      -3.527  12.228  19.244  0.00  0.00    +0.000 A 
BRANCH  25  32
ATOM     31  C   UNL     1      -5.297  12.869  22.139  0.00  0.00    +0.000 C 
ATOM     32  O   UNL     1      -4.684  13.411  20.970  0.00  0.00    +0.000 OA
ENDBRANCH  25  32
ENDBRANCH  21  30
ENDBRANCH   1  23
BRANCH   3  33
ATOM     33  C   UNL     1       0.796  17.378  18.936  0.00  0.00    +0.000 C 
ATOM     34  N   UNL     1       0.705  18.529  18.823  0.00  0.00    +0.000 NA
ENDBRANCH   3  33
TORSDOF 7
ENDMDL
MODEL 8
REMARK VINA RESULT:      -6.2      4.500      6.759
REMARK  Name = 
REMARK  8 active torsions:
REMARK  status: ('A' for Active; 'I' for Inactive)
REMARK    1  A    between atoms: C_1  and  O_2
REMARK    2  A    between atoms: O_2  and  C_3
REMARK    3  A    between atoms: C_8  and  C_9
REMARK    4  A    between atoms: N_11  and  C_12
REMARK    5  A    between atoms: C_14  and  C_15
REMARK    6  A    between atoms: C_19  and  N_20
REMARK    7  A    between atoms: N_23  and  C_24
REMARK    8  A    between atoms: C_24  and  C_25
REMARK                            x       y       z     vdW  Elec       q    Type
REMARK                         _______ _______ _______ _____ _____    ______ ____
ROOT
ATOM      1  C   UNL     1      -2.479  13.347  21.227  0.00  0.00    +0.000 A 
ATOM      2  C   UNL     1      -3.449  12.867  22.123  0.00  0.00    +0.000 A 
ATOM      3  C   UNL     1      -3.275  13.028  23.495  0.00  0.00    +0.000 A 
ATOM      4  C   UNL     1      -2.142  13.689  23.965  0.00  0.00    +0.000 A 
ATOM      5  C   UNL     1      -1.185  14.176  23.064  0.00  0.00    +0.000 A 
ATOM      6  C   UNL     1      -1.312  14.017  21.673  0.00  0.00    +0.000 A 
ENDROOT
BRANCH   6   7
ATOM      7  N   UNL     1      -0.364  14.576  20.821  0.00  0.00    +0.000 N 
ATOM      8  C   UNL     1       0.957  13.964  20.582  0.00  0.00    +0.000 C 
ATOM      9  C   UNL     1       1.338  13.971  19.089  0.00  0.00    +0.000 C 
ATOM     10  N   UNL     1       1.206  15.277  18.402  0.00  0.00    +0.000 NA
ATOM     11  C   UNL     1      -0.172  15.771  18.648  0.00  0.00    +0.000 C 
ATOM     12  C   UNL     1      -0.593  15.860  20.138  0.00  0.00    +0.000 C 
BRANCH  10  13
ATOM     13  C   UNL     1       2.208  16.262  18.869  0.00  0.00    +0.000 C 
BRANCH  13  14
ATOM     14  C   UNL     1       3.634  15.737  18.912  0.00  0.00    +0.000 A 
ATOM     15  C   UNL     1       4.356  15.741  20.108  0.00  0.00    +0.000 A 
ATOM     16  C   UNL     1       5.682  15.312  20.098  0.00  0.00    +0.000 A 
ATOM     17  C   UNL     1       6.238  14.885  18.903  0.00  0.00    +0.000 A 
ATOM     18  F   UNL     1       7.513  14.478  18.858  0.00  0.00    +0.000 F 
ATOM     19  C   UNL     1       5.459  14.893  17.761  0.00  0.00    +0.000 A 
ATOM     20  N   UNL     1       4.170  15.311  17.736  0.00  0.00    +0.000 NA
ENDBRANCH  13  14
ENDBRANCH  10  13
ENDBRANCH   6   7
BRANCH   1  23
ATOM     21  C   UNL     1      -2.203  11.816  19.321  0.00  0.00    +0.000 C 
ATOM     22  O   UNL     1      -1.485  11.016  19.916  0.00  0.00    +0.000 OA
ATOM     23  N   UNL     1      -2.621  13.026  19.857  0.00  0.00    +0.000 N 
ATOM     24  H   UNL     1      -3.405  13.479  19.394  0.00  0.00    +0.000 HD
BRANCH  21  30
ATOM     25  C   UNL     1      -4.080  11.630  17.571  0.00  0.00    +0.000 A 
ATOM     26  N   UNL     1      -4.563  11.228  16.366  0.00  0.00    +0.000 NA
ATOM     27  C   UNL     1      -3.707  10.598  15.534  0.00  0.00    +0.000 A 
ATOM     28  C   UNL     1      -2.387  10.343  15.846  0.00  0.00    +0.000 A 
ATOM     29  C   UNL     1      -1.911  10.767  17.085  0.00  0.00    +0.000 A 
ATOM     30  C   UNL     1      -2.762  11.430  17.984  0.00  0.00    +0.000 A 
BRANCH  25  32
ATOM     31  C   UNL     1      -6.062  11.433  18.822  0.00  0.00    +0.000 C 
ATOM     32  O   UNL     1      -4.961  12.253  18.433  0.00  0.00    +0.000 OA
ENDBRANCH  25  32
ENDBRANCH  21  30
ENDBRANCH   1  23
BRANCH   3  33
ATOM     33  C   UNL     1      -4.233  12.491  24.419  0.00  0.00    +0.000 C 
ATOM     34  N   UNL     1      -5.024  12.072  25.157  0.00  0.00    +0.000 NA
ENDBRANCH   3  33
TORSDOF 7
ENDMDL
MODEL 9
REMARK VINA RESULT:      -6.1      3.082      3.789
REMARK  Name = 
REMARK  8 active torsions:
REMARK  status: ('A' for Active; 'I' for Inactive)
REMARK    1  A    between atoms: C_1  and  O_2
REMARK    2  A    between atoms: O_2  and  C_3
REMARK    3  A    between atoms: C_8  and  C_9
REMARK    4  A    between atoms: N_11  and  C_12
REMARK    5  A    between atoms: C_14  and  C_15
REMARK    6  A    between atoms: C_19  and  N_20
REMARK    7  A    between atoms: N_23  and  C_24
REMARK    8  A    between atoms: C_24  and  C_25
REMARK                            x       y       z     vdW  Elec       q    Type
REMARK                         _______ _______ _______ _____ _____    ______ ____
ROOT
ATOM      1  C   UNL     1      -2.856  14.361  21.854  0.00  0.00    +0.000 A 
ATOM      2  C   UNL     1      -3.510  15.407  22.529  0.00  0.00    +0.000 A 
ATOM      3  C   UNL     1      -2.996  15.896  23.726  0.00  0.00    +0.000 A 
ATOM      4  C   UNL     1      -1.818  15.353  24.234  0.00  0.00    +0.000 A 
ATOM      5  C   UNL     1      -1.165  14.319  23.550  0.00  0.00    +0.000 A 
ATOM      6  C   UNL     1      -1.661  13.782  22.348  0.00  0.00    +0.000 A 
ENDROOT
BRANCH   6   7
ATOM      7  N   UNL     1      -0.937  12.800  21.678  0.00  0.00    +0.000 N 
ATOM      8  C   UNL     1       0.063  13.112  20.639  0.00  0.00    +0.000 C 
ATOM      9  C   UNL     1       1.349  12.280  20.805  0.00  0.00    +0.000 C 
ATOM     10  N   UNL     1       1.151  10.819  20.955  0.00  0.00    +0.000 NA
ATOM     11  C   UNL     1       0.184  10.614  22.063  0.00  0.00    +0.000 C 
ATOM     12  C   UNL     1      -1.164  11.366  21.920  0.00  0.00    +0.000 C 
BRANCH  10  13
ATOM     13  C   UNL     1       0.663  10.187  19.709  0.00  0.00    +0.000 C 
BRANCH  13  14
ATOM     14  C   UNL     1       1.468   8.979  19.258  0.00  0.00    +0.000 A 
ATOM     15  C   UNL     1       1.638   7.881  20.107  0.00  0.00    +0.000 A 
ATOM     16  C   UNL     1       2.435   6.819  19.686  0.00  0.00    +0.000 A 
ATOM     17  C   UNL     1       3.024   6.879  18.433  0.00  0.00    +0.000 A 
ATOM     18  F   UNL     1       3.805   5.880  18.004  0.00  0.00    +0.000 F 
ATOM     19  C   UNL     1       2.798   7.989  17.640  0.00  0.00    +0.000 A 
ATOM     20  N   UNL     1       2.036   9.042  18.024  0.00  0.00    +0.000 NA
ENDBRANCH  13  14
ENDBRANCH  10  13
ENDBRANCH   6   7
BRANCH   1  23
ATOM     21  C   UNL     1      -4.534  12.881  20.832  0.00  0.00    +0.000 C 
ATOM     22  O   UNL     1      -4.847  12.318  21.878  0.00  0.00    +0.000 OA
ATOM     23  N   UNL     1      -3.494  13.794  20.727  0.00  0.00    +0.000 N 
ATOM     24  H   UNL     1      -3.490  14.381  19.897  0.00  0.00    +0.000 HD
BRANCH  21  30
ATOM     25  C   UNL     1      -4.942  12.131  18.404  0.00  0.00    +0.000 A 
ATOM     26  N   UNL     1      -5.732  11.992  17.307  0.00  0.00    +0.000 NA
ATOM     27  C   UNL     1      -7.012  12.406  17.408  0.00  0.00    +0.000 A 
ATOM     28  C   UNL     1      -7.548  12.959  18.554  0.00  0.00    +0.000 A 
ATOM     29  C   UNL     1      -6.723  13.089  19.669  0.00  0.00    +0.000 A 
ATOM     30  C   UNL     1      -5.384  12.669  19.615  0.00  0.00    +0.000 A 
BRANCH  25  32
ATOM     31  C   UNL     1      -3.314  11.110  17.048  0.00  0.00    +0.000 C 
ATOM     32  O   UNL     1      -3.625  11.730  18.295  0.00  0.00    +0.000 OA
ENDBRANCH  25  32
ENDBRANCH  21  30
ENDBRANCH   1  23
BRANCH   3  33
ATOM     33  C   UNL     1      -3.688  16.925  24.450  0.00  0.00    +0.000 C 
ATOM     34  N   UNL     1      -4.251  17.741  25.052  0.00  0.00    +0.000 NA
ENDBRANCH   3  33
TORSDOF 7
ENDMDL
