MODEL 1
REMARK VINA RESULT:      -6.2      0.000      0.000
REMARK  Name = 
REMARK  6 active torsions:
REMARK  status: ('A' for Active; 'I' for Inactive)
REMARK    1  A    between atoms: C_1  and  C_2
REMARK    2  A    between atoms: C_2  and  C_3
REMARK    3  A    between atoms: C_3  and  C_4
REMARK    4  A    between atoms: C_4  and  O_5
REMARK    5  A    between atoms: O_5  and  C_6
REMARK    6  A    between atoms: C_9  and  C_10
REMARK                            x       y       z     vdW  Elec       q    Type
REMARK                         _______ _______ _______ _____ _____    ______ ____
ROOT
ATOM      1  C   UNL     1       2.342   3.900  17.661  0.00  0.00    +0.000 A 
ATOM      2  C   UNL     1       3.574   3.262  17.510  0.00  0.00    +0.000 A 
ATOM      3  C   UNL     1       4.763   3.984  17.593  0.00  0.00    +0.000 A 
ATOM      4  C   UNL     1       4.750   5.360  17.841  0.00  0.00    +0.000 A 
ATOM      5  C   UNL     1       3.514   6.004  17.990  0.00  0.00    +0.000 A 
ATOM      6  C   UNL     1       2.318   5.277  17.897  0.00  0.00    +0.000 A 
ENDROOT
BRANCH   4   7
ATOM      7  C   UNL     1       6.029   6.061  17.920  0.00  0.00    +0.000 A 
ATOM      8  N   UNL     1       6.990   5.825  18.796  0.00  0.00    +0.000 NA
ATOM      9  C   UNL     1       7.980   6.730  18.538  0.00  0.00    +0.000 A 
ATOM     10  C   UNL     1       7.619   7.555  17.505  0.00  0.00    +0.000 A 
ATOM     11  N   UNL     1       6.380   7.125  17.122  0.00  0.00    +0.000 N 
ATOM     12  H   UNL     1       5.794   7.536  16.410  0.00  0.00    +0.000 HD
ENDBRANCH   4   7
BRANCH   1  13
ATOM     13  O   UNL     1       1.118   3.280  17.589  0.00  0.00    +0.000 OA
BRANCH  13  14
ATOM     14  C   UNL     1       0.869   2.342  18.638  0.00  0.00    +0.000 C 
BRANCH  14  15
ATOM     15  C   UNL     1       0.592   3.059  19.954  0.00  0.00    +0.000 C 
BRANCH  15  17
ATOM     16  C   UNL     1       2.410   3.866  21.513  0.00  0.00    +0.000 C 
ATOM     17  C   UNL     1       1.652   2.664  20.984  0.00  0.00    +0.000 C 
ENDBRANCH  15  17
ENDBRANCH  14  15
ENDBRANCH  13  14
ENDBRANCH   1  13
TORSDOF 5
ENDMDL
MODEL 2
REMARK VINA RESULT:      -6.0      0.432      1.267
REMARK  Name = 
REMARK  6 active torsions:
REMARK  status: ('A' for Active; 'I' for Inactive)
REMARK    1  A    between atoms: C_1  and  C_2
REMARK    2  A    between atoms: C_2  and  C_3
REMARK    3  A    between atoms: C_3  and  C_4
REMARK    4  A    between atoms: C_4  and  O_5
REMARK    5  A    between atoms: O_5  and  C_6
REMARK    6  A    between atoms: C_9  and  C_10
REMARK                            x       y       z     vdW  Elec       q    Type
REMARK                         _______ _______ _______ _____ _____    ______ ____
ROOT
ATOM      1  C   UNL     1       2.313   4.152  17.670  0.00  0.00    +0.000 A 
ATOM      2  C   UNL     1       2.417   5.455  18.158  0.00  0.00    +0.000 A 
ATOM      3  C   UNL     1       3.653   6.097  18.213  0.00  0.00    +0.000 A 
ATOM      4  C   UNL     1       4.814   5.455  17.772  0.00  0.00    +0.000 A 
ATOM      5  C   UNL     1       4.713   4.144  17.284  0.00  0.00    +0.000 A 
ATOM      6  C   UNL     1       3.470   3.497  17.237  0.00  0.00    +0.000 A 
ENDROOT
BRANCH   4   7
ATOM      7  C   UNL     1       6.080   6.180  17.853  0.00  0.00    +0.000 A 
ATOM      8  N   UNL     1       7.050   5.951  18.720  0.00  0.00    +0.000 NA
ATOM      9  C   UNL     1       8.021   6.879  18.468  0.00  0.00    +0.000 A 
ATOM     10  C   UNL     1       7.638   7.709  17.448  0.00  0.00    +0.000 A 
ATOM     11  N   UNL     1       6.405   7.259  17.066  0.00  0.00    +0.000 N 
ATOM     12  H   UNL     1       5.807   7.669  16.363  0.00  0.00    +0.000 HD
ENDBRANCH   4   7
BRANCH   1  13
ATOM     13  O   UNL     1       1.146   3.433  17.581  0.00  0.00    +0.000 OA
BRANCH  13  14
ATOM     14  C   UNL     1       0.610   3.019  18.840  0.00  0.00    +0.000 C 
BRANCH  14  15
ATOM     15  C   UNL     1       1.654   2.268  19.655  0.00  0.00    +0.000 C 
BRANCH  15  17
ATOM     16  C   UNL     1       2.228   3.906  21.492  0.00  0.00    +0.000 C 
ATOM     17  C   UNL     1       1.501   2.624  21.134  0.00  0.00    +0.000 C 
ENDBRANCH  15  17
ENDBRANCH  14  15
ENDBRANCH  13  14
ENDBRANCH   1  13
TORSDOF 5
ENDMDL
MODEL 3
REMARK VINA RESULT:      -5.9      3.764      6.369
REMARK  Name = 
REMARK  6 active torsions:
REMARK  status: ('A' for Active; 'I' for Inactive)
REMARK    1  A    between atoms: C_1  and  C_2
REMARK    2  A    between atoms: C_2  and  C_3
REMARK    3  A    between atoms: C_3  and  C_4
REMARK    4  A    between atoms: C_4  and  O_5
REMARK    5  A    between atoms: O_5  and  C_6
REMARK    6  A    between atoms: C_9  and  C_10
REMARK                            x       y       z     vdW  Elec       q    Type
REMARK                         _______ _______ _______ _____ _____    ______ ____
ROOT
ATOM      1  C   UNL     1       5.472   5.650  15.774  0.00  0.00    +0.000 A 
ATOM      2  C   UNL     1       4.983   6.671  16.590  0.00  0.00    +0.000 A 
ATOM      3  C   UNL     1       4.092   6.388  17.625  0.00  0.00    +0.000 A 
ATOM      4  C   UNL     1       3.678   5.077  17.875  0.00  0.00    +0.000 A 
ATOM      5  C   UNL     1       4.165   4.050  17.055  0.00  0.00    +0.000 A 
ATOM      6  C   UNL     1       5.054   4.337  16.009  0.00  0.00    +0.000 A 
ENDROOT
BRANCH   4   7
ATOM      7  C   UNL     1       2.745   4.844  18.975  0.00  0.00    +0.000 A 
ATOM      8  N   UNL     1       1.746   3.979  18.974  0.00  0.00    +0.000 NA
ATOM      9  C   UNL     1       1.113   4.119  20.177  0.00  0.00    +0.000 A 
ATOM     10  C   UNL     1       1.711   5.100  20.923  0.00  0.00    +0.000 A 
ATOM     11  N   UNL     1       2.743   5.554  20.152  0.00  0.00    +0.000 N 
ATOM     12  H   UNL     1       3.372   6.312  20.376  0.00  0.00    +0.000 HD
ENDBRANCH   4   7
BRANCH   1  13
ATOM     13  O   UNL     1       6.345   5.826  14.728  0.00  0.00    +0.000 OA
BRANCH  13  14
ATOM     14  C   UNL     1       6.827   4.610  14.151  0.00  0.00    +0.000 C 
BRANCH  14  15
ATOM     15  C   UNL     1       7.383   4.855  12.753  0.00  0.00    +0.000 C 
BRANCH  15  17
ATOM     16  C   UNL     1       5.582   3.185  12.155  0.00  0.00    +0.000 C 
ATOM     17  C   UNL     1       6.968   3.708  11.831  0.00  0.00    +0.000 C 
ENDBRANCH  15  17
ENDBRANCH  14  15
ENDBRANCH  13  14
ENDBRANCH   1  13
TORSDOF 5
ENDMDL
MODEL 4
REMARK VINA RESULT:      -5.9      3.015      3.760
REMARK  Name = 
REMARK  6 active torsions:
REMARK  status: ('A' for Active; 'I' for Inactive)
REMARK    1  A    between atoms: C_1  and  C_2
REMARK    2  A    between atoms: C_2  and  C_3
REMARK    3  A    between atoms: C_3  and  C_4
REMARK    4  A    between atoms: C_4  and  O_5
REMARK    5  A    between atoms: O_5  and  C_6
REMARK    6  A    between atoms: C_9  and  C_10
REMARK                            x       y       z     vdW  Elec       q    Type
REMARK                         _______ _______ _______ _____ _____    ______ ____
ROOT
ATOM      1  C   UNL     1       4.171   5.338  17.991  0.00  0.00    +0.000 A 
ATOM      2  C   UNL     1       4.547   6.397  17.164  0.00  0.00    +0.000 A 
ATOM      3  C   UNL     1       5.270   6.162  15.995  0.00  0.00    +0.000 A 
ATOM      4  C   UNL     1       5.625   4.863  15.620  0.00  0.00    +0.000 A 
ATOM      5  C   UNL     1       5.250   3.798  16.450  0.00  0.00    +0.000 A 
ATOM      6  C   UNL     1       4.531   4.036  17.631  0.00  0.00    +0.000 A 
ENDROOT
BRANCH   4   7
ATOM      7  C   UNL     1       6.380   4.681  14.383  0.00  0.00    +0.000 A 
ATOM      8  N   UNL     1       7.406   5.414  13.987  0.00  0.00    +0.000 NA
ATOM      9  C   UNL     1       7.780   4.928  12.765  0.00  0.00    +0.000 A 
ATOM     10  C   UNL     1       6.959   3.897  12.387  0.00  0.00    +0.000 A 
ATOM     11  N   UNL     1       6.074   3.750  13.418  0.00  0.00    +0.000 N 
ATOM     12  H   UNL     1       5.298   3.106  13.456  0.00  0.00    +0.000 HD
ENDBRANCH   4   7
BRANCH   1  13
ATOM     13  O   UNL     1       3.466   5.464  19.163  0.00  0.00    +0.000 OA
BRANCH  13  14
ATOM     14  C   UNL     1       3.287   4.241  19.880  0.00  0.00    +0.000 C 
BRANCH  14  15
ATOM     15  C   UNL     1       2.145   4.359  20.881  0.00  0.00    +0.000 C 
BRANCH  15  17
ATOM     16  C   UNL     1       1.060   2.781  19.231  0.00  0.00    +0.000 C 
ATOM     17  C   UNL     1       0.840   3.908  20.222  0.00  0.00    +0.000 C 
ENDBRANCH  15  17
ENDBRANCH  14  15
ENDBRANCH  13  14
ENDBRANCH   1  13
TORSDOF 5
ENDMDL
MODEL 5
REMARK VINA RESULT:      -5.9      3.075      3.661
REMARK  Name = 
REMARK  6 active torsions:
REMARK  status: ('A' for Active; 'I' for Inactive)
REMARK    1  A    between atoms: C_1  and  C_2
REMARK    2  A    between atoms: C_2  and  C_3
REMARK    3  A    between atoms: C_3  and  C_4
REMARK    4  A    between atoms: C_4  and  O_5
REMARK    5  A    between atoms: O_5  and  C_6
REMARK    6  A    between atoms: C_9  and  C_10
REMARK                            x       y       z     vdW  Elec       q    Type
REMARK                         _______ _______ _______ _____ _____    ______ ____
ROOT
ATOM      1  C   UNL     1       4.308   5.574  18.099  0.00  0.00    +0.000 A 
ATOM      2  C   UNL     1       4.600   4.263  17.718  0.00  0.00    +0.000 A 
ATOM      3  C   UNL     1       5.189   3.997  16.483  0.00  0.00    +0.000 A 
ATOM      4  C   UNL     1       5.510   5.036  15.604  0.00  0.00    +0.000 A 
ATOM      5  C   UNL     1       5.216   6.352  15.983  0.00  0.00    +0.000 A 
ATOM      6  C   UNL     1       4.615   6.617  17.223  0.00  0.00    +0.000 A 
ENDROOT
BRANCH   4   7
ATOM      7  C   UNL     1       6.128   4.694  14.325  0.00  0.00    +0.000 A 
ATOM      8  N   UNL     1       5.721   3.749  13.496  0.00  0.00    +0.000 NA
ATOM      9  C   UNL     1       6.603   3.744  12.452  0.00  0.00    +0.000 A 
ATOM     10  C   UNL     1       7.584   4.681  12.648  0.00  0.00    +0.000 A 
ATOM     11  N   UNL     1       7.275   5.276  13.839  0.00  0.00    +0.000 N 
ATOM     12  H   UNL     1       7.813   5.987  14.313  0.00  0.00    +0.000 HD
ENDBRANCH   4   7
BRANCH   1  13
ATOM     13  O   UNL     1       3.725   5.938  19.289  0.00  0.00    +0.000 OA
BRANCH  13  14
ATOM     14  C   UNL     1       2.344   5.585  19.402  0.00  0.00    +0.000 C 
BRANCH  14  15
ATOM     15  C   UNL     1       2.052   4.966  20.763  0.00  0.00    +0.000 C 
BRANCH  15  17
ATOM     16  C   UNL     1       1.485   2.648  21.596  0.00  0.00    +0.000 C 
ATOM     17  C   UNL     1       1.168   3.730  20.582  0.00  0.00    +0.000 C 
ENDBRANCH  15  17
ENDBRANCH  14  15
ENDBRANCH  13  14
ENDBRANCH   1  13
TORSDOF 5
ENDMDL
MODEL 6
REMARK VINA RESULT:      -5.9      3.703      6.217
REMARK  Name = 
REMARK  6 active torsions:
REMARK  status: ('A' for Active; 'I' for Inactive)
REMARK    1  A    between atoms: C_1  and  C_2
REMARK    2  A    between atoms: C_2  and  C_3
REMARK    3  A    between atoms: C_3  and  C_4
REMARK    4  A    between atoms: C_4  and  O_5
REMARK    5  A    between atoms: O_5  and  C_6
REMARK    6  A    between atoms: C_9  and  C_10
REMARK                            x       y       z     vdW  Elec       q    Type
REMARK                         _______ _______ _______ _____ _____    ______ ____
ROOT
ATOM      1  C   UNL     1       5.390   5.308  15.821  0.00  0.00    +0.000 A 
ATOM      2  C   UNL     1       5.075   3.972  16.071  0.00  0.00    +0.000 A 
ATOM      3  C   UNL     1       4.156   3.632  17.062  0.00  0.00    +0.000 A 
ATOM      4  C   UNL     1       3.521   4.621  17.820  0.00  0.00    +0.000 A 
ATOM      5  C   UNL     1       3.838   5.963  17.573  0.00  0.00    +0.000 A 
ATOM      6  C   UNL     1       4.770   6.303  16.581  0.00  0.00    +0.000 A 
ENDROOT
BRANCH   4   7
ATOM      7  C   UNL     1       2.565   4.202  18.842  0.00  0.00    +0.000 A 
ATOM      8  N   UNL     1       2.059   2.989  18.980  0.00  0.00    +0.000 NA
ATOM      9  C   UNL     1       1.184   3.052  20.028  0.00  0.00    +0.000 A 
ATOM     10  C   UNL     1       1.128   4.326  20.531  0.00  0.00    +0.000 A 
ATOM     11  N   UNL     1       2.005   5.047  19.772  0.00  0.00    +0.000 N 
ATOM     12  H   UNL     1       2.185   6.038  19.840  0.00  0.00    +0.000 HD
ENDBRANCH   4   7
BRANCH   1  13
ATOM     13  O   UNL     1       6.285   5.744  14.874  0.00  0.00    +0.000 OA
BRANCH  13  14
ATOM     14  C   UNL     1       7.081   4.709  14.293  0.00  0.00    +0.000 C 
BRANCH  14  15
ATOM     15  C   UNL     1       6.779   4.562  12.807  0.00  0.00    +0.000 C 
BRANCH  15  17
ATOM     16  C   UNL     1       4.728   3.428  11.860  0.00  0.00    +0.000 C 
ATOM     17  C   UNL     1       6.059   3.235  12.561  0.00  0.00    +0.000 C 
ENDBRANCH  15  17
ENDBRANCH  14  15
ENDBRANCH  13  14
ENDBRANCH   1  13
TORSDOF 5
ENDMDL
MODEL 7
REMARK VINA RESULT:      -5.9      3.025      3.669
REMARK  Name = 
REMARK  6 active torsions:
REMARK  status: ('A' for Active; 'I' for Inactive)
REMARK    1  A    between atoms: C_1  and  C_2
REMARK    2  A    between atoms: C_2  and  C_3
REMARK    3  A    between atoms: C_3  and  C_4
REMARK    4  A    between atoms: C_4  and  O_5
REMARK    5  A    between atoms: O_5  and  C_6
REMARK    6  A    between atoms: C_9  and  C_10
REMARK                            x       y       z     vdW  Elec       q    Type
REMARK                         _______ _______ _______ _____ _____    ______ ____
ROOT
ATOM      1  C   UNL     1       4.281   5.392  18.163  0.00  0.00    +0.000 A 
ATOM      2  C   UNL     1       4.582   4.094  17.748  0.00  0.00    +0.000 A 
ATOM      3  C   UNL     1       5.213   3.867  16.526  0.00  0.00    +0.000 A 
ATOM      4  C   UNL     1       5.567   4.933  15.693  0.00  0.00    +0.000 A 
ATOM      5  C   UNL     1       5.263   6.237  16.106  0.00  0.00    +0.000 A 
ATOM      6  C   UNL     1       4.621   6.463  17.333  0.00  0.00    +0.000 A 
ENDROOT
BRANCH   4   7
ATOM      7  C   UNL     1       6.228   4.631  14.426  0.00  0.00    +0.000 A 
ATOM      8  N   UNL     1       7.230   5.308  13.894  0.00  0.00    +0.000 NA
ATOM      9  C   UNL     1       7.508   4.711  12.697  0.00  0.00    +0.000 A 
ATOM     10  C   UNL     1       6.651   3.666  12.471  0.00  0.00    +0.000 A 
ATOM     11  N   UNL     1       5.842   3.625  13.572  0.00  0.00    +0.000 N 
ATOM     12  H   UNL     1       5.064   3.000  13.722  0.00  0.00    +0.000 HD
ENDBRANCH   4   7
BRANCH   1  13
ATOM     13  O   UNL     1       3.658   5.719  19.343  0.00  0.00    +0.000 OA
BRANCH  13  14
ATOM     14  C   UNL     1       2.254   5.447  19.364  0.00  0.00    +0.000 C 
BRANCH  14  15
ATOM     15  C   UNL     1       1.853   4.764  20.665  0.00  0.00    +0.000 C 
BRANCH  15  17
ATOM     16  C   UNL     1       1.083   3.158  18.872  0.00  0.00    +0.000 C 
ATOM     17  C   UNL     1       1.064   3.492  20.351  0.00  0.00    +0.000 C 
ENDBRANCH  15  17
ENDBRANCH  14  15
ENDBRANCH  13  14
ENDBRANCH   1  13
TORSDOF 5
ENDMDL
MODEL 8
REMARK VINA RESULT:      -5.9      3.638      6.130
REMARK  Name = 
REMARK  6 active torsions:
REMARK  status: ('A' for Active; 'I' for Inactive)
REMARK    1  A    between atoms: C_1  and  C_2
REMARK    2  A    between atoms: C_2  and  C_3
REMARK    3  A    between atoms: C_3  and  C_4
REMARK    4  A    between atoms: C_4  and  O_5
REMARK    5  A    between atoms: O_5  and  C_6
REMARK    6  A    between atoms: C_9  and  C_10
REMARK                            x       y       z     vdW  Elec       q    Type
REMARK                         _______ _______ _______ _____ _____    ______ ____
ROOT
ATOM      1  C   UNL     1       6.550   5.350  16.192  0.00  0.00    +0.000 A 
ATOM      2  C   UNL     1       5.404   6.134  16.048  0.00  0.00    +0.000 A 
ATOM      3  C   UNL     1       4.422   6.145  17.037  0.00  0.00    +0.000 A 
ATOM      4  C   UNL     1       4.566   5.380  18.199  0.00  0.00    +0.000 A 
ATOM      5  C   UNL     1       5.714   4.590  18.345  0.00  0.00    +0.000 A 
ATOM      6  C   UNL     1       6.698   4.574  17.345  0.00  0.00    +0.000 A 
ENDROOT
BRANCH   4   7
ATOM      7  C   UNL     1       3.504   5.435  19.200  0.00  0.00    +0.000 A 
ATOM      8  N   UNL     1       2.746   6.483  19.469  0.00  0.00    +0.000 NA
ATOM      9  C   UNL     1       1.920   6.111  20.492  0.00  0.00    +0.000 A 
ATOM     10  C   UNL     1       2.186   4.824  20.880  0.00  0.00    +0.000 A 
ATOM     11  N   UNL     1       3.193   4.405  20.057  0.00  0.00    +0.000 N 
ATOM     12  H   UNL     1       3.667   3.514  20.092  0.00  0.00    +0.000 HD
ENDBRANCH   4   7
BRANCH   1  13
ATOM     13  O   UNL     1       7.569   5.266  15.275  0.00  0.00    +0.000 OA
BRANCH  13  14
ATOM     14  C   UNL     1       7.134   5.119  13.921  0.00  0.00    +0.000 C 
BRANCH  14  15
ATOM     15  C   UNL     1       6.271   3.874  13.760  0.00  0.00    +0.000 C 
BRANCH  15  17
ATOM     16  C   UNL     1       4.886   3.184  11.761  0.00  0.00    +0.000 C 
ATOM     17  C   UNL     1       6.284   3.430  12.296  0.00  0.00    +0.000 C 
ENDBRANCH  15  17
ENDBRANCH  14  15
ENDBRANCH  13  14
ENDBRANCH   1  13
TORSDOF 5
ENDMDL
MODEL 9
REMARK VINA RESULT:      -5.8      2.561      3.021
REMARK  Name = 
REMARK  6 active torsions:
REMARK  status: ('A' for Active; 'I' for Inactive)
REMARK    1  A    between atoms: C_1  and  C_2
REMARK    2  A    between atoms: C_2  and  C_3
REMARK    3  A    between atoms: C_3  and  C_4
REMARK    4  A    between atoms: C_4  and  O_5
REMARK    5  A    between atoms: O_5  and  C_6
REMARK    6  A    between atoms: C_9  and  C_10
REMARK                            x       y       z     vdW  Elec       q    Type
REMARK                         _______ _______ _______ _____ _____    ______ ____
ROOT
ATOM      1  C   UNL     1       3.092   5.677  18.318  0.00  0.00    +0.000 A 
ATOM      2  C   UNL     1       3.263   4.394  17.795  0.00  0.00    +0.000 A 
ATOM      3  C   UNL     1       4.158   4.166  16.750  0.00  0.00    +0.000 A 
ATOM      4  C   UNL     1       4.911   5.213  16.210  0.00  0.00    +0.000 A 
ATOM      5  C   UNL     1       4.739   6.503  16.731  0.00  0.00    +0.000 A 
ATOM      6  C   UNL     1       3.832   6.732  17.777  0.00  0.00    +0.000 A 
ENDROOT
BRANCH   4   7
ATOM      7  C   UNL     1       5.833   4.911  15.118  0.00  0.00    +0.000 A 
ATOM      8  N   UNL     1       7.049   5.405  14.972  0.00  0.00    +0.000 NA
ATOM      9  C   UNL     1       7.537   4.893  13.803  0.00  0.00    +0.000 A 
ATOM     10  C   UNL     1       6.602   4.090  13.204  0.00  0.00    +0.000 A 
ATOM     11  N   UNL     1       5.525   4.110  14.044  0.00  0.00    +0.000 N 
ATOM     12  H   UNL     1       4.635   3.657  13.891  0.00  0.00    +0.000 HD
ENDBRANCH   4   7
BRANCH   1  13
ATOM     13  O   UNL     1       2.234   6.005  19.339  0.00  0.00    +0.000 OA
BRANCH  13  14
ATOM     14  C   UNL     1       2.241   5.086  20.434  0.00  0.00    +0.000 C 
BRANCH  14  15
ATOM     15  C   UNL     1       0.980   4.231  20.433  0.00  0.00    +0.000 C 
BRANCH  15  17
ATOM     16  C   UNL     1       2.736   2.653  21.337  0.00  0.00    +0.000 C 
ATOM     17  C   UNL     1       1.252   2.920  21.173  0.00  0.00    +0.000 C 
ENDBRANCH  15  17
ENDBRANCH  14  15
ENDBRANCH  13  14
ENDBRANCH   1  13
TORSDOF 5
ENDMDL
