MODEL 1
REMARK VINA RESULT:      -6.8      0.000      0.000
REMARK  Name = 
REMARK  4 active torsions:
REMARK  status: ('A' for Active; 'I' for Inactive)
REMARK    1  A    between atoms: C_1  and  N_2
REMARK    2  A    between atoms: C_6  and  C_8
REMARK    3  A    between atoms: C_11  and  C_12
REMARK    4  A    between atoms: C_12  and  N_13
REMARK                            x       y       z     vdW  Elec       q    Type
REMARK                         _______ _______ _______ _____ _____    ______ ____
ROOT
ATOM      1  C   UNL     1       2.247   6.433  19.754  0.00  0.00    +0.000 A 
ATOM      2  C   UNL     1       1.467   5.565  20.496  0.00  0.00    +0.000 A 
ATOM      3  C   UNL     1       2.198   4.359  20.623  0.00  0.00    +0.000 A 
ATOM      4  C   UNL     1       3.390   4.553  19.956  0.00  0.00    +0.000 A 
ATOM      5  O   UNL     1       3.442   5.823  19.464  0.00  0.00    +0.000 OA
ENDROOT
BRANCH   1  11
ATOM      6  C   UNL     1      -1.052  10.948  22.883  0.00  0.00    +0.000 C 
ATOM      7  N   UNL     1       0.111  10.458  22.147  0.00  0.00    +0.000 NA
ATOM      8  C   UNL     1      -0.079  10.604  20.687  0.00  0.00    +0.000 C 
ATOM      9  C   UNL     1       1.115  10.049  19.876  0.00  0.00    +0.000 C 
ATOM     10  N   UNL     1       1.459   8.686  20.286  0.00  0.00    +0.000 N 
ATOM     11  C   UNL     1       2.006   7.813  19.348  0.00  0.00    +0.000 C 
ATOM     12  O   UNL     1       2.265   8.187  18.204  0.00  0.00    +0.000 OA
ATOM     13  C   UNL     1       1.620   8.538  21.736  0.00  0.00    +0.000 C 
ATOM     14  C   UNL     1       0.374   9.043  22.475  0.00  0.00    +0.000 C 
ENDBRANCH   1  11
BRANCH   4  15
ATOM     15  C   UNL     1       4.565   3.686  19.689  0.00  0.00    +0.000 C 
BRANCH  15  16
ATOM     16  N   UNL     1       5.172   4.035  18.411  0.00  0.00    +0.000 N 
ATOM     17  C   UNL     1       4.596   3.923  17.174  0.00  0.00    +0.000 A 
ATOM     18  C   UNL     1       5.562   4.299  16.273  0.00  0.00    +0.000 A 
ATOM     19 CL   UNL     1       5.474   4.310  14.586  0.00  0.00    +0.000 Cl
ATOM     20  C   UNL     1       6.664   4.679  17.059  0.00  0.00    +0.000 A 
ATOM     21  N   UNL     1       6.425   4.545  18.370  0.00  0.00    +0.000 NA
ENDBRANCH  15  16
ENDBRANCH   4  15
TORSDOF 3
ENDMDL
MODEL 2
REMARK VINA RESULT:      -6.8      1.129      1.157
REMARK  Name = 
REMARK  4 active torsions:
REMARK  status: ('A' for Active; 'I' for Inactive)
REMARK    1  A    between atoms: C_1  and  N_2
REMARK    2  A    between atoms: C_6  and  C_8
REMARK    3  A    between atoms: C_11  and  C_12
REMARK    4  A    between atoms: C_12  and  N_13
REMARK                            x       y       z     vdW  Elec       q    Type
REMARK                         _______ _______ _______ _____ _____    ______ ____
ROOT
ATOM      1  C   UNL     1       2.325   6.900  18.452  0.00  0.00    +0.000 A 
ATOM      2  C   UNL     1       1.527   5.808  18.167  0.00  0.00    +0.000 A 
ATOM      3  C   UNL     1       2.304   4.651  18.420  0.00  0.00    +0.000 A 
ATOM      4  C   UNL     1       3.535   5.096  18.853  0.00  0.00    +0.000 A 
ATOM      5  O   UNL     1       3.539   6.457  18.915  0.00  0.00    +0.000 OA
ENDROOT
BRANCH   1  11
ATOM      6  C   UNL     1      -0.954  10.413  22.690  0.00  0.00    +0.000 C 
ATOM      7  N   UNL     1       0.189  10.156  21.818  0.00  0.00    +0.000 NA
ATOM      8  C   UNL     1      -0.066  10.641  20.443  0.00  0.00    +0.000 C 
ATOM      9  C   UNL     1       1.106  10.339  19.481  0.00  0.00    +0.000 C 
ATOM     10  N   UNL     1       1.502   8.930  19.539  0.00  0.00    +0.000 N 
ATOM     11  C   UNL     1       2.031   8.327  18.400  0.00  0.00    +0.000 C 
ATOM     12  O   UNL     1       2.232   8.974  17.371  0.00  0.00    +0.000 OA
ATOM     13  C   UNL     1       1.728   8.445  20.904  0.00  0.00    +0.000 C 
ATOM     14  C   UNL     1       0.502   8.713  21.786  0.00  0.00    +0.000 C 
ENDBRANCH   1  11
BRANCH   4  15
ATOM     15  C   UNL     1       4.791   4.407  19.245  0.00  0.00    +0.000 C 
BRANCH  15  16
ATOM     16  N   UNL     1       5.772   4.490  18.169  0.00  0.00    +0.000 N 
ATOM     17  C   UNL     1       5.509   4.543  16.826  0.00  0.00    +0.000 A 
ATOM     18  C   UNL     1       6.733   4.541  16.203  0.00  0.00    +0.000 A 
ATOM     19 CL   UNL     1       7.065   4.529  14.547  0.00  0.00    +0.000 Cl
ATOM     20  C   UNL     1       7.673   4.547  17.248  0.00  0.00    +0.000 A 
ATOM     21  N   UNL     1       7.093   4.541  18.455  0.00  0.00    +0.000 NA
ENDBRANCH  15  16
ENDBRANCH   4  15
TORSDOF 3
ENDMDL
MODEL 3
REMARK VINA RESULT:      -6.7      4.968      6.557
REMARK  Name = 
REMARK  4 active torsions:
REMARK  status: ('A' for Active; 'I' for Inactive)
REMARK    1  A    between atoms: C_1  and  N_2
REMARK    2  A    between atoms: C_6  and  C_8
REMARK    3  A    between atoms: C_11  and  C_12
REMARK    4  A    between atoms: C_12  and  N_13
REMARK                            x       y       z     vdW  Elec       q    Type
REMARK                         _______ _______ _______ _____ _____    ______ ____
ROOT
ATOM      1  C   UNL     1       5.775   4.786  16.799  0.00  0.00    +0.000 A 
ATOM      2  C   UNL     1       5.202   5.925  16.265  0.00  0.00    +0.000 A 
ATOM      3  C   UNL     1       5.604   5.993  14.908  0.00  0.00    +0.000 A 
ATOM      4  C   UNL     1       6.398   4.889  14.681  0.00  0.00    +0.000 A 
ATOM      5  O   UNL     1       6.470   4.131  15.812  0.00  0.00    +0.000 OA
ENDROOT
BRANCH   1  11
ATOM      6  C   UNL     1       0.559   2.483  19.723  0.00  0.00    +0.000 C 
ATOM      7  N   UNL     1       1.957   2.413  19.306  0.00  0.00    +0.000 NA
ATOM      8  C   UNL     1       2.843   3.079  20.287  0.00  0.00    +0.000 C 
ATOM      9  C   UNL     1       4.327   3.066  19.851  0.00  0.00    +0.000 C 
ATOM     10  N   UNL     1       4.491   3.563  18.484  0.00  0.00    +0.000 N 
ATOM     11  C   UNL     1       5.674   4.211  18.135  0.00  0.00    +0.000 C 
ATOM     12  O   UNL     1       6.605   4.312  18.936  0.00  0.00    +0.000 OA
ATOM     13  C   UNL     1       3.593   2.921  17.518  0.00  0.00    +0.000 C 
ATOM     14  C   UNL     1       2.134   3.031  17.977  0.00  0.00    +0.000 C 
ENDBRANCH   1  11
BRANCH   4  15
ATOM     15  C   UNL     1       7.148   4.395  13.499  0.00  0.00    +0.000 C 
BRANCH  15  16
ATOM     16  N   UNL     1       6.259   3.665  12.603  0.00  0.00    +0.000 N 
ATOM     17  C   UNL     1       5.006   4.048  12.204  0.00  0.00    +0.000 A 
ATOM     18  C   UNL     1       4.529   3.021  11.427  0.00  0.00    +0.000 A 
ATOM     19 CL   UNL     1       3.012   2.879  10.697  0.00  0.00    +0.000 Cl
ATOM     20  C   UNL     1       5.582   2.092  11.364  0.00  0.00    +0.000 A 
ATOM     21  N   UNL     1       6.654   2.490  12.061  0.00  0.00    +0.000 NA
ENDBRANCH  15  16
ENDBRANCH   4  15
TORSDOF 3
ENDMDL
MODEL 4
REMARK VINA RESULT:      -6.7      5.122      7.356
REMARK  Name = 
REMARK  4 active torsions:
REMARK  status: ('A' for Active; 'I' for Inactive)
REMARK    1  A    between atoms: C_1  and  N_2
REMARK    2  A    between atoms: C_6  and  C_8
REMARK    3  A    between atoms: C_11  and  C_12
REMARK    4  A    between atoms: C_12  and  N_13
REMARK                            x       y       z     vdW  Elec       q    Type
REMARK                         _______ _______ _______ _____ _____    ______ ____
ROOT
ATOM      1  C   UNL     1       7.182   6.389  17.479  0.00  0.00    +0.000 A 
ATOM      2  C   UNL     1       7.948   6.310  18.627  0.00  0.00    +0.000 A 
ATOM      3  C   UNL     1       8.461   7.607  18.873  0.00  0.00    +0.000 A 
ATOM      4  C   UNL     1       7.978   8.415  17.865  0.00  0.00    +0.000 A 
ATOM      5  O   UNL     1       7.168   7.691  17.041  0.00  0.00    +0.000 OA
ENDROOT
BRANCH   1  11
ATOM      6  C   UNL     1       1.458   4.022  19.118  0.00  0.00    +0.000 C 
ATOM      7  N   UNL     1       2.412   4.582  18.164  0.00  0.00    +0.000 NA
ATOM      8  C   UNL     1       3.252   3.523  17.562  0.00  0.00    +0.000 C 
ATOM      9  C   UNL     1       4.307   4.087  16.583  0.00  0.00    +0.000 C 
ATOM     10  N   UNL     1       5.082   5.171  17.191  0.00  0.00    +0.000 N 
ATOM     11  C   UNL     1       6.401   5.370  16.788  0.00  0.00    +0.000 C 
ATOM     12  O   UNL     1       6.901   4.697  15.887  0.00  0.00    +0.000 OA
ATOM     13  C   UNL     1       4.248   6.206  17.811  0.00  0.00    +0.000 C 
ATOM     14  C   UNL     1       3.273   5.586  18.821  0.00  0.00    +0.000 C 
ENDBRANCH   1  11
BRANCH   4  15
ATOM     15  C   UNL     1       8.162   9.848  17.526  0.00  0.00    +0.000 C 
BRANCH  15  16
ATOM     16  N   UNL     1       9.099  10.472  18.454  0.00  0.00    +0.000 N 
ATOM     17  C   UNL     1      10.271  11.102  18.132  0.00  0.00    +0.000 A 
ATOM     18  C   UNL     1      10.843  11.464  19.326  0.00  0.00    +0.000 A 
ATOM     19 CL   UNL     1      12.332  12.219  19.587  0.00  0.00    +0.000 Cl
ATOM     20  C   UNL     1       9.920  11.067  20.308  0.00  0.00    +0.000 A 
ATOM     21  N   UNL     1       8.837  10.481  19.781  0.00  0.00    +0.000 NA
ENDBRANCH  15  16
ENDBRANCH   4  15
TORSDOF 3
ENDMDL
MODEL 5
REMARK VINA RESULT:      -6.7      1.470      1.620
REMARK  Name = 
REMARK  4 active torsions:
REMARK  status: ('A' for Active; 'I' for Inactive)
REMARK    1  A    between atoms: C_1  and  N_2
REMARK    2  A    between atoms: C_6  and  C_8
REMARK    3  A    between atoms: C_11  and  C_12
REMARK    4  A    between atoms: C_12  and  N_13
REMARK                            x       y       z     vdW  Elec       q    Type
REMARK                         _______ _______ _______ _____ _____    ______ ____
ROOT
ATOM      1  C   UNL     1       2.166   6.687  19.804  0.00  0.00    +0.000 A 
ATOM      2  C   UNL     1       1.604   5.876  20.772  0.00  0.00    +0.000 A 
ATOM      3  C   UNL     1       2.308   4.648  20.742  0.00  0.00    +0.000 A 
ATOM      4  C   UNL     1       3.269   4.773  19.761  0.00  0.00    +0.000 A 
ATOM      5  O   UNL     1       3.215   6.023  19.218  0.00  0.00    +0.000 OA
ENDROOT
BRANCH   1  11
ATOM      6  C   UNL     1      -1.240  11.023  23.069  0.00  0.00    +0.000 C 
ATOM      7  N   UNL     1      -0.076  10.591  22.298  0.00  0.00    +0.000 NA
ATOM      8  C   UNL     1      -0.308  10.745  20.845  0.00  0.00    +0.000 C 
ATOM      9  C   UNL     1       0.887  10.250  19.998  0.00  0.00    +0.000 C 
ATOM     10  N   UNL     1       1.297   8.899  20.383  0.00  0.00    +0.000 N 
ATOM     11  C   UNL     1       1.857   8.060  19.421  0.00  0.00    +0.000 C 
ATOM     12  O   UNL     1       2.071   8.458  18.276  0.00  0.00    +0.000 OA
ATOM     13  C   UNL     1       1.501   8.742  21.827  0.00  0.00    +0.000 C 
ATOM     14  C   UNL     1       0.254   9.185  22.603  0.00  0.00    +0.000 C 
ENDBRANCH   1  11
BRANCH   4  15
ATOM     15  C   UNL     1       4.298   3.854  19.214  0.00  0.00    +0.000 C 
BRANCH  15  16
ATOM     16  N   UNL     1       5.403   4.613  18.641  0.00  0.00    +0.000 N 
ATOM     17  C   UNL     1       6.239   5.469  19.307  0.00  0.00    +0.000 A 
ATOM     18  C   UNL     1       7.071   6.001  18.353  0.00  0.00    +0.000 A 
ATOM     19 CL   UNL     1       8.275   7.169  18.548  0.00  0.00    +0.000 Cl
ATOM     20  C   UNL     1       6.705   5.363  17.155  0.00  0.00    +0.000 A 
ATOM     21  N   UNL     1       5.702   4.492  17.327  0.00  0.00    +0.000 NA
ENDBRANCH  15  16
ENDBRANCH   4  15
TORSDOF 3
ENDMDL
MODEL 6
REMARK VINA RESULT:      -6.6      2.254      3.334
REMARK  Name = 
REMARK  4 active torsions:
REMARK  status: ('A' for Active; 'I' for Inactive)
REMARK    1  A    between atoms: C_1  and  N_2
REMARK    2  A    between atoms: C_6  and  C_8
REMARK    3  A    between atoms: C_11  and  C_12
REMARK    4  A    between atoms: C_12  and  N_13
REMARK                            x       y       z     vdW  Elec       q    Type
REMARK                         _______ _______ _______ _____ _____    ______ ____
ROOT
ATOM      1  C   UNL     1       3.545   4.824  18.869  0.00  0.00    +0.000 A 
ATOM      2  C   UNL     1       3.286   3.666  18.160  0.00  0.00    +0.000 A 
ATOM      3  C   UNL     1       4.441   3.387  17.389  0.00  0.00    +0.000 A 
ATOM      4  C   UNL     1       5.349   4.387  17.671  0.00  0.00    +0.000 A 
ATOM      5  O   UNL     1       4.826   5.237  18.600  0.00  0.00    +0.000 OA
ENDROOT
BRANCH   1  11
ATOM      6  C   UNL     1       1.590  10.921  18.608  0.00  0.00    +0.000 C 
ATOM      7  N   UNL     1       1.375   9.491  18.815  0.00  0.00    +0.000 NA
ATOM      8  C   UNL     1       1.658   9.103  20.214  0.00  0.00    +0.000 C 
ATOM      9  C   UNL     1       1.487   7.585  20.455  0.00  0.00    +0.000 C 
ATOM     10  N   UNL     1       2.228   6.796  19.469  0.00  0.00    +0.000 N 
ATOM     11  C   UNL     1       2.726   5.547  19.836  0.00  0.00    +0.000 C 
ATOM     12  O   UNL     1       2.497   5.071  20.948  0.00  0.00    +0.000 OA
ATOM     13  C   UNL     1       1.965   7.200  18.084  0.00  0.00    +0.000 C 
ATOM     14  C   UNL     1       2.221   8.701  17.898  0.00  0.00    +0.000 C 
ENDBRANCH   1  11
BRANCH   4  15
ATOM     15  C   UNL     1       6.716   4.694  17.181  0.00  0.00    +0.000 C 
BRANCH  15  16
ATOM     16  N   UNL     1       6.763   4.611  15.725  0.00  0.00    +0.000 N 
ATOM     17  C   UNL     1       6.030   3.772  14.930  0.00  0.00    +0.000 A 
ATOM     18  C   UNL     1       6.460   4.000  13.646  0.00  0.00    +0.000 A 
ATOM     19 CL   UNL     1       5.976   3.221  12.227  0.00  0.00    +0.000 Cl
ATOM     20  C   UNL     1       7.406   5.033  13.757  0.00  0.00    +0.000 A 
ATOM     21  N   UNL     1       7.579   5.431  15.024  0.00  0.00    +0.000 NA
ENDBRANCH  15  16
ENDBRANCH   4  15
TORSDOF 3
ENDMDL
MODEL 7
REMARK VINA RESULT:      -6.6      5.420      7.662
REMARK  Name = 
REMARK  4 active torsions:
REMARK  status: ('A' for Active; 'I' for Inactive)
REMARK    1  A    between atoms: C_1  and  N_2
REMARK    2  A    between atoms: C_6  and  C_8
REMARK    3  A    between atoms: C_11  and  C_12
REMARK    4  A    between atoms: C_12  and  N_13
REMARK                            x       y       z     vdW  Elec       q    Type
REMARK                         _______ _______ _______ _____ _____    ______ ____
ROOT
ATOM      1  C   UNL     1       7.425   6.697  17.430  0.00  0.00    +0.000 A 
ATOM      2  C   UNL     1       8.106   6.700  18.633  0.00  0.00    +0.000 A 
ATOM      3  C   UNL     1       8.483   8.040  18.892  0.00  0.00    +0.000 A 
ATOM      4  C   UNL     1       8.009   8.789  17.836  0.00  0.00    +0.000 A 
ATOM      5  O   UNL     1       7.330   7.987  16.968  0.00  0.00    +0.000 OA
ENDROOT
BRANCH   1  11
ATOM      6  C   UNL     1       1.699   4.036  18.514  0.00  0.00    +0.000 C 
ATOM      7  N   UNL     1       2.723   4.618  17.651  0.00  0.00    +0.000 NA
ATOM      8  C   UNL     1       3.687   3.592  17.196  0.00  0.00    +0.000 C 
ATOM      9  C   UNL     1       4.814   4.184  16.318  0.00  0.00    +0.000 C 
ATOM     10  N   UNL     1       5.448   5.337  16.961  0.00  0.00    +0.000 N 
ATOM     11  C   UNL     1       6.790   5.605  16.702  0.00  0.00    +0.000 C 
ATOM     12  O   UNL     1       7.430   4.930  15.895  0.00  0.00    +0.000 OA
ATOM     13  C   UNL     1       4.488   6.340  17.434  0.00  0.00    +0.000 C 
ATOM     14  C   UNL     1       3.441   5.699  18.354  0.00  0.00    +0.000 C 
ENDBRANCH   1  11
BRANCH   4  15
ATOM     15  C   UNL     1       8.092  10.229  17.486  0.00  0.00    +0.000 C 
BRANCH  15  16
ATOM     16  N   UNL     1       9.144  10.879  18.259  0.00  0.00    +0.000 N 
ATOM     17  C   UNL     1       9.017  11.440  19.501  0.00  0.00    +0.000 A 
ATOM     18  C   UNL     1      10.243  11.988  19.793  0.00  0.00    +0.000 A 
ATOM     19 CL   UNL     1      10.694  12.874  21.159  0.00  0.00    +0.000 Cl
ATOM     20  C   UNL     1      11.060  11.656  18.698  0.00  0.00    +0.000 A 
ATOM     21  N   UNL     1      10.401  10.956  17.765  0.00  0.00    +0.000 NA
ENDBRANCH  15  16
ENDBRANCH   4  15
TORSDOF 3
ENDMDL
MODEL 8
REMARK VINA RESULT:      -6.5      3.230      7.690
REMARK  Name = 
REMARK  4 active torsions:
REMARK  status: ('A' for Active; 'I' for Inactive)
REMARK    1  A    between atoms: C_1  and  N_2
REMARK    2  A    between atoms: C_6  and  C_8
REMARK    3  A    between atoms: C_11  and  C_12
REMARK    4  A    between atoms: C_12  and  N_13
REMARK                            x       y       z     vdW  Elec       q    Type
REMARK                         _______ _______ _______ _____ _____    ______ ____
ROOT
ATOM      1  C   UNL     1       2.363   6.407  18.899  0.00  0.00    +0.000 A 
ATOM      2  C   UNL     1       2.115   6.797  20.201  0.00  0.00    +0.000 A 
ATOM      3  C   UNL     1       1.773   8.171  20.164  0.00  0.00    +0.000 A 
ATOM      4  C   UNL     1       1.824   8.548  18.839  0.00  0.00    +0.000 A 
ATOM      5  O   UNL     1       2.139   7.473  18.063  0.00  0.00    +0.000 OA
ENDROOT
BRANCH   1  11
ATOM      6  C   UNL     1       7.170   4.998  14.904  0.00  0.00    +0.000 C 
ATOM      7  N   UNL     1       6.363   4.776  16.101  0.00  0.00    +0.000 NA
ATOM      8  C   UNL     1       5.185   3.931  15.804  0.00  0.00    +0.000 C 
ATOM      9  C   UNL     1       4.282   3.717  17.041  0.00  0.00    +0.000 C 
ATOM     10  N   UNL     1       3.942   4.987  17.686  0.00  0.00    +0.000 N 
ATOM     11  C   UNL     1       2.723   5.104  18.351  0.00  0.00    +0.000 C 
ATOM     12  O   UNL     1       1.962   4.142  18.462  0.00  0.00    +0.000 OA
ATOM     13  C   UNL     1       5.108   5.834  17.955  0.00  0.00    +0.000 C 
ATOM     14  C   UNL     1       5.920   6.062  16.673  0.00  0.00    +0.000 C 
ENDBRANCH   1  11
BRANCH   4  15
ATOM     15  C   UNL     1       1.609   9.838  18.134  0.00  0.00    +0.000 C 
BRANCH  15  16
ATOM     16  N   UNL     1       0.245  10.308  18.342  0.00  0.00    +0.000 N 
ATOM     17  C   UNL     1      -0.889   9.813  17.755  0.00  0.00    +0.000 A 
ATOM     18  C   UNL     1      -1.918  10.609  18.195  0.00  0.00    +0.000 A 
ATOM     19 CL   UNL     1      -3.551  10.538  17.769  0.00  0.00    +0.000 Cl
ATOM     20  C   UNL     1      -1.321  11.516  19.087  0.00  0.00    +0.000 A 
ATOM     21  N   UNL     1      -0.001  11.323  19.203  0.00  0.00    +0.000 NA
ENDBRANCH  15  16
ENDBRANCH   4  15
TORSDOF 3
ENDMDL
MODEL 9
REMARK VINA RESULT:      -6.5      3.420      7.788
REMARK  Name = 
REMARK  4 active torsions:
REMARK  status: ('A' for Active; 'I' for Inactive)
REMARK    1  A    between atoms: C_1  and  N_2
REMARK    2  A    between atoms: C_6  and  C_8
REMARK    3  A    between atoms: C_11  and  C_12
REMARK    4  A    between atoms: C_12  and  N_13
REMARK                            x       y       z     vdW  Elec       q    Type
REMARK                         _______ _______ _______ _____ _____    ______ ____
ROOT
ATOM      1  C   UNL     1       2.382   6.402  18.997  0.00  0.00    +0.000 A 
ATOM      2  C   UNL     1       2.087   6.810  20.284  0.00  0.00    +0.000 A 
ATOM      3  C   UNL     1       1.747   8.183  20.215  0.00  0.00    +0.000 A 
ATOM      4  C   UNL     1       1.848   8.543  18.888  0.00  0.00    +0.000 A 
ATOM      5  O   UNL     1       2.191   7.457  18.139  0.00  0.00    +0.000 OA
ENDROOT
BRANCH   1  11
ATOM      6  C   UNL     1       7.132   4.983  14.937  0.00  0.00    +0.000 C 
ATOM      7  N   UNL     1       6.357   4.780  16.159  0.00  0.00    +0.000 NA
ATOM      8  C   UNL     1       5.194   3.899  15.915  0.00  0.00    +0.000 C 
ATOM      9  C   UNL     1       4.324   3.702  17.178  0.00  0.00    +0.000 C 
ATOM     10  N   UNL     1       3.968   4.983  17.791  0.00  0.00    +0.000 N 
ATOM     11  C   UNL     1       2.762   5.092  18.481  0.00  0.00    +0.000 C 
ATOM     12  O   UNL     1       2.027   4.116  18.639  0.00  0.00    +0.000 OA
ATOM     13  C   UNL     1       5.119   5.865  18.008  0.00  0.00    +0.000 C 
ATOM     14  C   UNL     1       5.897   6.073  16.702  0.00  0.00    +0.000 C 
ENDBRANCH   1  11
BRANCH   4  15
ATOM     15  C   UNL     1       1.661   9.823  18.158  0.00  0.00    +0.000 C 
BRANCH  15  16
ATOM     16  N   UNL     1       0.324  10.353  18.399  0.00  0.00    +0.000 N 
ATOM     17  C   UNL     1      -0.014  11.352  19.271  0.00  0.00    +0.000 A 
ATOM     18  C   UNL     1      -1.382  11.459  19.208  0.00  0.00    +0.000 A 
ATOM     19 CL   UNL     1      -2.395  12.474  20.102  0.00  0.00    +0.000 Cl
ATOM     20  C   UNL     1      -1.776  10.529  18.230  0.00  0.00    +0.000 A 
ATOM     21  N   UNL     1      -0.735   9.865  17.711  0.00  0.00    +0.000 NA
ENDBRANCH  15  16
ENDBRANCH   4  15
TORSDOF 3
ENDMDL
