MODEL 1
REMARK VINA RESULT:      -8.6      0.000      0.000
REMARK  Name = 
REMARK  7 active torsions:
REMARK  status: ('A' for Active; 'I' for Inactive)
REMARK    1  A    between atoms: C_2  and  C_23
REMARK    2  A    between atoms: N_3  and  C_4
REMARK    3  A    between atoms: C_4  and  C_5
REMARK    4  A    between atoms: C_5  and  C_6
REMARK    5  A    between atoms: C_6  and  C_7
REMARK    6  A    between atoms: C_7  and  N_8
REMARK    7  A    between atoms: N_8  and  C_9
REMARK                            x       y       z     vdW  Elec       q    Type
REMARK                         _______ _______ _______ _____ _____    ______ ____
ROOT
ATOM      1  C   UNL     1       2.174   8.071  18.883  0.00  0.00    +0.000 C 
ENDROOT
BRANCH   1   2
ATOM      2  N   UNL     1       2.466   6.874  18.115  0.00  0.00    +0.000 N 
ATOM      3  H   UNL     1       2.040   6.860  17.186  0.00  0.00    +0.000 HD
BRANCH   2   4
ATOM      4  C   UNL     1       3.323   5.774  18.524  0.00  0.00    +0.000 A 
ATOM      5  C   UNL     1       2.854   4.629  19.292  0.00  0.00    +0.000 A 
ATOM      6  C   UNL     1       3.791   3.628  19.667  0.00  0.00    +0.000 A 
ATOM      7  N   UNL     1       5.089   3.743  19.318  0.00  0.00    +0.000 NA
ATOM      8  C   UNL     1       5.573   4.762  18.585  0.00  0.00    +0.000 A 
ATOM      9  C   UNL     1       6.935   4.751  18.261  0.00  0.00    +0.000 A 
ATOM     10  C   UNL     1       7.490   5.778  17.507  0.00  0.00    +0.000 A 
ATOM     11  C   UNL     1       6.685   6.825  17.073  0.00  0.00    +0.000 A 
ATOM     12  C   UNL     1       5.322   6.853  17.393  0.00  0.00    +0.000 A 
ATOM     13  C   UNL     1       4.721   5.813  18.161  0.00  0.00    +0.000 A 
ATOM     14  C   UNL     1       3.436   2.414  20.496  0.00  0.00    +0.000 C 
ATOM     15  C   UNL     1       1.938   2.179  20.671  0.00  0.00    +0.000 C 
ATOM     16  C   UNL     1       1.246   3.489  20.931  0.00  0.00    +0.000 C 
ATOM     17  C   UNL     1       1.400   4.387  19.709  0.00  0.00    +0.000 C 
ENDBRANCH   2   4
ENDBRANCH   1   2
BRANCH   1  18
ATOM     18  C   UNL     1       1.671   9.250  18.043  0.00  0.00    +0.000 C 
BRANCH  18  19
ATOM     19  C   UNL     1       0.684  10.163  18.782  0.00  0.00    +0.000 C 
BRANCH  19  20
ATOM     20  C   UNL     1       0.623   9.901  20.294  0.00  0.00    +0.000 C 
BRANCH  20  23
ATOM     21  O   UNL     1       0.236  10.308  23.009  0.00  0.00    +0.000 OA
ATOM     22  C   UNL     1      -0.396  11.030  22.250  0.00  0.00    +0.000 C 
ATOM     23  N   UNL     1      -0.252  10.878  20.901  0.00  0.00    +0.000 N 
ATOM     24  H   UNL     1      -0.772  11.469  20.242  0.00  0.00    +0.000 HD
BRANCH  22  25
ATOM     25  C   UNL     1      -1.294  12.076  22.827  0.00  0.00    +0.000 A 
ATOM     26  C   UNL     1      -0.909  13.428  22.780  0.00  0.00    +0.000 A 
ATOM     27  N   UNL     1      -1.719  14.396  23.284  0.00  0.00    +0.000 NA
ATOM     28  C   UNL     1      -2.925  14.113  23.845  0.00  0.00    +0.000 A 
ATOM     29 CL   UNL     1      -3.905  15.428  24.460  0.00  0.00    +0.000 Cl
ATOM     30  C   UNL     1      -3.347  12.783  23.926  0.00  0.00    +0.000 A 
ATOM     31 CL   UNL     1      -4.901  12.359  24.651  0.00  0.00    +0.000 Cl
ATOM     32  C   UNL     1      -2.538  11.772  23.421  0.00  0.00    +0.000 A 
ENDBRANCH  22  25
ENDBRANCH  20  23
ENDBRANCH  19  20
ENDBRANCH  18  19
ENDBRANCH   1  18
TORSDOF 7
ENDMDL
MODEL 2
REMARK VINA RESULT:      -8.6      3.300      5.385
REMARK  Name = 
REMARK  7 active torsions:
REMARK  status: ('A' for Active; 'I' for Inactive)
REMARK    1  A    between atoms: C_2  and  C_23
REMARK    2  A    between atoms: N_3  and  C_4
REMARK    3  A    between atoms: C_4  and  C_5
REMARK    4  A    between atoms: C_5  and  C_6
REMARK    5  A    between atoms: C_6  and  C_7
REMARK    6  A    between atoms: C_7  and  N_8
REMARK    7  A    between atoms: N_8  and  C_9
REMARK                            x       y       z     vdW  Elec       q    Type
REMARK                         _______ _______ _______ _____ _____    ______ ____
ROOT
ATOM      1  C   UNL     1       2.043   7.870  19.699  0.00  0.00    +0.000 C 
ENDROOT
BRANCH   1   2
ATOM      2  N   UNL     1       3.036   6.826  19.876  0.00  0.00    +0.000 N 
ATOM      3  H   UNL     1       3.630   6.949  20.698  0.00  0.00    +0.000 HD
BRANCH   2   4
ATOM      4  C   UNL     1       3.206   5.646  19.043  0.00  0.00    +0.000 A 
ATOM      5  C   UNL     1       4.034   5.618  17.846  0.00  0.00    +0.000 A 
ATOM      6  C   UNL     1       4.096   4.415  17.088  0.00  0.00    +0.000 A 
ATOM      7  N   UNL     1       3.400   3.327  17.476  0.00  0.00    +0.000 NA
ATOM      8  C   UNL     1       2.643   3.288  18.588  0.00  0.00    +0.000 A 
ATOM      9  C   UNL     1       1.992   2.088  18.898  0.00  0.00    +0.000 A 
ATOM     10  C   UNL     1       1.198   1.988  20.034  0.00  0.00    +0.000 A 
ATOM     11  C   UNL     1       1.047   3.091  20.865  0.00  0.00    +0.000 A 
ATOM     12  C   UNL     1       1.686   4.300  20.566  0.00  0.00    +0.000 A 
ATOM     13  C   UNL     1       2.512   4.434  19.412  0.00  0.00    +0.000 A 
ATOM     14  C   UNL     1       4.888   4.271  15.808  0.00  0.00    +0.000 C 
ATOM     15  C   UNL     1       5.851   5.419  15.522  0.00  0.00    +0.000 C 
ATOM     16  C   UNL     1       5.188   6.731  15.846  0.00  0.00    +0.000 C 
ATOM     17  C   UNL     1       4.888   6.783  17.340  0.00  0.00    +0.000 C 
ENDBRANCH   2   4
ENDBRANCH   1   2
BRANCH   1  18
ATOM     18  C   UNL     1       1.093   8.042  20.890  0.00  0.00    +0.000 C 
BRANCH  18  19
ATOM     19  C   UNL     1       1.466   9.204  21.819  0.00  0.00    +0.000 C 
BRANCH  19  20
ATOM     20  C   UNL     1       0.630  10.469  21.582  0.00  0.00    +0.000 C 
BRANCH  20  23
ATOM     21  O   UNL     1      -1.565  11.957  20.772  0.00  0.00    +0.000 OA
ATOM     22  C   UNL     1      -1.175  11.089  20.002  0.00  0.00    +0.000 C 
ATOM     23  N   UNL     1      -0.101  10.321  20.344  0.00  0.00    +0.000 N 
ATOM     24  H   UNL     1       0.246   9.585  19.717  0.00  0.00    +0.000 HD
BRANCH  22  25
ATOM     25  C   UNL     1      -1.879  10.912  18.696  0.00  0.00    +0.000 A 
ATOM     26  C   UNL     1      -1.312  10.090  17.705  0.00  0.00    +0.000 A 
ATOM     27  N   UNL     1      -1.945   9.902  16.517  0.00  0.00    +0.000 NA
ATOM     28  C   UNL     1      -3.140  10.485  16.231  0.00  0.00    +0.000 A 
ATOM     29 CL   UNL     1      -3.885  10.177  14.675  0.00  0.00    +0.000 Cl
ATOM     30  C   UNL     1      -3.738  11.321  17.179  0.00  0.00    +0.000 A 
ATOM     31 CL   UNL     1      -5.285  12.108  16.856  0.00  0.00    +0.000 Cl
ATOM     32  C   UNL     1      -3.112  11.533  18.402  0.00  0.00    +0.000 A 
ENDBRANCH  22  25
ENDBRANCH  20  23
ENDBRANCH  19  20
ENDBRANCH  18  19
ENDBRANCH   1  18
TORSDOF 7
ENDMDL
MODEL 3
REMARK VINA RESULT:      -8.5      3.346      5.218
REMARK  Name = 
REMARK  7 active torsions:
REMARK  status: ('A' for Active; 'I' for Inactive)
REMARK    1  A    between atoms: C_2  and  C_23
REMARK    2  A    between atoms: N_3  and  C_4
REMARK    3  A    between atoms: C_4  and  C_5
REMARK    4  A    between atoms: C_5  and  C_6
REMARK    5  A    between atoms: C_6  and  C_7
REMARK    6  A    between atoms: C_7  and  N_8
REMARK    7  A    between atoms: N_8  and  C_9
REMARK                            x       y       z     vdW  Elec       q    Type
REMARK                         _______ _______ _______ _____ _____    ______ ____
ROOT
ATOM      1  C   UNL     1       2.528   7.408  19.693  0.00  0.00    +0.000 C 
ENDROOT
BRANCH   1   2
ATOM      2  N   UNL     1       3.423   6.288  19.920  0.00  0.00    +0.000 N 
ATOM      3  H   UNL     1       3.878   6.296  20.835  0.00  0.00    +0.000 HD
BRANCH   2   4
ATOM      4  C   UNL     1       3.667   5.180  19.011  0.00  0.00    +0.000 A 
ATOM      5  C   UNL     1       4.810   5.112  18.112  0.00  0.00    +0.000 A 
ATOM      6  C   UNL     1       4.926   3.994  17.240  0.00  0.00    +0.000 A 
ATOM      7  N   UNL     1       3.993   3.021  17.250  0.00  0.00    +0.000 NA
ATOM      8  C   UNL     1       2.933   3.017  18.079  0.00  0.00    +0.000 A 
ATOM      9  C   UNL     1       2.050   1.933  18.012  0.00  0.00    +0.000 A 
ATOM     10  C   UNL     1       0.939   1.875  18.844  0.00  0.00    +0.000 A 
ATOM     11  C   UNL     1       0.701   2.905  19.746  0.00  0.00    +0.000 A 
ATOM     12  C   UNL     1       1.572   3.999  19.822  0.00  0.00    +0.000 A 
ATOM     13  C   UNL     1       2.723   4.086  18.986  0.00  0.00    +0.000 A 
ATOM     14  C   UNL     1       6.044   3.827  16.235  0.00  0.00    +0.000 C 
ATOM     15  C   UNL     1       7.206   4.801  16.407  0.00  0.00    +0.000 C 
ATOM     16  C   UNL     1       6.674   6.176  16.711  0.00  0.00    +0.000 C 
ATOM     17  C   UNL     1       5.940   6.143  18.047  0.00  0.00    +0.000 C 
ENDBRANCH   2   4
ENDBRANCH   1   2
BRANCH   1  18
ATOM     18  C   UNL     1       2.047   7.546  18.245  0.00  0.00    +0.000 C 
BRANCH  18  19
ATOM     19  C   UNL     1       2.526   8.827  17.550  0.00  0.00    +0.000 C 
BRANCH  19  20
ATOM     20  C   UNL     1       2.081  10.112  18.262  0.00  0.00    +0.000 C 
BRANCH  20  23
ATOM     21  O   UNL     1      -0.098  10.442  19.945  0.00  0.00    +0.000 OA
ATOM     22  C   UNL     1      -0.305  10.572  18.746  0.00  0.00    +0.000 C 
ATOM     23  N   UNL     1       0.726  10.420  17.866  0.00  0.00    +0.000 N 
ATOM     24  H   UNL     1       0.579  10.522  16.854  0.00  0.00    +0.000 HD
BRANCH  22  25
ATOM     25  C   UNL     1      -1.684  10.918  18.285  0.00  0.00    +0.000 A 
ATOM     26  C   UNL     1      -2.535  11.657  19.127  0.00  0.00    +0.000 A 
ATOM     27  N   UNL     1      -3.787  11.996  18.720  0.00  0.00    +0.000 NA
ATOM     28  C   UNL     1      -4.271  11.649  17.497  0.00  0.00    +0.000 A 
ATOM     29 CL   UNL     1      -5.894  12.140  17.056  0.00  0.00    +0.000 Cl
ATOM     30  C   UNL     1      -3.467  10.905  16.629  0.00  0.00    +0.000 A 
ATOM     31 CL   UNL     1      -4.048  10.422  15.033  0.00  0.00    +0.000 Cl
ATOM     32  C   UNL     1      -2.183  10.541  17.020  0.00  0.00    +0.000 A 
ENDBRANCH  22  25
ENDBRANCH  20  23
ENDBRANCH  19  20
ENDBRANCH  18  19
ENDBRANCH   1  18
TORSDOF 7
ENDMDL
MODEL 4
REMARK VINA RESULT:      -8.5      3.312      4.958
REMARK  Name = 
REMARK  7 active torsions:
REMARK  status: ('A' for Active; 'I' for Inactive)
REMARK    1  A    between atoms: C_2  and  C_23
REMARK    2  A    between atoms: N_3  and  C_4
REMARK    3  A    between atoms: C_4  and  C_5
REMARK    4  A    between atoms: C_5  and  C_6
REMARK    5  A    between atoms: C_6  and  C_7
REMARK    6  A    between atoms: C_7  and  N_8
REMARK    7  A    between atoms: N_8  and  C_9
REMARK                            x       y       z     vdW  Elec       q    Type
REMARK                         _______ _______ _______ _____ _____    ______ ____
ROOT
ATOM      1  C   UNL     1       2.250   8.074  17.844  0.00  0.00    +0.000 C 
ENDROOT
BRANCH   1   2
ATOM      2  N   UNL     1       2.976   7.119  18.661  0.00  0.00    +0.000 N 
ATOM      3  H   UNL     1       3.221   7.465  19.591  0.00  0.00    +0.000 HD
BRANCH   2   4
ATOM      4  C   UNL     1       3.316   5.753  18.296  0.00  0.00    +0.000 A 
ATOM      5  C   UNL     1       4.273   5.413  17.253  0.00  0.00    +0.000 A 
ATOM      6  C   UNL     1       4.500   4.040  16.957  0.00  0.00    +0.000 A 
ATOM      7  N   UNL     1       3.838   3.078  17.631  0.00  0.00    +0.000 NA
ATOM      8  C   UNL     1       2.966   3.333  18.623  0.00  0.00    +0.000 A 
ATOM      9  C   UNL     1       2.365   2.244  19.267  0.00  0.00    +0.000 A 
ATOM     10  C   UNL     1       1.457   2.448  20.298  0.00  0.00    +0.000 A 
ATOM     11  C   UNL     1       1.140   3.742  20.691  0.00  0.00    +0.000 A 
ATOM     12  C   UNL     1       1.728   4.842  20.053  0.00  0.00    +0.000 A 
ATOM     13  C   UNL     1       2.667   4.668  18.995  0.00  0.00    +0.000 A 
ATOM     14  C   UNL     1       5.438   3.560  15.872  0.00  0.00    +0.000 C 
ATOM     15  C   UNL     1       6.349   4.639  15.294  0.00  0.00    +0.000 C 
ATOM     16  C   UNL     1       5.568   5.911  15.097  0.00  0.00    +0.000 C 
ATOM     17  C   UNL     1       5.100   6.424  16.454  0.00  0.00    +0.000 C 
ENDBRANCH   2   4
ENDBRANCH   1   2
BRANCH   1  18
ATOM     18  C   UNL     1       1.531   9.166  18.643  0.00  0.00    +0.000 C 
BRANCH  18  19
ATOM     19  C   UNL     1       1.429   8.871  20.145  0.00  0.00    +0.000 C 
BRANCH  19  20
ATOM     20  C   UNL     1       0.658   9.943  20.928  0.00  0.00    +0.000 C 
BRANCH  20  23
ATOM     21  O   UNL     1      -0.207  12.321  19.793  0.00  0.00    +0.000 OA
ATOM     22  C   UNL     1      -0.977  11.372  19.735  0.00  0.00    +0.000 C 
ATOM     23  N   UNL     1      -0.611  10.174  20.277  0.00  0.00    +0.000 N 
ATOM     24  H   UNL     1      -1.240   9.363  20.243  0.00  0.00    +0.000 HD
BRANCH  22  25
ATOM     25  C   UNL     1      -2.292  11.550  19.048  0.00  0.00    +0.000 A 
ATOM     26  C   UNL     1      -3.342  12.210  19.714  0.00  0.00    +0.000 A 
ATOM     27  N   UNL     1      -4.540  12.398  19.101  0.00  0.00    +0.000 NA
ATOM     28  C   UNL     1      -4.781  11.970  17.833  0.00  0.00    +0.000 A 
ATOM     29 CL   UNL     1      -6.354  12.266  17.121  0.00  0.00    +0.000 Cl
ATOM     30  C   UNL     1      -3.773  11.299  17.133  0.00  0.00    +0.000 A 
ATOM     31 CL   UNL     1      -4.035  10.717  15.487  0.00  0.00    +0.000 Cl
ATOM     32  C   UNL     1      -2.538  11.091  17.737  0.00  0.00    +0.000 A 
ENDBRANCH  22  25
ENDBRANCH  20  23
ENDBRANCH  19  20
ENDBRANCH  18  19
ENDBRANCH   1  18
TORSDOF 7
ENDMDL
MODEL 5
REMARK VINA RESULT:      -8.4      1.690      1.841
REMARK  Name = 
REMARK  7 active torsions:
REMARK  status: ('A' for Active; 'I' for Inactive)
REMARK    1  A    between atoms: C_2  and  C_23
REMARK    2  A    between atoms: N_3  and  C_4
REMARK    3  A    between atoms: C_4  and  C_5
REMARK    4  A    between atoms: C_5  and  C_6
REMARK    5  A    between atoms: C_6  and  C_7
REMARK    6  A    between atoms: C_7  and  N_8
REMARK    7  A    between atoms: N_8  and  C_9
REMARK                            x       y       z     vdW  Elec       q    Type
REMARK                         _______ _______ _______ _____ _____    ______ ____
ROOT
ATOM      1  C   UNL     1       2.020   7.962  19.539  0.00  0.00    +0.000 C 
ENDROOT
BRANCH   1   2
ATOM      2  N   UNL     1       3.073   6.965  19.601  0.00  0.00    +0.000 N 
ATOM      3  H   UNL     1       3.789   7.156  20.304  0.00  0.00    +0.000 HD
BRANCH   2   4
ATOM      4  C   UNL     1       3.154   5.744  18.815  0.00  0.00    +0.000 A 
ATOM      5  C   UNL     1       2.352   4.558  19.084  0.00  0.00    +0.000 A 
ATOM      6  C   UNL     1       2.541   3.408  18.269  0.00  0.00    +0.000 A 
ATOM      7  N   UNL     1       3.447   3.420  17.270  0.00  0.00    +0.000 NA
ATOM      8  C   UNL     1       4.193   4.495  16.958  0.00  0.00    +0.000 A 
ATOM      9  C   UNL     1       5.078   4.391  15.878  0.00  0.00    +0.000 A 
ATOM     10  C   UNL     1       5.873   5.469  15.510  0.00  0.00    +0.000 A 
ATOM     11  C   UNL     1       5.792   6.659  16.223  0.00  0.00    +0.000 A 
ATOM     12  C   UNL     1       4.916   6.778  17.310  0.00  0.00    +0.000 A 
ATOM     13  C   UNL     1       4.083   5.692  17.709  0.00  0.00    +0.000 A 
ATOM     14  C   UNL     1       1.799   2.105  18.472  0.00  0.00    +0.000 C 
ATOM     15  C   UNL     1       0.619   2.188  19.436  0.00  0.00    +0.000 C 
ATOM     16  C   UNL     1       0.996   3.026  20.628  0.00  0.00    +0.000 C 
ATOM     17  C   UNL     1       1.275   4.453  20.167  0.00  0.00    +0.000 C 
ENDBRANCH   2   4
ENDBRANCH   1   2
BRANCH   1  18
ATOM     18  C   UNL     1       1.739   8.493  18.130  0.00  0.00    +0.000 C 
BRANCH  18  19
ATOM     19  C   UNL     1       1.198   9.928  18.103  0.00  0.00    +0.000 C 
BRANCH  19  20
ATOM     20  C   UNL     1       1.303  10.647  19.455  0.00  0.00    +0.000 C 
BRANCH  20  23
ATOM     21  O   UNL     1       0.427  11.254  22.015  0.00  0.00    +0.000 OA
ATOM     22  C   UNL     1      -0.373  11.427  21.105  0.00  0.00    +0.000 C 
ATOM     23  N   UNL     1      -0.003  11.145  19.822  0.00  0.00    +0.000 N 
ATOM     24  H   UNL     1      -0.655  11.279  19.041  0.00  0.00    +0.000 HD
BRANCH  22  25
ATOM     25  C   UNL     1      -1.729  11.966  21.428  0.00  0.00    +0.000 A 
ATOM     26  C   UNL     1      -2.537  12.481  20.397  0.00  0.00    +0.000 A 
ATOM     27  N   UNL     1      -3.779  12.961  20.667  0.00  0.00    +0.000 NA
ATOM     28  C   UNL     1      -4.299  12.963  21.923  0.00  0.00    +0.000 A 
ATOM     29 CL   UNL     1      -5.915  13.592  22.173  0.00  0.00    +0.000 Cl
ATOM     30  C   UNL     1      -3.531  12.472  22.983  0.00  0.00    +0.000 A 
ATOM     31 CL   UNL     1      -4.155  12.458  24.635  0.00  0.00    +0.000 Cl
ATOM     32  C   UNL     1      -2.255  11.978  22.737  0.00  0.00    +0.000 A 
ENDBRANCH  22  25
ENDBRANCH  20  23
ENDBRANCH  19  20
ENDBRANCH  18  19
ENDBRANCH   1  18
TORSDOF 7
ENDMDL
MODEL 6
REMARK VINA RESULT:      -8.4      1.132      3.479
REMARK  Name = 
REMARK  7 active torsions:
REMARK  status: ('A' for Active; 'I' for Inactive)
REMARK    1  A    between atoms: C_2  and  C_23
REMARK    2  A    between atoms: N_3  and  C_4
REMARK    3  A    between atoms: C_4  and  C_5
REMARK    4  A    between atoms: C_5  and  C_6
REMARK    5  A    between atoms: C_6  and  C_7
REMARK    6  A    between atoms: C_7  and  N_8
REMARK    7  A    between atoms: N_8  and  C_9
REMARK                            x       y       z     vdW  Elec       q    Type
REMARK                         _______ _______ _______ _____ _____    ______ ____
ROOT
ATOM      1  C   UNL     1       2.207   8.028  18.850  0.00  0.00    +0.000 C 
ENDROOT
BRANCH   1   2
ATOM      2  N   UNL     1       2.186   6.706  18.249  0.00  0.00    +0.000 N 
ATOM      3  H   UNL     1       1.401   6.548  17.616  0.00  0.00    +0.000 HD
BRANCH   2   4
ATOM      4  C   UNL     1       3.181   5.661  18.427  0.00  0.00    +0.000 A 
ATOM      5  C   UNL     1       4.405   5.572  17.643  0.00  0.00    +0.000 A 
ATOM      6  C   UNL     1       5.289   4.484  17.880  0.00  0.00    +0.000 A 
ATOM      7  N   UNL     1       4.994   3.555  18.813  0.00  0.00    +0.000 NA
ATOM      8  C   UNL     1       3.895   3.603  19.586  0.00  0.00    +0.000 A 
ATOM      9  C   UNL     1       3.716   2.595  20.541  0.00  0.00    +0.000 A 
ATOM     10  C   UNL     1       2.599   2.593  21.367  0.00  0.00    +0.000 A 
ATOM     11  C   UNL     1       1.650   3.600  21.241  0.00  0.00    +0.000 A 
ATOM     12  C   UNL     1       1.810   4.613  20.288  0.00  0.00    +0.000 A 
ATOM     13  C   UNL     1       2.947   4.646  19.428  0.00  0.00    +0.000 A 
ATOM     14  C   UNL     1       6.569   4.259  17.107  0.00  0.00    +0.000 C 
ATOM     15  C   UNL     1       7.003   5.436  16.238  0.00  0.00    +0.000 C 
ATOM     16  C   UNL     1       5.804   6.022  15.543  0.00  0.00    +0.000 C 
ATOM     17  C   UNL     1       4.849   6.588  16.587  0.00  0.00    +0.000 C 
ENDBRANCH   2   4
ENDBRANCH   1   2
BRANCH   1  18
ATOM     18  C   UNL     1       1.869   9.165  17.881  0.00  0.00    +0.000 C 
BRANCH  18  19
ATOM     19  C   UNL     1       1.172  10.360  18.545  0.00  0.00    +0.000 C 
BRANCH  19  20
ATOM     20  C   UNL     1       0.925  10.167  20.047  0.00  0.00    +0.000 C 
BRANCH  20  23
ATOM     21  O   UNL     1       0.179  10.936  22.605  0.00  0.00    +0.000 OA
ATOM     22  C   UNL     1      -0.589  11.227  21.698  0.00  0.00    +0.000 C 
ATOM     23  N   UNL     1      -0.280  10.874  20.417  0.00  0.00    +0.000 N 
ATOM     24  H   UNL     1      -0.909  11.104  19.637  0.00  0.00    +0.000 HD
BRANCH  22  25
ATOM     25  C   UNL     1      -1.837  11.982  22.023  0.00  0.00    +0.000 A 
ATOM     26  C   UNL     1      -2.389  12.857  21.069  0.00  0.00    +0.000 A 
ATOM     27  N   UNL     1      -3.532  13.541  21.338  0.00  0.00    +0.000 NA
ATOM     28  C   UNL     1      -4.194  13.413  22.519  0.00  0.00    +0.000 A 
ATOM     29 CL   UNL     1      -5.667  14.327  22.772  0.00  0.00    +0.000 Cl
ATOM     30  C   UNL     1      -3.679  12.564  23.503  0.00  0.00    +0.000 A 
ATOM     31 CL   UNL     1      -4.494  12.366  25.057  0.00  0.00    +0.000 Cl
ATOM     32  C   UNL     1      -2.509  11.854  23.257  0.00  0.00    +0.000 A 
ENDBRANCH  22  25
ENDBRANCH  20  23
ENDBRANCH  19  20
ENDBRANCH  18  19
ENDBRANCH   1  18
TORSDOF 7
ENDMDL
MODEL 7
REMARK VINA RESULT:      -8.3      0.662      3.372
REMARK  Name = 
REMARK  7 active torsions:
REMARK  status: ('A' for Active; 'I' for Inactive)
REMARK    1  A    between atoms: C_2  and  C_23
REMARK    2  A    between atoms: N_3  and  C_4
REMARK    3  A    between atoms: C_4  and  C_5
REMARK    4  A    between atoms: C_5  and  C_6
REMARK    5  A    between atoms: C_6  and  C_7
REMARK    6  A    between atoms: C_7  and  N_8
REMARK    7  A    between atoms: N_8  and  C_9
REMARK                            x       y       z     vdW  Elec       q    Type
REMARK                         _______ _______ _______ _____ _____    ______ ____
ROOT
ATOM      1  C   UNL     1       1.948   7.989  19.146  0.00  0.00    +0.000 C 
ENDROOT
BRANCH   1   2
ATOM      2  N   UNL     1       2.104   6.824  18.293  0.00  0.00    +0.000 N 
ATOM      3  H   UNL     1       1.480   6.812  17.485  0.00  0.00    +0.000 HD
BRANCH   2   4
ATOM      4  C   UNL     1       3.074   5.754  18.462  0.00  0.00    +0.000 A 
ATOM      5  C   UNL     1       4.320   5.671  17.713  0.00  0.00    +0.000 A 
ATOM      6  C   UNL     1       5.177   4.558  17.937  0.00  0.00    +0.000 A 
ATOM      7  N   UNL     1       4.836   3.601  18.825  0.00  0.00    +0.000 NA
ATOM      8  C   UNL     1       3.713   3.642  19.565  0.00  0.00    +0.000 A 
ATOM      9  C   UNL     1       3.487   2.602  20.475  0.00  0.00    +0.000 A 
ATOM     10  C   UNL     1       2.345   2.592  21.265  0.00  0.00    +0.000 A 
ATOM     11  C   UNL     1       1.418   3.621  21.148  0.00  0.00    +0.000 A 
ATOM     12  C   UNL     1       1.626   4.665  20.239  0.00  0.00    +0.000 A 
ATOM     13  C   UNL     1       2.791   4.708  19.417  0.00  0.00    +0.000 A 
ATOM     14  C   UNL     1       6.476   4.337  17.195  0.00  0.00    +0.000 C 
ATOM     15  C   UNL     1       6.959   5.537  16.385  0.00  0.00    +0.000 C 
ATOM     16  C   UNL     1       5.793   6.171  15.676  0.00  0.00    +0.000 C 
ATOM     17  C   UNL     1       4.815   6.717  16.711  0.00  0.00    +0.000 C 
ENDBRANCH   2   4
ENDBRANCH   1   2
BRANCH   1  18
ATOM     18  C   UNL     1       1.404   9.227  18.426  0.00  0.00    +0.000 C 
BRANCH  18  19
ATOM     19  C   UNL     1       0.405  10.040  19.259  0.00  0.00    +0.000 C 
BRANCH  19  20
ATOM     20  C   UNL     1       1.014  10.636  20.535  0.00  0.00    +0.000 C 
BRANCH  20  23
ATOM     21  O   UNL     1      -0.095  10.446  23.070  0.00  0.00    +0.000 OA
ATOM     22  C   UNL     1      -0.449  11.397  22.386  0.00  0.00    +0.000 C 
ATOM     23  N   UNL     1       0.059  11.545  21.128  0.00  0.00    +0.000 N 
ATOM     24  H   UNL     1      -0.222  12.333  20.532  0.00  0.00    +0.000 HD
BRANCH  22  25
ATOM     25  C   UNL     1      -1.413  12.383  22.961  0.00  0.00    +0.000 A 
ATOM     26  C   UNL     1      -1.063  13.744  23.025  0.00  0.00    +0.000 A 
ATOM     27  N   UNL     1      -1.933  14.659  23.529  0.00  0.00    +0.000 NA
ATOM     28  C   UNL     1      -3.166  14.313  23.984  0.00  0.00    +0.000 A 
ATOM     29 CL   UNL     1      -4.223  15.563  24.608  0.00  0.00    +0.000 Cl
ATOM     30  C   UNL     1      -3.557  12.971  23.953  0.00  0.00    +0.000 A 
ATOM     31 CL   UNL     1      -5.144  12.466  24.538  0.00  0.00    +0.000 Cl
ATOM     32  C   UNL     1      -2.686  12.013  23.445  0.00  0.00    +0.000 A 
ENDBRANCH  22  25
ENDBRANCH  20  23
ENDBRANCH  19  20
ENDBRANCH  18  19
ENDBRANCH   1  18
TORSDOF 7
ENDMDL
MODEL 8
REMARK VINA RESULT:      -8.3      1.448      3.643
REMARK  Name = 
REMARK  7 active torsions:
REMARK  status: ('A' for Active; 'I' for Inactive)
REMARK    1  A    between atoms: C_2  and  C_23
REMARK    2  A    between atoms: N_3  and  C_4
REMARK    3  A    between atoms: C_4  and  C_5
REMARK    4  A    between atoms: C_5  and  C_6
REMARK    5  A    between atoms: C_6  and  C_7
REMARK    6  A    between atoms: C_7  and  N_8
REMARK    7  A    between atoms: N_8  and  C_9
REMARK                            x       y       z     vdW  Elec       q    Type
REMARK                         _______ _______ _______ _____ _____    ______ ____
ROOT
ATOM      1  C   UNL     1       1.869   8.014  17.876  0.00  0.00    +0.000 C 
ENDROOT
BRANCH   1   2
ATOM      2  N   UNL     1       2.828   7.213  18.614  0.00  0.00    +0.000 N 
ATOM      3  H   UNL     1       3.199   7.670  19.450  0.00  0.00    +0.000 HD
BRANCH   2   4
ATOM      4  C   UNL     1       3.240   5.854  18.303  0.00  0.00    +0.000 A 
ATOM      5  C   UNL     1       4.222   5.524  17.278  0.00  0.00    +0.000 A 
ATOM      6  C   UNL     1       4.520   4.155  17.035  0.00  0.00    +0.000 A 
ATOM      7  N   UNL     1       3.903   3.186  17.741  0.00  0.00    +0.000 NA
ATOM      8  C   UNL     1       3.012   3.432  18.718  0.00  0.00    +0.000 A 
ATOM      9  C   UNL     1       2.462   2.339  19.399  0.00  0.00    +0.000 A 
ATOM     10  C   UNL     1       1.537   2.534  20.416  0.00  0.00    +0.000 A 
ATOM     11  C   UNL     1       1.151   3.825  20.758  0.00  0.00    +0.000 A 
ATOM     12  C   UNL     1       1.687   4.928  20.083  0.00  0.00    +0.000 A 
ATOM     13  C   UNL     1       2.642   4.763  19.038  0.00  0.00    +0.000 A 
ATOM     14  C   UNL     1       5.490   3.684  15.974  0.00  0.00    +0.000 C 
ATOM     15  C   UNL     1       6.349   4.786  15.362  0.00  0.00    +0.000 C 
ATOM     16  C   UNL     1       5.506   6.008  15.113  0.00  0.00    +0.000 C 
ATOM     17  C   UNL     1       5.002   6.546  16.447  0.00  0.00    +0.000 C 
ENDBRANCH   2   4
ENDBRANCH   1   2
BRANCH   1  18
ATOM     18  C   UNL     1       1.834   9.489  18.286  0.00  0.00    +0.000 C 
BRANCH  18  19
ATOM     19  C   UNL     1       0.505   9.928  18.914  0.00  0.00    +0.000 C 
BRANCH  19  20
ATOM     20  C   UNL     1       0.601  10.196  20.423  0.00  0.00    +0.000 C 
BRANCH  20  23
ATOM     21  O   UNL     1      -0.189  10.845  23.000  0.00  0.00    +0.000 OA
ATOM     22  C   UNL     1      -0.772  11.415  22.088  0.00  0.00    +0.000 C 
ATOM     23  N   UNL     1      -0.432  11.136  20.796  0.00  0.00    +0.000 N 
ATOM     24  H   UNL     1      -0.907  11.599  20.011  0.00  0.00    +0.000 HD
BRANCH  22  25
ATOM     25  C   UNL     1      -1.830  12.417  22.420  0.00  0.00    +0.000 A 
ATOM     26  C   UNL     1      -2.904  12.616  21.533  0.00  0.00    +0.000 A 
ATOM     27  N   UNL     1      -3.884  13.510  21.824  0.00  0.00    +0.000 NA
ATOM     28  C   UNL     1      -3.882  14.242  22.970  0.00  0.00    +0.000 A 
ATOM     29 CL   UNL     1      -5.195  15.364  23.265  0.00  0.00    +0.000 Cl
ATOM     30  C   UNL     1      -2.831  14.088  23.879  0.00  0.00    +0.000 A 
ATOM     31 CL   UNL     1      -2.775  15.018  25.379  0.00  0.00    +0.000 Cl
ATOM     32  C   UNL     1      -1.812  13.182  23.605  0.00  0.00    +0.000 A 
ENDBRANCH  22  25
ENDBRANCH  20  23
ENDBRANCH  19  20
ENDBRANCH  18  19
ENDBRANCH   1  18
TORSDOF 7
ENDMDL
MODEL 9
REMARK VINA RESULT:      -8.2      3.383      5.007
REMARK  Name = 
REMARK  7 active torsions:
REMARK  status: ('A' for Active; 'I' for Inactive)
REMARK    1  A    between atoms: C_2  and  C_23
REMARK    2  A    between atoms: N_3  and  C_4
REMARK    3  A    between atoms: C_4  and  C_5
REMARK    4  A    between atoms: C_5  and  C_6
REMARK    5  A    between atoms: C_6  and  C_7
REMARK    6  A    between atoms: C_7  and  N_8
REMARK    7  A    between atoms: N_8  and  C_9
REMARK                            x       y       z     vdW  Elec       q    Type
REMARK                         _______ _______ _______ _____ _____    ______ ____
ROOT
ATOM      1  C   UNL     1       1.857   7.985  19.437  0.00  0.00    +0.000 C 
ENDROOT
BRANCH   1   2
ATOM      2  N   UNL     1       2.845   6.973  19.767  0.00  0.00    +0.000 N 
ATOM      3  H   UNL     1       3.353   7.153  20.635  0.00  0.00    +0.000 HD
BRANCH   2   4
ATOM      4  C   UNL     1       3.113   5.753  19.023  0.00  0.00    +0.000 A 
ATOM      5  C   UNL     1       3.960   5.702  17.840  0.00  0.00    +0.000 A 
ATOM      6  C   UNL     1       4.122   4.457  17.171  0.00  0.00    +0.000 A 
ATOM      7  N   UNL     1       3.501   3.351  17.628  0.00  0.00    +0.000 NA
ATOM      8  C   UNL     1       2.732   3.333  18.731  0.00  0.00    +0.000 A 
ATOM      9  C   UNL     1       2.165   2.113  19.119  0.00  0.00    +0.000 A 
ATOM     10  C   UNL     1       1.362   2.036  20.250  0.00  0.00    +0.000 A 
ATOM     11  C   UNL     1       1.117   3.180  21.000  0.00  0.00    +0.000 A 
ATOM     12  C   UNL     1       1.671   4.410  20.622  0.00  0.00    +0.000 A 
ATOM     13  C   UNL     1       2.504   4.522  19.470  0.00  0.00    +0.000 A 
ATOM     14  C   UNL     1       4.942   4.281  15.912  0.00  0.00    +0.000 C 
ATOM     15  C   UNL     1       5.824   5.475  15.555  0.00  0.00    +0.000 C 
ATOM     16  C   UNL     1       5.062   6.753  15.778  0.00  0.00    +0.000 C 
ATOM     17  C   UNL     1       4.735   6.888  17.261  0.00  0.00    +0.000 C 
ENDBRANCH   2   4
ENDBRANCH   1   2
BRANCH   1  18
ATOM     18  C   UNL     1       1.272   8.712  20.651  0.00  0.00    +0.000 C 
BRANCH  18  19
ATOM     19  C   UNL     1      -0.092   9.363  20.387  0.00  0.00    +0.000 C 
BRANCH  19  20
ATOM     20  C   UNL     1      -0.038  10.502  19.360  0.00  0.00    +0.000 C 
BRANCH  20  23
ATOM     21  O   UNL     1      -1.918  10.081  17.366  0.00  0.00    +0.000 OA
ATOM     22  C   UNL     1      -2.229  10.859  18.258  0.00  0.00    +0.000 C 
ATOM     23  N   UNL     1      -1.346  11.110  19.267  0.00  0.00    +0.000 N 
ATOM     24  H   UNL     1      -1.580  11.760  20.028  0.00  0.00    +0.000 HD
BRANCH  22  25
ATOM     25  C   UNL     1      -3.581  11.494  18.225  0.00  0.00    +0.000 A 
ATOM     26  C   UNL     1      -4.348  11.437  17.046  0.00  0.00    +0.000 A 
ATOM     27  N   UNL     1      -5.587  11.994  17.000  0.00  0.00    +0.000 NA
ATOM     28  C   UNL     1      -6.142  12.618  18.073  0.00  0.00    +0.000 A 
ATOM     29 CL   UNL     1      -7.750  13.298  17.923  0.00  0.00    +0.000 Cl
ATOM     30  C   UNL     1      -5.415  12.710  19.264  0.00  0.00    +0.000 A 
ATOM     31 CL   UNL     1      -6.086  13.516  20.685  0.00  0.00    +0.000 Cl
ATOM     32  C   UNL     1      -4.144  12.153  19.338  0.00  0.00    +0.000 A 
ENDBRANCH  22  25
ENDBRANCH  20  23
ENDBRANCH  19  20
ENDBRANCH  18  19
ENDBRANCH   1  18
TORSDOF 7
ENDMDL
