MODEL 1
REMARK VINA RESULT:      -7.9      0.000      0.000
REMARK  Name = 
REMARK  11 active torsions:
REMARK  status: ('A' for Active; 'I' for Inactive)
REMARK    1  A    between atoms: C_1  and  C_2
REMARK    2  A    between atoms: C_2  and  O_3
REMARK    3  A    between atoms: O_3  and  C_4
REMARK    4  A    between atoms: C_7  and  C_8
REMARK    5  A    between atoms: C_7  and  C_10
REMARK    6  A    between atoms: C_8  and  S_9
REMARK    7  A    between atoms: N_12  and  C_13
REMARK    8  A    between atoms: C_13  and  C_14
REMARK    9  A    between atoms: C_13  and  C_21
REMARK   10  A    between atoms: C_14  and  C_15
REMARK   11  A    between atoms: N_23  and  C_24
REMARK                            x       y       z     vdW  Elec       q    Type
REMARK                         _______ _______ _______ _____ _____    ______ ____
ROOT
ATOM      1  C   UNL     1       2.645   7.129  18.965  0.00  0.00    +0.000 C 
ENDROOT
BRANCH   1   4
ATOM      2  C   UNL     1       4.793   5.880  18.603  0.00  0.00    +0.000 C 
ATOM      3  O   UNL     1       4.831   5.505  19.773  0.00  0.00    +0.000 OA
ATOM      4  N   UNL     1       3.734   6.616  18.122  0.00  0.00    +0.000 N 
ATOM      5  H   UNL     1       3.622   6.786  17.127  0.00  0.00    +0.000 HD
BRANCH   2   9
ATOM      6  C   UNL     1       8.222   7.398  18.081  0.00  0.00    +0.000 C 
ATOM      7  C   UNL     1       7.937   6.211  19.002  0.00  0.00    +0.000 C 
ATOM      8  C   UNL     1       7.193   5.080  18.294  0.00  0.00    +0.000 C 
ATOM      9  C   UNL     1       5.892   5.524  17.568  0.00  0.00    +0.000 C 
ATOM     10  C   UNL     1       6.214   6.751  16.676  0.00  0.00    +0.000 C 
ATOM     11  C   UNL     1       6.915   7.880  17.441  0.00  0.00    +0.000 C 
BRANCH   6  12
ATOM     12  O   UNL     1       8.793   8.499  18.799  0.00  0.00    +0.000 OA
BRANCH  12  14
ATOM     13  C   UNL     1       9.437  10.811  18.792  0.00  0.00    +0.000 C 
ATOM     14  C   UNL     1       8.490   9.771  18.225  0.00  0.00    +0.000 C 
ENDBRANCH  12  14
ENDBRANCH   6  12
BRANCH   9  15
ATOM     15  C   UNL     1       5.314   4.329  16.760  0.00  0.00    +0.000 C 
BRANCH  15  16
ATOM     16  S   UNL     1       6.066   3.980  15.131  0.00  0.00    +0.000 S 
ATOM     17  H   UNL     1       7.028   4.912  15.187  0.00  0.00    +0.000 HD
ENDBRANCH  15  16
ENDBRANCH   9  15
ENDBRANCH   2   9
ENDBRANCH   1   4
BRANCH   1  18
ATOM     18  C   UNL     1       1.995   5.934  19.721  0.00  0.00    +0.000 C 
ATOM     19  O   UNL     1       1.526   6.074  20.849  0.00  0.00    +0.000 OA
ATOM     20  N   UNL     1       1.958   4.740  19.032  0.00  0.00    +0.000 N 
ATOM     21  H   UNL     1       2.484   4.669  18.173  0.00  0.00    +0.000 HD
BRANCH  20  22
ATOM     22  C   UNL     1       1.547   3.476  19.647  0.00  0.00    +0.000 C 
ATOM     23  C   UNL     1       1.156   2.456  18.568  0.00  0.00    +0.000 C 
ATOM     24  C   UNL     1       2.355   1.959  17.757  0.00  0.00    +0.000 C 
ATOM     25  C   UNL     1       3.467   1.422  18.653  0.00  0.00    +0.000 C 
ATOM     26  C   UNL     1       3.864   2.414  19.741  0.00  0.00    +0.000 C 
ATOM     27  C   UNL     1       2.655   2.898  20.543  0.00  0.00    +0.000 C 
ENDBRANCH  20  22
ENDBRANCH   1  18
BRANCH   1  28
ATOM     28  C   UNL     1       1.615   7.958  18.168  0.00  0.00    +0.000 C 
BRANCH  28  29
ATOM     29  C   UNL     1       1.358   9.395  18.577  0.00  0.00    +0.000 A 
ATOM     30  C   UNL     1       0.410   9.781  19.534  0.00  0.00    +0.000 A 
ATOM     31  C   UNL     1       0.268  11.118  19.910  0.00  0.00    +0.000 A 
ATOM     32  C   UNL     1       1.057  12.097  19.317  0.00  0.00    +0.000 A 
ATOM     33  C   UNL     1       1.972  11.741  18.331  0.00  0.00    +0.000 A 
ATOM     34  C   UNL     1       2.117  10.402  17.959  0.00  0.00    +0.000 A 
ENDBRANCH  28  29
ENDBRANCH   1  28
TORSDOF 10
ENDMDL
MODEL 2
REMARK VINA RESULT:      -7.4      2.687      6.478
REMARK  Name = 
REMARK  11 active torsions:
REMARK  status: ('A' for Active; 'I' for Inactive)
REMARK    1  A    between atoms: C_1  and  C_2
REMARK    2  A    between atoms: C_2  and  O_3
REMARK    3  A    between atoms: O_3  and  C_4
REMARK    4  A    between atoms: C_7  and  C_8
REMARK    5  A    between atoms: C_7  and  C_10
REMARK    6  A    between atoms: C_8  and  S_9
REMARK    7  A    between atoms: N_12  and  C_13
REMARK    8  A    between atoms: C_13  and  C_14
REMARK    9  A    between atoms: C_13  and  C_21
REMARK   10  A    between atoms: C_14  and  C_15
REMARK   11  A    between atoms: N_23  and  C_24
REMARK                            x       y       z     vdW  Elec       q    Type
REMARK                         _______ _______ _______ _____ _____    ______ ____
ROOT
ATOM      1  C   UNL     1       2.229   7.003  18.682  0.00  0.00    +0.000 C 
ENDROOT
BRANCH   1   4
ATOM      2  C   UNL     1       3.997   5.444  17.818  0.00  0.00    +0.000 C 
ATOM      3  O   UNL     1       3.163   4.614  17.462  0.00  0.00    +0.000 OA
ATOM      4  N   UNL     1       3.619   6.653  18.358  0.00  0.00    +0.000 N 
ATOM      5  H   UNL     1       4.294   7.398  18.500  0.00  0.00    +0.000 HD
BRANCH   2   9
ATOM      6  C   UNL     1       6.017   4.702  14.703  0.00  0.00    +0.000 C 
ATOM      7  C   UNL     1       5.718   6.110  15.220  0.00  0.00    +0.000 C 
ATOM      8  C   UNL     1       6.114   6.296  16.684  0.00  0.00    +0.000 C 
ATOM      9  C   UNL     1       5.524   5.230  17.649  0.00  0.00    +0.000 C 
ATOM     10  C   UNL     1       5.814   3.820  17.070  0.00  0.00    +0.000 C 
ATOM     11  C   UNL     1       5.354   3.665  15.616  0.00  0.00    +0.000 C 
BRANCH   6  12
ATOM     12  O   UNL     1       5.510   4.508  13.375  0.00  0.00    +0.000 OA
BRANCH  12  14
ATOM     13  C   UNL     1       5.143   2.882  11.650  0.00  0.00    +0.000 C 
ATOM     14  C   UNL     1       6.110   3.408  12.691  0.00  0.00    +0.000 C 
ENDBRANCH  12  14
ENDBRANCH   6  12
BRANCH   9  15
ATOM     15  C   UNL     1       6.120   5.429  19.070  0.00  0.00    +0.000 C 
BRANCH  15  16
ATOM     16  S   UNL     1       7.883   5.901  19.180  0.00  0.00    +0.000 S 
ATOM     17  H   UNL     1       8.344   5.038  18.262  0.00  0.00    +0.000 HD
ENDBRANCH  15  16
ENDBRANCH   9  15
ENDBRANCH   2   9
ENDBRANCH   1   4
BRANCH   1  18
ATOM     18  C   UNL     1       2.007   8.509  18.360  0.00  0.00    +0.000 C 
ATOM     19  O   UNL     1       2.387   8.995  17.296  0.00  0.00    +0.000 OA
ATOM     20  N   UNL     1       1.339   9.235  19.324  0.00  0.00    +0.000 N 
ATOM     21  H   UNL     1       1.183   8.803  20.223  0.00  0.00    +0.000 HD
BRANCH  20  22
ATOM     22  C   UNL     1       1.198  10.692  19.271  0.00  0.00    +0.000 C 
ATOM     23  C   UNL     1      -0.068  11.081  18.495  0.00  0.00    +0.000 C 
ATOM     24  C   UNL     1      -1.356  10.735  19.246  0.00  0.00    +0.000 C 
ATOM     25  C   UNL     1      -1.368  11.316  20.658  0.00  0.00    +0.000 C 
ATOM     26  C   UNL     1      -0.112  10.951  21.444  0.00  0.00    +0.000 C 
ATOM     27  C   UNL     1       1.164  11.306  20.680  0.00  0.00    +0.000 C 
ENDBRANCH  20  22
ENDBRANCH   1  18
BRANCH   1  28
ATOM     28  C   UNL     1       1.850   6.646  20.136  0.00  0.00    +0.000 C 
BRANCH  28  29
ATOM     29  C   UNL     1       1.749   5.184  20.527  0.00  0.00    +0.000 A 
ATOM     30  C   UNL     1       2.510   4.588  21.541  0.00  0.00    +0.000 A 
ATOM     31  C   UNL     1       2.323   3.251  21.892  0.00  0.00    +0.000 A 
ATOM     32  C   UNL     1       1.384   2.478  21.219  0.00  0.00    +0.000 A 
ATOM     33  C   UNL     1       0.650   3.037  20.178  0.00  0.00    +0.000 A 
ATOM     34  C   UNL     1       0.834   4.377  19.830  0.00  0.00    +0.000 A 
ENDBRANCH  28  29
ENDBRANCH   1  28
TORSDOF 10
ENDMDL
MODEL 3
REMARK VINA RESULT:      -7.4      2.279      3.790
REMARK  Name = 
REMARK  11 active torsions:
REMARK  status: ('A' for Active; 'I' for Inactive)
REMARK    1  A    between atoms: C_1  and  C_2
REMARK    2  A    between atoms: C_2  and  O_3
REMARK    3  A    between atoms: O_3  and  C_4
REMARK    4  A    between atoms: C_7  and  C_8
REMARK    5  A    between atoms: C_7  and  C_10
REMARK    6  A    between atoms: C_8  and  S_9
REMARK    7  A    between atoms: N_12  and  C_13
REMARK    8  A    between atoms: C_13  and  C_14
REMARK    9  A    between atoms: C_13  and  C_21
REMARK   10  A    between atoms: C_14  and  C_15
REMARK   11  A    between atoms: N_23  and  C_24
REMARK                            x       y       z     vdW  Elec       q    Type
REMARK                         _______ _______ _______ _____ _____    ______ ____
ROOT
ATOM      1  C   UNL     1       3.164   6.709  18.384  0.00  0.00    +0.000 C 
ENDROOT
BRANCH   1   4
ATOM      2  C   UNL     1       5.558   5.973  18.218  0.00  0.00    +0.000 C 
ATOM      3  O   UNL     1       5.516   5.417  19.313  0.00  0.00    +0.000 OA
ATOM      4  N   UNL     1       4.441   6.565  17.672  0.00  0.00    +0.000 N 
ATOM      5  H   UNL     1       4.433   6.878  16.706  0.00  0.00    +0.000 HD
BRANCH   2   9
ATOM      6  C   UNL     1       6.215   4.483  14.800  0.00  0.00    +0.000 C 
ATOM      7  C   UNL     1       5.669   5.892  15.034  0.00  0.00    +0.000 C 
ATOM      8  C   UNL     1       6.541   6.711  15.985  0.00  0.00    +0.000 C 
ATOM      9  C   UNL     1       6.838   6.015  17.343  0.00  0.00    +0.000 C 
ATOM     10  C   UNL     1       7.352   4.578  17.063  0.00  0.00    +0.000 C 
ATOM     11  C   UNL     1       6.420   3.779  16.145  0.00  0.00    +0.000 C 
BRANCH   6  12
ATOM     12  O   UNL     1       5.311   3.689  14.020  0.00  0.00    +0.000 OA
BRANCH  12  14
ATOM     13  C   UNL     1       7.002   3.743  12.319  0.00  0.00    +0.000 C 
ATOM     14  C   UNL     1       5.516   3.810  12.612  0.00  0.00    +0.000 C 
ENDBRANCH  12  14
ENDBRANCH   6  12
BRANCH   9  15
ATOM     15  C   UNL     1       7.854   6.868  18.153  0.00  0.00    +0.000 C 
BRANCH  15  16
ATOM     16  S   UNL     1       7.946   8.652  17.764  0.00  0.00    +0.000 S 
ATOM     17  H   UNL     1       7.052   9.067  18.673  0.00  0.00    +0.000 HD
ENDBRANCH  15  16
ENDBRANCH   9  15
ENDBRANCH   2   9
ENDBRANCH   1   4
BRANCH   1  18
ATOM     18  C   UNL     1       2.347   5.396  18.212  0.00  0.00    +0.000 C 
ATOM     19  O   UNL     1       1.284   5.384  17.593  0.00  0.00    +0.000 OA
ATOM     20  N   UNL     1       2.908   4.265  18.769  0.00  0.00    +0.000 N 
ATOM     21  H   UNL     1       3.706   4.379  19.377  0.00  0.00    +0.000 HD
BRANCH  20  22
ATOM     22  C   UNL     1       2.201   2.985  18.859  0.00  0.00    +0.000 C 
ATOM     23  C   UNL     1       3.099   1.922  19.507  0.00  0.00    +0.000 C 
ATOM     24  C   UNL     1       3.342   2.177  20.997  0.00  0.00    +0.000 C 
ATOM     25  C   UNL     1       2.035   2.347  21.767  0.00  0.00    +0.000 C 
ATOM     26  C   UNL     1       1.122   3.392  21.134  0.00  0.00    +0.000 C 
ATOM     27  C   UNL     1       0.888   3.120  19.647  0.00  0.00    +0.000 C 
ENDBRANCH  20  22
ENDBRANCH   1  18
BRANCH   1  28
ATOM     28  C   UNL     1       2.374   7.960  17.940  0.00  0.00    +0.000 C 
BRANCH  28  29
ATOM     29  C   UNL     1       1.586   8.734  18.980  0.00  0.00    +0.000 A 
ATOM     30  C   UNL     1       1.493   8.365  20.328  0.00  0.00    +0.000 A 
ATOM     31  C   UNL     1       0.801   9.157  21.246  0.00  0.00    +0.000 A 
ATOM     32  C   UNL     1       0.169  10.322  20.825  0.00  0.00    +0.000 A 
ATOM     33  C   UNL     1       0.209  10.681  19.482  0.00  0.00    +0.000 A 
ATOM     34  C   UNL     1       0.906   9.891  18.565  0.00  0.00    +0.000 A 
ENDBRANCH  28  29
ENDBRANCH   1  28
TORSDOF 10
ENDMDL
MODEL 4
REMARK VINA RESULT:      -7.3      1.181      1.285
REMARK  Name = 
REMARK  11 active torsions:
REMARK  status: ('A' for Active; 'I' for Inactive)
REMARK    1  A    between atoms: C_1  and  C_2
REMARK    2  A    between atoms: C_2  and  O_3
REMARK    3  A    between atoms: O_3  and  C_4
REMARK    4  A    between atoms: C_7  and  C_8
REMARK    5  A    between atoms: C_7  and  C_10
REMARK    6  A    between atoms: C_8  and  S_9
REMARK    7  A    between atoms: N_12  and  C_13
REMARK    8  A    between atoms: C_13  and  C_14
REMARK    9  A    between atoms: C_13  and  C_21
REMARK   10  A    between atoms: C_14  and  C_15
REMARK   11  A    between atoms: N_23  and  C_24
REMARK                            x       y       z     vdW  Elec       q    Type
REMARK                         _______ _______ _______ _____ _____    ______ ____
ROOT
ATOM      1  C   UNL     1       2.957   6.916  18.440  0.00  0.00    +0.000 C 
ENDROOT
BRANCH   1   4
ATOM      2  C   UNL     1       5.123   5.662  18.239  0.00  0.00    +0.000 C 
ATOM      3  O   UNL     1       4.939   5.073  19.302  0.00  0.00    +0.000 OA
ATOM      4  N   UNL     1       4.178   6.522  17.725  0.00  0.00    +0.000 N 
ATOM      5  H   UNL     1       4.256   6.881  16.778  0.00  0.00    +0.000 HD
BRANCH   2   9
ATOM      6  C   UNL     1       8.396   7.564  18.237  0.00  0.00    +0.000 C 
ATOM      7  C   UNL     1       8.119   6.329  19.095  0.00  0.00    +0.000 C 
ATOM      8  C   UNL     1       7.617   5.142  18.274  0.00  0.00    +0.000 C 
ATOM      9  C   UNL     1       6.392   5.458  17.371  0.00  0.00    +0.000 C 
ATOM     10  C   UNL     1       6.697   6.737  16.548  0.00  0.00    +0.000 C 
ATOM     11  C   UNL     1       7.148   7.915  17.419  0.00  0.00    +0.000 C 
BRANCH   6  12
ATOM     12  O   UNL     1       8.729   8.703  19.043  0.00  0.00    +0.000 OA
BRANCH  12  14
ATOM     13  C   UNL     1       9.421  10.997  19.157  0.00  0.00    +0.000 C 
ATOM     14  C   UNL     1       8.758   9.929  18.311  0.00  0.00    +0.000 C 
ENDBRANCH  12  14
ENDBRANCH   6  12
BRANCH   9  15
ATOM     15  C   UNL     1       6.076   4.229  16.475  0.00  0.00    +0.000 C 
BRANCH  15  16
ATOM     16  S   UNL     1       5.788   4.541  14.697  0.00  0.00    +0.000 S 
ATOM     17  H   UNL     1       6.741   5.470  14.534  0.00  0.00    +0.000 HD
ENDBRANCH  15  16
ENDBRANCH   9  15
ENDBRANCH   2   9
ENDBRANCH   1   4
BRANCH   1  18
ATOM     18  C   UNL     1       2.007   5.685  18.520  0.00  0.00    +0.000 C 
ATOM     19  O   UNL     1       1.358   5.318  17.541  0.00  0.00    +0.000 OA
ATOM     20  N   UNL     1       1.973   5.034  19.735  0.00  0.00    +0.000 N 
ATOM     21  H   UNL     1       2.422   5.474  20.525  0.00  0.00    +0.000 HD
BRANCH  20  22
ATOM     22  C   UNL     1       1.012   3.973  20.045  0.00  0.00    +0.000 C 
ATOM     23  C   UNL     1       0.989   2.925  18.922  0.00  0.00    +0.000 C 
ATOM     24  C   UNL     1       2.270   2.090  18.863  0.00  0.00    +0.000 C 
ATOM     25  C   UNL     1       2.601   1.455  20.211  0.00  0.00    +0.000 C 
ATOM     26  C   UNL     1       2.617   2.476  21.344  0.00  0.00    +0.000 C 
ATOM     27  C   UNL     1       1.329   3.299  21.390  0.00  0.00    +0.000 C 
ENDBRANCH  20  22
ENDBRANCH   1  18
BRANCH   1  28
ATOM     28  C   UNL     1       2.273   8.152  17.815  0.00  0.00    +0.000 C 
BRANCH  28  29
ATOM     29  C   UNL     1       1.308   8.960  18.661  0.00  0.00    +0.000 A 
ATOM     30  C   UNL     1       1.272   8.924  20.061  0.00  0.00    +0.000 A 
ATOM     31  C   UNL     1       0.399   9.741  20.781  0.00  0.00    +0.000 A 
ATOM     32  C   UNL     1      -0.471  10.593  20.111  0.00  0.00    +0.000 A 
ATOM     33  C   UNL     1      -0.484  10.610  18.720  0.00  0.00    +0.000 A 
ATOM     34  C   UNL     1       0.393   9.796  18.000  0.00  0.00    +0.000 A 
ENDBRANCH  28  29
ENDBRANCH   1  28
TORSDOF 10
ENDMDL
MODEL 5
REMARK VINA RESULT:      -7.3      2.205      3.617
REMARK  Name = 
REMARK  11 active torsions:
REMARK  status: ('A' for Active; 'I' for Inactive)
REMARK    1  A    between atoms: C_1  and  C_2
REMARK    2  A    between atoms: C_2  and  O_3
REMARK    3  A    between atoms: O_3  and  C_4
REMARK    4  A    between atoms: C_7  and  C_8
REMARK    5  A    between atoms: C_7  and  C_10
REMARK    6  A    between atoms: C_8  and  S_9
REMARK    7  A    between atoms: N_12  and  C_13
REMARK    8  A    between atoms: C_13  and  C_14
REMARK    9  A    between atoms: C_13  and  C_21
REMARK   10  A    between atoms: C_14  and  C_15
REMARK   11  A    between atoms: N_23  and  C_24
REMARK                            x       y       z     vdW  Elec       q    Type
REMARK                         _______ _______ _______ _____ _____    ______ ____
ROOT
ATOM      1  C   UNL     1       3.125   6.853  18.541  0.00  0.00    +0.000 C 
ENDROOT
BRANCH   1   4
ATOM      2  C   UNL     1       5.473   6.007  18.271  0.00  0.00    +0.000 C 
ATOM      3  O   UNL     1       5.408   5.345  19.304  0.00  0.00    +0.000 OA
ATOM      4  N   UNL     1       4.387   6.713  17.803  0.00  0.00    +0.000 N 
ATOM      5  H   UNL     1       4.390   7.123  16.874  0.00  0.00    +0.000 HD
BRANCH   2   9
ATOM      6  C   UNL     1       6.068   4.704  14.766  0.00  0.00    +0.000 C 
ATOM      7  C   UNL     1       5.559   6.110  15.087  0.00  0.00    +0.000 C 
ATOM      8  C   UNL     1       6.458   6.850  16.077  0.00  0.00    +0.000 C 
ATOM      9  C   UNL     1       6.748   6.068  17.389  0.00  0.00    +0.000 C 
ATOM     10  C   UNL     1       7.223   4.638  17.021  0.00  0.00    +0.000 C 
ATOM     11  C   UNL     1       6.264   3.917  16.067  0.00  0.00    +0.000 C 
BRANCH   6  12
ATOM     12  O   UNL     1       5.138   3.980  13.950  0.00  0.00    +0.000 OA
BRANCH  12  14
ATOM     13  C   UNL     1       7.033   4.163  12.490  0.00  0.00    +0.000 C 
ATOM     14  C   UNL     1       5.717   3.459  12.752  0.00  0.00    +0.000 C 
ENDBRANCH  12  14
ENDBRANCH   6  12
BRANCH   9  15
ATOM     15  C   UNL     1       7.791   6.847  18.238  0.00  0.00    +0.000 C 
BRANCH  15  16
ATOM     16  S   UNL     1       8.048   8.612  17.836  0.00  0.00    +0.000 S 
ATOM     17  H   UNL     1       8.596   8.971  19.006  0.00  0.00    +0.000 HD
ENDBRANCH  15  16
ENDBRANCH   9  15
ENDBRANCH   2   9
ENDBRANCH   1   4
BRANCH   1  18
ATOM     18  C   UNL     1       2.370   5.493  18.500  0.00  0.00    +0.000 C 
ATOM     19  O   UNL     1       1.535   5.255  17.629  0.00  0.00    +0.000 OA
ATOM     20  N   UNL     1       2.722   4.583  19.476  0.00  0.00    +0.000 N 
ATOM     21  H   UNL     1       3.309   4.901  20.233  0.00  0.00    +0.000 HD
BRANCH  20  22
ATOM     22  C   UNL     1       1.996   3.331  19.698  0.00  0.00    +0.000 C 
ATOM     23  C   UNL     1       1.764   2.602  18.367  0.00  0.00    +0.000 C 
ATOM     24  C   UNL     1       3.054   2.037  17.767  0.00  0.00    +0.000 C 
ATOM     25  C   UNL     1       3.809   1.158  18.759  0.00  0.00    +0.000 C 
ATOM     26  C   UNL     1       4.040   1.859  20.094  0.00  0.00    +0.000 C 
ATOM     27  C   UNL     1       2.742   2.414  20.681  0.00  0.00    +0.000 C 
ENDBRANCH  20  22
ENDBRANCH   1  18
BRANCH   1  28
ATOM     28  C   UNL     1       2.262   8.026  18.025  0.00  0.00    +0.000 C 
BRANCH  28  29
ATOM     29  C   UNL     1       1.424   8.809  19.018  0.00  0.00    +0.000 A 
ATOM     30  C   UNL     1       0.630   9.911  18.678  0.00  0.00    +0.000 A 
ATOM     31  C   UNL     1      -0.166  10.548  19.631  0.00  0.00    +0.000 A 
ATOM     32  C   UNL     1      -0.163  10.107  20.950  0.00  0.00    +0.000 A 
ATOM     33  C   UNL     1       0.654   9.043  21.319  0.00  0.00    +0.000 A 
ATOM     34  C   UNL     1       1.446   8.403  20.363  0.00  0.00    +0.000 A 
ENDBRANCH  28  29
ENDBRANCH   1  28
TORSDOF 10
ENDMDL
MODEL 6
REMARK VINA RESULT:      -7.2      1.403      5.382
REMARK  Name = 
REMARK  11 active torsions:
REMARK  status: ('A' for Active; 'I' for Inactive)
REMARK    1  A    between atoms: C_1  and  C_2
REMARK    2  A    between atoms: C_2  and  O_3
REMARK    3  A    between atoms: O_3  and  C_4
REMARK    4  A    between atoms: C_7  and  C_8
REMARK    5  A    between atoms: C_7  and  C_10
REMARK    6  A    between atoms: C_8  and  S_9
REMARK    7  A    between atoms: N_12  and  C_13
REMARK    8  A    between atoms: C_13  and  C_14
REMARK    9  A    between atoms: C_13  and  C_21
REMARK   10  A    between atoms: C_14  and  C_15
REMARK   11  A    between atoms: N_23  and  C_24
REMARK                            x       y       z     vdW  Elec       q    Type
REMARK                         _______ _______ _______ _____ _____    ______ ____
ROOT
ATOM      1  C   UNL     1       2.292   6.720  18.339  0.00  0.00    +0.000 C 
ENDROOT
BRANCH   1   4
ATOM      2  C   UNL     1       4.637   5.829  18.241  0.00  0.00    +0.000 C 
ATOM      3  O   UNL     1       4.700   5.716  19.463  0.00  0.00    +0.000 OA
ATOM      4  N   UNL     1       3.482   6.247  17.619  0.00  0.00    +0.000 N 
ATOM      5  H   UNL     1       3.378   6.185  16.611  0.00  0.00    +0.000 HD
BRANCH   2   9
ATOM      6  C   UNL     1       8.138   7.261  18.079  0.00  0.00    +0.000 C 
ATOM      7  C   UNL     1       7.739   6.058  18.935  0.00  0.00    +0.000 C 
ATOM      8  C   UNL     1       7.034   4.969  18.128  0.00  0.00    +0.000 C 
ATOM      9  C   UNL     1       5.817   5.470  17.300  0.00  0.00    +0.000 C 
ATOM     10  C   UNL     1       6.252   6.711  16.478  0.00  0.00    +0.000 C 
ATOM     11  C   UNL     1       6.909   7.797  17.338  0.00  0.00    +0.000 C 
BRANCH   6  12
ATOM     12  O   UNL     1       8.669   8.325  18.880  0.00  0.00    +0.000 OA
BRANCH  12  14
ATOM     13  C   UNL     1       9.376  10.612  19.052  0.00  0.00    +0.000 C 
ATOM     14  C   UNL     1       8.550   9.611  18.270  0.00  0.00    +0.000 C 
ENDBRANCH  12  14
ENDBRANCH   6  12
BRANCH   9  15
ATOM     15  C   UNL     1       5.285   4.315  16.407  0.00  0.00    +0.000 C 
BRANCH  15  16
ATOM     16  S   UNL     1       6.113   4.053  14.798  0.00  0.00    +0.000 S 
ATOM     17  H   UNL     1       7.257   3.547  15.279  0.00  0.00    +0.000 HD
ENDBRANCH  15  16
ENDBRANCH   9  15
ENDBRANCH   2   9
ENDBRANCH   1   4
BRANCH   1  18
ATOM     18  C   UNL     1       2.191   8.264  18.175  0.00  0.00    +0.000 C 
ATOM     19  O   UNL     1       2.753   8.844  17.247  0.00  0.00    +0.000 OA
ATOM     20  N   UNL     1       1.415   8.916  19.112  0.00  0.00    +0.000 N 
ATOM     21  H   UNL     1       1.103   8.394  19.918  0.00  0.00    +0.000 HD
BRANCH  20  22
ATOM     22  C   UNL     1       1.351  10.375  19.219  0.00  0.00    +0.000 C 
ATOM     23  C   UNL     1       0.269  10.934  18.283  0.00  0.00    +0.000 C 
ATOM     24  C   UNL     1      -1.149  10.589  18.742  0.00  0.00    +0.000 C 
ATOM     25  C   UNL     1      -1.398  11.002  20.190  0.00  0.00    +0.000 C 
ATOM     26  C   UNL     1      -0.328  10.467  21.136  0.00  0.00    +0.000 C 
ATOM     27  C   UNL     1       1.083  10.823  20.665  0.00  0.00    +0.000 C 
ENDBRANCH  20  22
ENDBRANCH   1  18
BRANCH   1  28
ATOM     28  C   UNL     1       2.279   6.279  19.819  0.00  0.00    +0.000 C 
BRANCH  28  29
ATOM     29  C   UNL     1       1.885   4.853  20.153  0.00  0.00    +0.000 A 
ATOM     30  C   UNL     1       1.225   3.992  19.266  0.00  0.00    +0.000 A 
ATOM     31  C   UNL     1       0.947   2.670  19.616  0.00  0.00    +0.000 A 
ATOM     32  C   UNL     1       1.305   2.191  20.872  0.00  0.00    +0.000 A 
ATOM     33  C   UNL     1       1.918   3.043  21.785  0.00  0.00    +0.000 A 
ATOM     34  C   UNL     1       2.201   4.364  21.432  0.00  0.00    +0.000 A 
ENDBRANCH  28  29
ENDBRANCH   1  28
TORSDOF 10
ENDMDL
MODEL 7
REMARK VINA RESULT:      -7.0      2.280      3.804
REMARK  Name = 
REMARK  11 active torsions:
REMARK  status: ('A' for Active; 'I' for Inactive)
REMARK    1  A    between atoms: C_1  and  C_2
REMARK    2  A    between atoms: C_2  and  O_3
REMARK    3  A    between atoms: O_3  and  C_4
REMARK    4  A    between atoms: C_7  and  C_8
REMARK    5  A    between atoms: C_7  and  C_10
REMARK    6  A    between atoms: C_8  and  S_9
REMARK    7  A    between atoms: N_12  and  C_13
REMARK    8  A    between atoms: C_13  and  C_14
REMARK    9  A    between atoms: C_13  and  C_21
REMARK   10  A    between atoms: C_14  and  C_15
REMARK   11  A    between atoms: N_23  and  C_24
REMARK                            x       y       z     vdW  Elec       q    Type
REMARK                         _______ _______ _______ _____ _____    ______ ____
ROOT
ATOM      1  C   UNL     1       2.968   7.050  18.497  0.00  0.00    +0.000 C 
ENDROOT
BRANCH   1   4
ATOM      2  C   UNL     1       5.146   5.856  18.129  0.00  0.00    +0.000 C 
ATOM      3  O   UNL     1       4.882   5.006  18.977  0.00  0.00    +0.000 OA
ATOM      4  N   UNL     1       4.242   6.840  17.796  0.00  0.00    +0.000 N 
ATOM      5  H   UNL     1       4.392   7.438  16.990  0.00  0.00    +0.000 HD
BRANCH   2   9
ATOM      6  C   UNL     1       5.924   4.550  14.662  0.00  0.00    +0.000 C 
ATOM      7  C   UNL     1       5.453   5.975  14.960  0.00  0.00    +0.000 C 
ATOM      8  C   UNL     1       6.313   6.670  16.015  0.00  0.00    +0.000 C 
ATOM      9  C   UNL     1       6.479   5.869  17.337  0.00  0.00    +0.000 C 
ATOM     10  C   UNL     1       6.918   4.423  16.989  0.00  0.00    +0.000 C 
ATOM     11  C   UNL     1       5.998   3.748  15.966  0.00  0.00    +0.000 C 
BRANCH   6  12
ATOM     12  O   UNL     1       5.023   3.871  13.777  0.00  0.00    +0.000 OA
BRANCH  12  14
ATOM     13  C   UNL     1       4.533   3.236  11.516  0.00  0.00    +0.000 C 
ATOM     14  C   UNL     1       5.622   3.485  12.540  0.00  0.00    +0.000 C 
ENDBRANCH  12  14
ENDBRANCH   6  12
BRANCH   9  15
ATOM     15  C   UNL     1       7.493   6.599  18.262  0.00  0.00    +0.000 C 
BRANCH  15  16
ATOM     16  S   UNL     1       8.125   5.673  19.706  0.00  0.00    +0.000 S 
ATOM     17  H   UNL     1       8.036   6.671  20.596  0.00  0.00    +0.000 HD
ENDBRANCH  15  16
ENDBRANCH   9  15
ENDBRANCH   2   9
ENDBRANCH   1   4
BRANCH   1  18
ATOM     18  C   UNL     1       2.158   5.721  18.465  0.00  0.00    +0.000 C 
ATOM     19  O   UNL     1       1.715   5.271  17.409  0.00  0.00    +0.000 OA
ATOM     20  N   UNL     1       2.003   5.085  19.679  0.00  0.00    +0.000 N 
ATOM     21  H   UNL     1       2.271   5.583  20.515  0.00  0.00    +0.000 HD
BRANCH  20  22
ATOM     22  C   UNL     1       1.126   3.927  19.867  0.00  0.00    +0.000 C 
ATOM     23  C   UNL     1       1.373   2.884  18.769  0.00  0.00    +0.000 C 
ATOM     24  C   UNL     1       2.731   2.191  18.902  0.00  0.00    +0.000 C 
ATOM     25  C   UNL     1       2.934   1.594  20.292  0.00  0.00    +0.000 C 
ATOM     26  C   UNL     1       2.682   2.612  21.401  0.00  0.00    +0.000 C 
ATOM     27  C   UNL     1       1.320   3.292  21.254  0.00  0.00    +0.000 C 
ENDBRANCH  20  22
ENDBRANCH   1  18
BRANCH   1  28
ATOM     28  C   UNL     1       2.169   8.245  17.933  0.00  0.00    +0.000 C 
BRANCH  28  29
ATOM     29  C   UNL     1       1.274   9.033  18.870  0.00  0.00    +0.000 A 
ATOM     30  C   UNL     1       1.210   8.825  20.254  0.00  0.00    +0.000 A 
ATOM     31  C   UNL     1       0.410   9.628  21.068  0.00  0.00    +0.000 A 
ATOM     32  C   UNL     1      -0.360  10.641  20.507  0.00  0.00    +0.000 A 
ATOM     33  C   UNL     1      -0.347  10.834  19.130  0.00  0.00    +0.000 A 
ATOM     34  C   UNL     1       0.458  10.033  18.316  0.00  0.00    +0.000 A 
ENDBRANCH  28  29
ENDBRANCH   1  28
TORSDOF 10
ENDMDL
MODEL 8
REMARK VINA RESULT:      -6.9      3.206      6.987
REMARK  Name = 
REMARK  11 active torsions:
REMARK  status: ('A' for Active; 'I' for Inactive)
REMARK    1  A    between atoms: C_1  and  C_2
REMARK    2  A    between atoms: C_2  and  O_3
REMARK    3  A    between atoms: O_3  and  C_4
REMARK    4  A    between atoms: C_7  and  C_8
REMARK    5  A    between atoms: C_7  and  C_10
REMARK    6  A    between atoms: C_8  and  S_9
REMARK    7  A    between atoms: N_12  and  C_13
REMARK    8  A    between atoms: C_13  and  C_14
REMARK    9  A    between atoms: C_13  and  C_21
REMARK   10  A    between atoms: C_14  and  C_15
REMARK   11  A    between atoms: N_23  and  C_24
REMARK                            x       y       z     vdW  Elec       q    Type
REMARK                         _______ _______ _______ _____ _____    ______ ____
ROOT
ATOM      1  C   UNL     1       2.640   6.858  18.095  0.00  0.00    +0.000 C 
ENDROOT
BRANCH   1   4
ATOM      2  C   UNL     1       1.604   9.058  18.720  0.00  0.00    +0.000 C 
ATOM      3  O   UNL     1       1.848   9.543  17.618  0.00  0.00    +0.000 OA
ATOM      4  N   UNL     1       1.900   7.743  19.004  0.00  0.00    +0.000 N 
ATOM      5  H   UNL     1       1.554   7.299  19.850  0.00  0.00    +0.000 HD
BRANCH   2   9
ATOM      6  C   UNL     1      -1.207  11.588  18.546  0.00  0.00    +0.000 C 
ATOM      7  C   UNL     1      -1.413  10.083  18.729  0.00  0.00    +0.000 C 
ATOM      8  C   UNL     1      -0.609   9.516  19.898  0.00  0.00    +0.000 C 
ATOM      9  C   UNL     1       0.908   9.852  19.856  0.00  0.00    +0.000 C 
ATOM     10  C   UNL     1       1.074  11.378  19.631  0.00  0.00    +0.000 C 
ATOM     11  C   UNL     1       0.290  11.892  18.418  0.00  0.00    +0.000 C 
BRANCH   6  12
ATOM     12  O   UNL     1      -1.857  12.070  17.363  0.00  0.00    +0.000 OA
BRANCH  12  14
ATOM     13  C   UNL     1      -2.847  10.864  15.540  0.00  0.00    +0.000 C 
ATOM     14  C   UNL     1      -2.997  11.298  16.985  0.00  0.00    +0.000 C 
ENDBRANCH  12  14
ENDBRANCH   6  12
BRANCH   9  15
ATOM     15  C   UNL     1       1.585   9.362  21.167  0.00  0.00    +0.000 C 
BRANCH  15  16
ATOM     16  S   UNL     1       0.569   9.365  22.686  0.00  0.00    +0.000 S 
ATOM     17  H   UNL     1       1.093   8.263  23.240  0.00  0.00    +0.000 HD
ENDBRANCH  15  16
ENDBRANCH   9  15
ENDBRANCH   2   9
ENDBRANCH   1   4
BRANCH   1  18
ATOM     18  C   UNL     1       2.083   5.412  18.245  0.00  0.00    +0.000 C 
ATOM     19  O   UNL     1       1.260   4.962  17.449  0.00  0.00    +0.000 OA
ATOM     20  N   UNL     1       2.595   4.679  19.296  0.00  0.00    +0.000 N 
ATOM     21  H   UNL     1       3.157   5.160  19.982  0.00  0.00    +0.000 HD
BRANCH  20  22
ATOM     22  C   UNL     1       2.061   3.374  19.693  0.00  0.00    +0.000 C 
ATOM     23  C   UNL     1       1.888   2.470  18.465  0.00  0.00    +0.000 C 
ATOM     24  C   UNL     1       3.222   2.020  17.865  0.00  0.00    +0.000 C 
ATOM     25  C   UNL     1       4.129   1.374  18.909  0.00  0.00    +0.000 C 
ATOM     26  C   UNL     1       4.306   2.251  20.144  0.00  0.00    +0.000 C 
ATOM     27  C   UNL     1       2.964   2.689  20.732  0.00  0.00    +0.000 C 
ENDBRANCH  20  22
ENDBRANCH   1  18
BRANCH   1  28
ATOM     28  C   UNL     1       4.168   6.929  18.309  0.00  0.00    +0.000 C 
BRANCH  28  29
ATOM     29  C   UNL     1       5.069   6.074  17.438  0.00  0.00    +0.000 A 
ATOM     30  C   UNL     1       5.972   5.126  17.936  0.00  0.00    +0.000 A 
ATOM     31  C   UNL     1       6.727   4.328  17.075  0.00  0.00    +0.000 A 
ATOM     32  C   UNL     1       6.608   4.481  15.698  0.00  0.00    +0.000 A 
ATOM     33  C   UNL     1       5.752   5.450  15.184  0.00  0.00    +0.000 A 
ATOM     34  C   UNL     1       4.993   6.244  16.046  0.00  0.00    +0.000 A 
ENDBRANCH  28  29
ENDBRANCH   1  28
TORSDOF 10
ENDMDL
MODEL 9
REMARK VINA RESULT:      -6.9      2.968      6.947
REMARK  Name = 
REMARK  11 active torsions:
REMARK  status: ('A' for Active; 'I' for Inactive)
REMARK    1  A    between atoms: C_1  and  C_2
REMARK    2  A    between atoms: C_2  and  O_3
REMARK    3  A    between atoms: O_3  and  C_4
REMARK    4  A    between atoms: C_7  and  C_8
REMARK    5  A    between atoms: C_7  and  C_10
REMARK    6  A    between atoms: C_8  and  S_9
REMARK    7  A    between atoms: N_12  and  C_13
REMARK    8  A    between atoms: C_13  and  C_14
REMARK    9  A    between atoms: C_13  and  C_21
REMARK   10  A    between atoms: C_14  and  C_15
REMARK   11  A    between atoms: N_23  and  C_24
REMARK                            x       y       z     vdW  Elec       q    Type
REMARK                         _______ _______ _______ _____ _____    ______ ____
ROOT
ATOM      1  C   UNL     1       2.705   7.315  18.395  0.00  0.00    +0.000 C 
ENDROOT
BRANCH   1   4
ATOM      2  C   UNL     1       1.200   9.102  19.314  0.00  0.00    +0.000 C 
ATOM      3  O   UNL     1       1.373   8.724  20.470  0.00  0.00    +0.000 OA
ATOM      4  N   UNL     1       1.861   8.510  18.261  0.00  0.00    +0.000 N 
ATOM      5  H   UNL     1       1.845   8.923  17.333  0.00  0.00    +0.000 HD
BRANCH   2   9
ATOM      6  C   UNL     1       1.261  12.691  20.518  0.00  0.00    +0.000 C 
ATOM      7  C   UNL     1       2.012  12.183  19.286  0.00  0.00    +0.000 C 
ATOM      8  C   UNL     1       1.104  11.441  18.307  0.00  0.00    +0.000 C 
ATOM      9  C   UNL     1       0.275  10.291  18.946  0.00  0.00    +0.000 C 
ATOM     10  C   UNL     1      -0.438  10.836  20.211  0.00  0.00    +0.000 C 
ATOM     11  C   UNL     1       0.521  11.528  21.187  0.00  0.00    +0.000 C 
BRANCH   6  12
ATOM     12  O   UNL     1       2.156  13.258  21.484  0.00  0.00    +0.000 OA
BRANCH  12  14
ATOM     13  C   UNL     1       4.197  14.443  21.915  0.00  0.00    +0.000 C 
ATOM     14  C   UNL     1       3.074  14.199  20.927  0.00  0.00    +0.000 C 
ENDBRANCH  12  14
ENDBRANCH   6  12
BRANCH   9  15
ATOM     15  C   UNL     1      -0.718   9.721  17.895  0.00  0.00    +0.000 C 
BRANCH  15  16
ATOM     16  S   UNL     1      -2.248  10.673  17.588  0.00  0.00    +0.000 S 
ATOM     17  H   UNL     1      -1.923  11.123  16.368  0.00  0.00    +0.000 HD
ENDBRANCH  15  16
ENDBRANCH   9  15
ENDBRANCH   2   9
ENDBRANCH   1   4
BRANCH   1  18
ATOM     18  C   UNL     1       3.874   7.414  17.372  0.00  0.00    +0.000 C 
ATOM     19  O   UNL     1       3.682   7.803  16.221  0.00  0.00    +0.000 OA
ATOM     20  N   UNL     1       5.120   7.068  17.852  0.00  0.00    +0.000 N 
ATOM     21  H   UNL     1       5.176   6.628  18.760  0.00  0.00    +0.000 HD
BRANCH  20  22
ATOM     22  C   UNL     1       6.298   6.930  16.992  0.00  0.00    +0.000 C 
ATOM     23  C   UNL     1       7.584   7.085  17.816  0.00  0.00    +0.000 C 
ATOM     24  C   UNL     1       7.830   5.907  18.761  0.00  0.00    +0.000 C 
ATOM     25  C   UNL     1       7.795   4.569  18.028  0.00  0.00    +0.000 C 
ATOM     26  C   UNL     1       6.530   4.399  17.193  0.00  0.00    +0.000 C 
ATOM     27  C   UNL     1       6.302   5.583  16.252  0.00  0.00    +0.000 C 
ENDBRANCH  20  22
ENDBRANCH   1  18
BRANCH   1  28
ATOM     28  C   UNL     1       1.904   6.002  18.253  0.00  0.00    +0.000 C 
BRANCH  28  29
ATOM     29  C   UNL     1       2.230   4.844  19.176  0.00  0.00    +0.000 A 
ATOM     30  C   UNL     1       3.390   4.065  19.078  0.00  0.00    +0.000 A 
ATOM     31  C   UNL     1       3.659   3.052  19.999  0.00  0.00    +0.000 A 
ATOM     32  C   UNL     1       2.758   2.785  21.025  0.00  0.00    +0.000 A 
ATOM     33  C   UNL     1       1.578   3.516  21.112  0.00  0.00    +0.000 A 
ATOM     34  C   UNL     1       1.312   4.533  20.193  0.00  0.00    +0.000 A 
ENDBRANCH  28  29
ENDBRANCH   1  28
TORSDOF 10
ENDMDL
