MODEL 1
REMARK VINA RESULT:      -6.4      0.000      0.000
REMARK  Name = 
REMARK  7 active torsions:
REMARK  status: ('A' for Active; 'I' for Inactive)
REMARK    1  A    between atoms: C_1  and  C_2
REMARK    2  A    between atoms: C_5  and  C_6
REMARK    3  A    between atoms: C_7  and  S_8
REMARK    4  A    between atoms: S_8  and  N_11
REMARK    5  A    between atoms: C_14  and  C_15
REMARK    6  A    between atoms: C_15  and  C_16
REMARK    7  A    between atoms: C_15  and  C_23
REMARK                            x       y       z     vdW  Elec       q    Type
REMARK                         _______ _______ _______ _____ _____    ______ ____
ROOT
ATOM      1  N   UNL     1       3.906   5.276  18.590  0.00  0.00    +0.000 NA
ATOM      2  C   UNL     1       3.127   5.180  19.858  0.00  0.00    +0.000 C 
ATOM      3  C   UNL     1       1.657   5.528  19.634  0.00  0.00    +0.000 C 
ATOM      4  C   UNL     1       1.465   6.927  19.025  0.00  0.00    +0.000 C 
ATOM      5  C   UNL     1       2.228   6.917  17.686  0.00  0.00    +0.000 C 
ATOM      6  C   UNL     1       3.703   6.552  17.839  0.00  0.00    +0.000 C 
ENDROOT
BRANCH   1   7
ATOM      7  S   UNL     1       5.588   4.954  18.810  0.00  0.00    +0.000 S 
ATOM      8  O   UNL     1       5.743   3.518  18.926  0.00  0.00    +0.000 OA
ATOM      9  O   UNL     1       6.090   5.849  19.829  0.00  0.00    +0.000 OA
BRANCH   7  16
ATOM     10  C   UNL     1       5.532   3.591  15.756  0.00  0.00    +0.000 C 
ATOM     11  C   UNL     1       6.369   4.755  16.143  0.00  0.00    +0.000 A 
ATOM     12  N   UNL     1       7.158   5.342  15.230  0.00  0.00    +0.000 NA
ATOM     13  N   UNL     1       7.714   6.370  15.887  0.00  0.00    +0.000 N 
ATOM     14  C   UNL     1       7.345   6.454  17.202  0.00  0.00    +0.000 A 
ATOM     15  C   UNL     1       7.849   7.534  18.083  0.00  0.00    +0.000 C 
ATOM     16  C   UNL     1       6.469   5.400  17.396  0.00  0.00    +0.000 A 
ATOM     17  H   UNL     1       8.339   6.985  15.372  0.00  0.00    +0.000 HD
ENDBRANCH   7  16
ENDBRANCH   1   7
BRANCH   4  18
ATOM     18  C   UNL     1       1.876   8.123  19.953  0.00  0.00    +0.000 C 
BRANCH  18  19
ATOM     19  C   UNL     1       1.286   9.454  19.478  0.00  0.00    +0.000 A 
ATOM     20  C   UNL     1       2.073  10.418  18.824  0.00  0.00    +0.000 A 
ATOM     21  C   UNL     1       1.523  11.637  18.421  0.00  0.00    +0.000 A 
ATOM     22  C   UNL     1       0.177  11.900  18.656  0.00  0.00    +0.000 A 
ATOM     23 CL   UNL     1      -0.498  13.408  18.175  0.00  0.00    +0.000 Cl
ATOM     24  C   UNL     1      -0.625  10.950  19.281  0.00  0.00    +0.000 A 
ATOM     25  C   UNL     1      -0.075   9.731  19.688  0.00  0.00    +0.000 A 
ENDBRANCH  18  19
BRANCH  18  26
ATOM     26  C   UNL     1       1.520   7.914  21.433  0.00  0.00    +0.000 C 
ATOM     27  F   UNL     1       1.814   9.023  22.159  0.00  0.00    +0.000 F 
ATOM     28  F   UNL     1       0.185   7.706  21.567  0.00  0.00    +0.000 F 
ENDBRANCH  18  26
ENDBRANCH   4  18
TORSDOF 5
ENDMDL
MODEL 2
REMARK VINA RESULT:      -6.2      3.177      4.390
REMARK  Name = 
REMARK  7 active torsions:
REMARK  status: ('A' for Active; 'I' for Inactive)
REMARK    1  A    between atoms: C_1  and  C_2
REMARK    2  A    between atoms: C_5  and  C_6
REMARK    3  A    between atoms: C_7  and  S_8
REMARK    4  A    between atoms: S_8  and  N_11
REMARK    5  A    between atoms: C_14  and  C_15
REMARK    6  A    between atoms: C_15  and  C_16
REMARK    7  A    between atoms: C_15  and  C_23
REMARK                            x       y       z     vdW  Elec       q    Type
REMARK                         _______ _______ _______ _____ _____    ______ ____
ROOT
ATOM      1  N   UNL     1       2.236   6.628  19.346  0.00  0.00    +0.000 NA
ATOM      2  C   UNL     1       1.860   7.414  18.137  0.00  0.00    +0.000 C 
ATOM      3  C   UNL     1       2.160   8.899  18.325  0.00  0.00    +0.000 C 
ATOM      4  C   UNL     1       1.458   9.495  19.558  0.00  0.00    +0.000 C 
ATOM      5  C   UNL     1       1.962   8.684  20.767  0.00  0.00    +0.000 C 
ATOM      6  C   UNL     1       1.711   7.184  20.630  0.00  0.00    +0.000 C 
ENDROOT
BRANCH   1   7
ATOM      7  S   UNL     1       1.852   4.950  19.201  0.00  0.00    +0.000 S 
ATOM      8  O   UNL     1       1.458   4.713  17.827  0.00  0.00    +0.000 OA
ATOM      9  O   UNL     1       0.991   4.587  20.304  0.00  0.00    +0.000 OA
BRANCH   7  16
ATOM     10  C   UNL     1       2.402   2.506  21.417  0.00  0.00    +0.000 C 
ATOM     11  C   UNL     1       3.395   2.974  20.418  0.00  0.00    +0.000 A 
ATOM     12  N   UNL     1       4.601   2.390  20.352  0.00  0.00    +0.000 NA
ATOM     13  N   UNL     1       5.208   3.003  19.325  0.00  0.00    +0.000 N 
ATOM     14  C   UNL     1       4.457   3.987  18.742  0.00  0.00    +0.000 A 
ATOM     15  C   UNL     1       4.958   4.764  17.584  0.00  0.00    +0.000 C 
ATOM     16  C   UNL     1       3.266   3.993  19.447  0.00  0.00    +0.000 A 
ATOM     17  H   UNL     1       6.142   2.694  19.069  0.00  0.00    +0.000 HD
ENDBRANCH   7  16
ENDBRANCH   1   7
BRANCH   4  18
ATOM     18  C   UNL     1      -0.107   9.556  19.472  0.00  0.00    +0.000 C 
BRANCH  18  19
ATOM     19  C   UNL     1      -0.711  10.446  20.561  0.00  0.00    +0.000 A 
ATOM     20  C   UNL     1      -0.585  10.128  21.925  0.00  0.00    +0.000 A 
ATOM     21  C   UNL     1      -1.166  10.938  22.905  0.00  0.00    +0.000 A 
ATOM     22  C   UNL     1      -1.868  12.080  22.531  0.00  0.00    +0.000 A 
ATOM     23 CL   UNL     1      -2.598  13.069  23.735  0.00  0.00    +0.000 Cl
ATOM     24  C   UNL     1      -1.985  12.424  21.187  0.00  0.00    +0.000 A 
ATOM     25  C   UNL     1      -1.407  11.613  20.207  0.00  0.00    +0.000 A 
ENDBRANCH  18  19
BRANCH  18  26
ATOM     26  C   UNL     1      -0.638  10.006  18.102  0.00  0.00    +0.000 C 
ATOM     27  F   UNL     1      -1.969   9.759  17.998  0.00  0.00    +0.000 F 
ATOM     28  F   UNL     1      -0.481  11.347  17.958  0.00  0.00    +0.000 F 
ENDBRANCH  18  26
ENDBRANCH   4  18
TORSDOF 5
ENDMDL
MODEL 3
REMARK VINA RESULT:      -6.1      2.932      4.194
REMARK  Name = 
REMARK  7 active torsions:
REMARK  status: ('A' for Active; 'I' for Inactive)
REMARK    1  A    between atoms: C_1  and  C_2
REMARK    2  A    between atoms: C_5  and  C_6
REMARK    3  A    between atoms: C_7  and  S_8
REMARK    4  A    between atoms: S_8  and  N_11
REMARK    5  A    between atoms: C_14  and  C_15
REMARK    6  A    between atoms: C_15  and  C_16
REMARK    7  A    between atoms: C_15  and  C_23
REMARK                            x       y       z     vdW  Elec       q    Type
REMARK                         _______ _______ _______ _____ _____    ______ ____
ROOT
ATOM      1  N   UNL     1       2.371   7.265  19.003  0.00  0.00    +0.000 NA
ATOM      2  C   UNL     1       1.758   7.975  17.844  0.00  0.00    +0.000 C 
ATOM      3  C   UNL     1       1.872   9.489  17.998  0.00  0.00    +0.000 C 
ATOM      4  C   UNL     1       1.237  10.002  19.302  0.00  0.00    +0.000 C 
ATOM      5  C   UNL     1       1.978   9.285  20.446  0.00  0.00    +0.000 C 
ATOM      6  C   UNL     1       1.921   7.763  20.338  0.00  0.00    +0.000 C 
ENDROOT
BRANCH   1   7
ATOM      7  S   UNL     1       2.207   5.549  18.901  0.00  0.00    +0.000 S 
ATOM      8  O   UNL     1       1.570   5.249  17.635  0.00  0.00    +0.000 OA
ATOM      9  O   UNL     1       1.656   5.072  20.150  0.00  0.00    +0.000 OA
BRANCH   7  16
ATOM     10  C   UNL     1       4.984   6.594  17.358  0.00  0.00    +0.000 C 
ATOM     11  C   UNL     1       4.879   5.337  18.140  0.00  0.00    +0.000 A 
ATOM     12  N   UNL     1       5.954   4.545  18.279  0.00  0.00    +0.000 NA
ATOM     13  N   UNL     1       5.531   3.552  19.074  0.00  0.00    +0.000 N 
ATOM     14  C   UNL     1       4.213   3.647  19.430  0.00  0.00    +0.000 A 
ATOM     15  C   UNL     1       3.573   2.646  20.316  0.00  0.00    +0.000 C 
ATOM     16  C   UNL     1       3.761   4.805  18.823  0.00  0.00    +0.000 A 
ATOM     17  H   UNL     1       6.202   2.836  19.342  0.00  0.00    +0.000 HD
ENDBRANCH   7  16
ENDBRANCH   1   7
BRANCH   4  18
ATOM     18  C   UNL     1      -0.322   9.849  19.392  0.00  0.00    +0.000 C 
BRANCH  18  19
ATOM     19  C   UNL     1      -0.929  10.744  20.476  0.00  0.00    +0.000 A 
ATOM     20  C   UNL     1      -1.644  11.911  20.152  0.00  0.00    +0.000 A 
ATOM     21  C   UNL     1      -2.168  12.730  21.156  0.00  0.00    +0.000 A 
ATOM     22  C   UNL     1      -1.994  12.383  22.492  0.00  0.00    +0.000 A 
ATOM     23 CL   UNL     1      -2.626  13.399  23.729  0.00  0.00    +0.000 Cl
ATOM     24  C   UNL     1      -1.310  11.220  22.833  0.00  0.00    +0.000 A 
ATOM     25  C   UNL     1      -0.782  10.403  21.830  0.00  0.00    +0.000 A 
ENDBRANCH  18  19
BRANCH  18  26
ATOM     26  C   UNL     1      -1.051  10.101  18.063  0.00  0.00    +0.000 C 
ATOM     27  F   UNL     1      -2.364   9.775  18.166  0.00  0.00    +0.000 F 
ATOM     28  F   UNL     1      -1.003  11.422  17.749  0.00  0.00    +0.000 F 
ENDBRANCH  18  26
ENDBRANCH   4  18
TORSDOF 5
ENDMDL
MODEL 4
REMARK VINA RESULT:      -6.1      1.773      2.192
REMARK  Name = 
REMARK  7 active torsions:
REMARK  status: ('A' for Active; 'I' for Inactive)
REMARK    1  A    between atoms: C_1  and  C_2
REMARK    2  A    between atoms: C_5  and  C_6
REMARK    3  A    between atoms: C_7  and  S_8
REMARK    4  A    between atoms: S_8  and  N_11
REMARK    5  A    between atoms: C_14  and  C_15
REMARK    6  A    between atoms: C_15  and  C_16
REMARK    7  A    between atoms: C_15  and  C_23
REMARK                            x       y       z     vdW  Elec       q    Type
REMARK                         _______ _______ _______ _____ _____    ______ ____
ROOT
ATOM      1  N   UNL     1       3.789   5.049  17.363  0.00  0.00    +0.000 NA
ATOM      2  C   UNL     1       2.724   4.447  18.215  0.00  0.00    +0.000 C 
ATOM      3  C   UNL     1       1.430   5.254  18.139  0.00  0.00    +0.000 C 
ATOM      4  C   UNL     1       1.626   6.728  18.535  0.00  0.00    +0.000 C 
ATOM      5  C   UNL     1       2.675   7.295  17.560  0.00  0.00    +0.000 C 
ATOM      6  C   UNL     1       3.988   6.516  17.572  0.00  0.00    +0.000 C 
ENDROOT
BRANCH   1   7
ATOM      7  S   UNL     1       5.291   4.205  17.471  0.00  0.00    +0.000 S 
ATOM      8  O   UNL     1       5.102   2.905  16.859  0.00  0.00    +0.000 OA
ATOM      9  O   UNL     1       5.787   4.334  18.823  0.00  0.00    +0.000 OA
BRANCH   7  16
ATOM     10  C   UNL     1       6.013   3.816  14.227  0.00  0.00    +0.000 C 
ATOM     11  C   UNL     1       6.711   4.758  15.137  0.00  0.00    +0.000 A 
ATOM     12  N   UNL     1       7.692   5.541  14.663  0.00  0.00    +0.000 NA
ATOM     13  N   UNL     1       8.054   6.291  15.714  0.00  0.00    +0.000 N 
ATOM     14  C   UNL     1       7.370   6.003  16.864  0.00  0.00    +0.000 A 
ATOM     15  C   UNL     1       7.624   6.740  18.124  0.00  0.00    +0.000 C 
ATOM     16  C   UNL     1       6.489   4.995  16.513  0.00  0.00    +0.000 A 
ATOM     17  H   UNL     1       8.778   6.991  15.575  0.00  0.00    +0.000 HD
ENDBRANCH   7  16
ENDBRANCH   1   7
BRANCH   4  18
ATOM     18  C   UNL     1       1.995   6.972  20.040  0.00  0.00    +0.000 C 
BRANCH  18  19
ATOM     19  C   UNL     1       1.347   8.243  20.596  0.00  0.00    +0.000 A 
ATOM     20  C   UNL     1       1.002   9.320  19.760  0.00  0.00    +0.000 A 
ATOM     21  C   UNL     1       0.435  10.483  20.288  0.00  0.00    +0.000 A 
ATOM     22  C   UNL     1       0.195  10.575  21.656  0.00  0.00    +0.000 A 
ATOM     23 CL   UNL     1      -0.488  12.013  22.310  0.00  0.00    +0.000 Cl
ATOM     24  C   UNL     1       0.508   9.512  22.497  0.00  0.00    +0.000 A 
ATOM     25  C   UNL     1       1.079   8.350  21.970  0.00  0.00    +0.000 A 
ENDBRANCH  18  19
BRANCH  18  26
ATOM     26  C   UNL     1       1.662   5.791  20.964  0.00  0.00    +0.000 C 
ATOM     27  F   UNL     1       0.621   5.073  20.470  0.00  0.00    +0.000 F 
ATOM     28  F   UNL     1       2.719   4.942  21.036  0.00  0.00    +0.000 F 
ENDBRANCH  18  26
ENDBRANCH   4  18
TORSDOF 5
ENDMDL
MODEL 5
REMARK VINA RESULT:      -6.1      3.009      4.325
REMARK  Name = 
REMARK  7 active torsions:
REMARK  status: ('A' for Active; 'I' for Inactive)
REMARK    1  A    between atoms: C_1  and  C_2
REMARK    2  A    between atoms: C_5  and  C_6
REMARK    3  A    between atoms: C_7  and  S_8
REMARK    4  A    between atoms: S_8  and  N_11
REMARK    5  A    between atoms: C_14  and  C_15
REMARK    6  A    between atoms: C_15  and  C_16
REMARK    7  A    between atoms: C_15  and  C_23
REMARK                            x       y       z     vdW  Elec       q    Type
REMARK                         _______ _______ _______ _____ _____    ______ ____
ROOT
ATOM      1  N   UNL     1       2.325   7.163  19.344  0.00  0.00    +0.000 NA
ATOM      2  C   UNL     1       1.913   8.001  18.181  0.00  0.00    +0.000 C 
ATOM      3  C   UNL     1       2.101   9.487  18.473  0.00  0.00    +0.000 C 
ATOM      4  C   UNL     1       1.336   9.946  19.726  0.00  0.00    +0.000 C 
ATOM      5  C   UNL     1       1.876   9.094  20.890  0.00  0.00    +0.000 C 
ATOM      6  C   UNL     1       1.738   7.593  20.649  0.00  0.00    +0.000 C 
ENDROOT
BRANCH   1   7
ATOM      7  S   UNL     1       2.067   5.476  19.080  0.00  0.00    +0.000 S 
ATOM      8  O   UNL     1       1.571   5.320  17.728  0.00  0.00    +0.000 OA
ATOM      9  O   UNL     1       1.341   4.947  20.213  0.00  0.00    +0.000 OA
BRANCH   7  16
ATOM     10  C   UNL     1       4.981   6.258  17.636  0.00  0.00    +0.000 C 
ATOM     11  C   UNL     1       4.754   5.053  18.473  0.00  0.00    +0.000 A 
ATOM     12  N   UNL     1       5.765   4.202  18.707  0.00  0.00    +0.000 NA
ATOM     13  N   UNL     1       5.238   3.281  19.527  0.00  0.00    +0.000 N 
ATOM     14  C   UNL     1       3.913   3.480  19.807  0.00  0.00    +0.000 A 
ATOM     15  C   UNL     1       3.165   2.570  20.706  0.00  0.00    +0.000 C 
ATOM     16  C   UNL     1       3.571   4.631  19.121  0.00  0.00    +0.000 A 
ATOM     17  H   UNL     1       5.845   2.539  19.865  0.00  0.00    +0.000 HD
ENDBRANCH   7  16
ENDBRANCH   1   7
BRANCH   4  18
ATOM     18  C   UNL     1      -0.228   9.901  19.609  0.00  0.00    +0.000 C 
BRANCH  18  19
ATOM     19  C   UNL     1      -0.915  10.676  20.737  0.00  0.00    +0.000 A 
ATOM     20  C   UNL     1      -0.670  10.380  22.090  0.00  0.00    +0.000 A 
ATOM     21  C   UNL     1      -1.326  11.080  23.105  0.00  0.00    +0.000 A 
ATOM     22  C   UNL     1      -2.224  12.092  22.779  0.00  0.00    +0.000 A 
ATOM     23 CL   UNL     1      -3.045  12.943  24.029  0.00  0.00    +0.000 Cl
ATOM     24  C   UNL     1      -2.464  12.416  21.447  0.00  0.00    +0.000 A 
ATOM     25  C   UNL     1      -1.810  11.713  20.430  0.00  0.00    +0.000 A 
ENDBRANCH  18  19
BRANCH  18  26
ATOM     26  C   UNL     1      -0.767  10.395  18.258  0.00  0.00    +0.000 C 
ATOM     27  F   UNL     1      -0.021  11.429  17.792  0.00  0.00    +0.000 F 
ATOM     28  F   UNL     1      -0.679   9.406  17.332  0.00  0.00    +0.000 F 
ENDBRANCH  18  26
ENDBRANCH   4  18
TORSDOF 5
ENDMDL
MODEL 6
REMARK VINA RESULT:      -6.1      6.799     10.270
REMARK  Name = 
REMARK  7 active torsions:
REMARK  status: ('A' for Active; 'I' for Inactive)
REMARK    1  A    between atoms: C_1  and  C_2
REMARK    2  A    between atoms: C_5  and  C_6
REMARK    3  A    between atoms: C_7  and  S_8
REMARK    4  A    between atoms: S_8  and  N_11
REMARK    5  A    between atoms: C_14  and  C_15
REMARK    6  A    between atoms: C_15  and  C_16
REMARK    7  A    between atoms: C_15  and  C_23
REMARK                            x       y       z     vdW  Elec       q    Type
REMARK                         _______ _______ _______ _____ _____    ______ ____
ROOT
ATOM      1  N   UNL     1      -2.197  13.463  20.439  0.00  0.00    +0.000 NA
ATOM      2  C   UNL     1      -1.066  14.308  19.961  0.00  0.00    +0.000 C 
ATOM      3  C   UNL     1      -0.618  13.896  18.562  0.00  0.00    +0.000 C 
ATOM      4  C   UNL     1      -0.214  12.414  18.481  0.00  0.00    +0.000 C 
ATOM      5  C   UNL     1      -1.457  11.611  18.909  0.00  0.00    +0.000 C 
ATOM      6  C   UNL     1      -1.970  11.993  20.295  0.00  0.00    +0.000 C 
ENDROOT
BRANCH   1   7
ATOM      7  S   UNL     1      -2.693  13.853  22.047  0.00  0.00    +0.000 S 
ATOM      8  O   UNL     1      -2.853  15.291  22.114  0.00  0.00    +0.000 OA
ATOM      9  O   UNL     1      -1.830  13.149  22.969  0.00  0.00    +0.000 OA
BRANCH   7  16
ATOM     10  C   UNL     1      -5.256  13.375  19.951  0.00  0.00    +0.000 C 
ATOM     11  C   UNL     1      -5.276  13.036  21.396  0.00  0.00    +0.000 A 
ATOM     12  N   UNL     1      -6.372  12.479  21.935  0.00  0.00    +0.000 NA
ATOM     13  N   UNL     1      -6.033  12.255  23.213  0.00  0.00    +0.000 N 
ATOM     14  C   UNL     1      -4.771  12.676  23.536  0.00  0.00    +0.000 A 
ATOM     15  C   UNL     1      -4.218  12.499  24.899  0.00  0.00    +0.000 C 
ATOM     16  C   UNL     1      -4.258  13.199  22.362  0.00  0.00    +0.000 A 
ATOM     17  H   UNL     1      -6.715  11.802  23.816  0.00  0.00    +0.000 HD
ENDBRANCH   7  16
ENDBRANCH   1   7
BRANCH   4  18
ATOM     18  C   UNL     1       1.073  12.026  19.289  0.00  0.00    +0.000 C 
BRANCH  18  19
ATOM     19  C   UNL     1       1.393  10.532  19.185  0.00  0.00    +0.000 A 
ATOM     20  C   UNL     1       1.159   9.653  20.258  0.00  0.00    +0.000 A 
ATOM     21  C   UNL     1       1.482   8.297  20.154  0.00  0.00    +0.000 A 
ATOM     22  C   UNL     1       2.029   7.805  18.973  0.00  0.00    +0.000 A 
ATOM     23 CL   UNL     1       2.441   6.139  18.851  0.00  0.00    +0.000 Cl
ATOM     24  C   UNL     1       2.246   8.654  17.893  0.00  0.00    +0.000 A 
ATOM     25  C   UNL     1       1.928  10.011  17.996  0.00  0.00    +0.000 A 
ENDBRANCH  18  19
BRANCH  18  26
ATOM     26  C   UNL     1       2.320  12.836  18.902  0.00  0.00    +0.000 C 
ATOM     27  F   UNL     1       2.246  13.245  17.610  0.00  0.00    +0.000 F 
ATOM     28  F   UNL     1       2.400  13.959  19.660  0.00  0.00    +0.000 F 
ENDBRANCH  18  26
ENDBRANCH   4  18
TORSDOF 5
ENDMDL
MODEL 7
REMARK VINA RESULT:      -6.1      3.015      4.200
REMARK  Name = 
REMARK  7 active torsions:
REMARK  status: ('A' for Active; 'I' for Inactive)
REMARK    1  A    between atoms: C_1  and  C_2
REMARK    2  A    between atoms: C_5  and  C_6
REMARK    3  A    between atoms: C_7  and  S_8
REMARK    4  A    between atoms: S_8  and  N_11
REMARK    5  A    between atoms: C_14  and  C_15
REMARK    6  A    between atoms: C_15  and  C_16
REMARK    7  A    between atoms: C_15  and  C_23
REMARK                            x       y       z     vdW  Elec       q    Type
REMARK                         _______ _______ _______ _____ _____    ______ ____
ROOT
ATOM      1  N   UNL     1       2.314   7.283  19.198  0.00  0.00    +0.000 NA
ATOM      2  C   UNL     1       1.777   7.993  18.002  0.00  0.00    +0.000 C 
ATOM      3  C   UNL     1       1.923   9.506  18.143  0.00  0.00    +0.000 C 
ATOM      4  C   UNL     1       1.239  10.053  19.408  0.00  0.00    +0.000 C 
ATOM      5  C   UNL     1       1.905   9.333  20.596  0.00  0.00    +0.000 C 
ATOM      6  C   UNL     1       1.813   7.811  20.503  0.00  0.00    +0.000 C 
ENDROOT
BRANCH   1   7
ATOM      7  S   UNL     1       2.109   5.571  19.109  0.00  0.00    +0.000 S 
ATOM      8  O   UNL     1       1.540   5.269  17.812  0.00  0.00    +0.000 OA
ATOM      9  O   UNL     1       1.473   5.128  20.330  0.00  0.00    +0.000 OA
BRANCH   7  16
ATOM     10  C   UNL     1       2.993   2.680  20.542  0.00  0.00    +0.000 C 
ATOM     11  C   UNL     1       3.913   3.553  19.771  0.00  0.00    +0.000 A 
ATOM     12  N   UNL     1       5.192   3.185  19.597  0.00  0.00    +0.000 NA
ATOM     13  N   UNL     1       5.710   4.150  18.824  0.00  0.00    +0.000 N 
ATOM     14  C   UNL     1       4.828   5.150  18.517  0.00  0.00    +0.000 A 
ATOM     15  C   UNL     1       5.219   6.295  17.661  0.00  0.00    +0.000 C 
ATOM     16  C   UNL     1       3.645   4.785  19.134  0.00  0.00    +0.000 A 
ATOM     17  H   UNL     1       6.681   4.061  18.535  0.00  0.00    +0.000 HD
ENDBRANCH   7  16
ENDBRANCH   1   7
BRANCH   4  18
ATOM     18  C   UNL     1      -0.325   9.941  19.424  0.00  0.00    +0.000 C 
BRANCH  18  19
ATOM     19  C   UNL     1      -0.949  10.723  20.584  0.00  0.00    +0.000 A 
ATOM     20  C   UNL     1      -1.757  11.852  20.361  0.00  0.00    +0.000 A 
ATOM     21  C   UNL     1      -2.296  12.568  21.433  0.00  0.00    +0.000 A 
ATOM     22  C   UNL     1      -2.042  12.156  22.737  0.00  0.00    +0.000 A 
ATOM     23 CL   UNL     1      -2.691  13.048  24.058  0.00  0.00    +0.000 Cl
ATOM     24  C   UNL     1      -1.263  11.028  22.979  0.00  0.00    +0.000 A 
ATOM     25  C   UNL     1      -0.721  10.313  21.908  0.00  0.00    +0.000 A 
ENDBRANCH  18  19
BRANCH  18  26
ATOM     26  C   UNL     1      -0.995  10.371  18.110  0.00  0.00    +0.000 C 
ATOM     27  F   UNL     1      -0.374  11.458  17.586  0.00  0.00    +0.000 F 
ATOM     28  F   UNL     1      -0.886   9.381  17.186  0.00  0.00    +0.000 F 
ENDBRANCH  18  26
ENDBRANCH   4  18
TORSDOF 5
ENDMDL
MODEL 8
REMARK VINA RESULT:      -6.0      0.111      1.823
REMARK  Name = 
REMARK  7 active torsions:
REMARK  status: ('A' for Active; 'I' for Inactive)
REMARK    1  A    between atoms: C_1  and  C_2
REMARK    2  A    between atoms: C_5  and  C_6
REMARK    3  A    between atoms: C_7  and  S_8
REMARK    4  A    between atoms: S_8  and  N_11
REMARK    5  A    between atoms: C_14  and  C_15
REMARK    6  A    between atoms: C_15  and  C_16
REMARK    7  A    between atoms: C_15  and  C_23
REMARK                            x       y       z     vdW  Elec       q    Type
REMARK                         _______ _______ _______ _____ _____    ______ ____
ROOT
ATOM      1  N   UNL     1       3.848   5.255  18.631  0.00  0.00    +0.000 NA
ATOM      2  C   UNL     1       3.115   5.174  19.927  0.00  0.00    +0.000 C 
ATOM      3  C   UNL     1       1.638   5.516  19.751  0.00  0.00    +0.000 C 
ATOM      4  C   UNL     1       1.420   6.906  19.130  0.00  0.00    +0.000 C 
ATOM      5  C   UNL     1       2.135   6.879  17.765  0.00  0.00    +0.000 C 
ATOM      6  C   UNL     1       3.615   6.520  17.871  0.00  0.00    +0.000 C 
ENDROOT
BRANCH   1   7
ATOM      7  S   UNL     1       5.538   4.940  18.796  0.00  0.00    +0.000 S 
ATOM      8  O   UNL     1       5.698   3.508  18.955  0.00  0.00    +0.000 OA
ATOM      9  O   UNL     1       6.079   5.869  19.762  0.00  0.00    +0.000 OA
BRANCH   7  16
ATOM     10  C   UNL     1       7.791   7.342  18.212  0.00  0.00    +0.000 C 
ATOM     11  C   UNL     1       7.307   6.377  17.193  0.00  0.00    +0.000 A 
ATOM     12  N   UNL     1       7.795   6.425  15.944  0.00  0.00    +0.000 NA
ATOM     13  N   UNL     1       7.199   5.400  15.317  0.00  0.00    +0.000 N 
ATOM     14  C   UNL     1       6.315   4.709  16.100  0.00  0.00    +0.000 A 
ATOM     15  C   UNL     1       5.572   3.535  15.582  0.00  0.00    +0.000 C 
ATOM     16  C   UNL     1       6.362   5.335  17.333  0.00  0.00    +0.000 A 
ATOM     17  H   UNL     1       7.446   5.224  14.347  0.00  0.00    +0.000 HD
ENDBRANCH   7  16
ENDBRANCH   1   7
BRANCH   4  18
ATOM     18  C   UNL     1       1.860   8.116  20.027  0.00  0.00    +0.000 C 
BRANCH  18  19
ATOM     19  C   UNL     1       1.244   9.437  19.559  0.00  0.00    +0.000 A 
ATOM     20  C   UNL     1      -0.107   9.745  19.797  0.00  0.00    +0.000 A 
ATOM     21  C   UNL     1      -0.659  10.944  19.340  0.00  0.00    +0.000 A 
ATOM     22  C   UNL     1       0.138  11.853  18.651  0.00  0.00    +0.000 A 
ATOM     23 CL   UNL     1      -0.545  13.323  18.073  0.00  0.00    +0.000 Cl
ATOM     24  C   UNL     1       1.483  11.578  18.424  0.00  0.00    +0.000 A 
ATOM     25  C   UNL     1       2.035  10.377  18.878  0.00  0.00    +0.000 A 
ENDBRANCH  18  19
BRANCH  18  26
ATOM     26  C   UNL     1       1.565   7.923  21.522  0.00  0.00    +0.000 C 
ATOM     27  F   UNL     1       1.865   9.048  22.220  0.00  0.00    +0.000 F 
ATOM     28  F   UNL     1       0.240   7.694  21.709  0.00  0.00    +0.000 F 
ENDBRANCH  18  26
ENDBRANCH   4  18
TORSDOF 5
ENDMDL
MODEL 9
REMARK VINA RESULT:      -6.0      6.979     10.339
REMARK  Name = 
REMARK  7 active torsions:
REMARK  status: ('A' for Active; 'I' for Inactive)
REMARK    1  A    between atoms: C_1  and  C_2
REMARK    2  A    between atoms: C_5  and  C_6
REMARK    3  A    between atoms: C_7  and  S_8
REMARK    4  A    between atoms: S_8  and  N_11
REMARK    5  A    between atoms: C_14  and  C_15
REMARK    6  A    between atoms: C_15  and  C_16
REMARK    7  A    between atoms: C_15  and  C_23
REMARK                            x       y       z     vdW  Elec       q    Type
REMARK                         _______ _______ _______ _____ _____    ______ ____
ROOT
ATOM      1  N   UNL     1      -2.357  13.512  20.403  0.00  0.00    +0.000 NA
ATOM      2  C   UNL     1      -1.212  14.323  19.901  0.00  0.00    +0.000 C 
ATOM      3  C   UNL     1      -0.685  13.779  18.576  0.00  0.00    +0.000 C 
ATOM      4  C   UNL     1      -0.260  12.303  18.668  0.00  0.00    +0.000 C 
ATOM      5  C   UNL     1      -1.515  11.527  19.111  0.00  0.00    +0.000 C 
ATOM      6  C   UNL     1      -2.106  12.039  20.422  0.00  0.00    +0.000 C 
ENDROOT
BRANCH   1   7
ATOM      7  S   UNL     1      -2.943  14.055  21.934  0.00  0.00    +0.000 S 
ATOM      8  O   UNL     1      -3.252  15.464  21.805  0.00  0.00    +0.000 OA
ATOM      9  O   UNL     1      -2.043  13.574  22.959  0.00  0.00    +0.000 OA
BRANCH   7  16
ATOM     10  C   UNL     1      -5.533  13.376  19.929  0.00  0.00    +0.000 C 
ATOM     11  C   UNL     1      -5.478  13.042  21.375  0.00  0.00    +0.000 A 
ATOM     12  N   UNL     1      -6.509  12.407  21.952  0.00  0.00    +0.000 NA
ATOM     13  N   UNL     1      -6.110  12.213  23.218  0.00  0.00    +0.000 N 
ATOM     14  C   UNL     1      -4.874  12.730  23.496  0.00  0.00    +0.000 A 
ATOM     15  C   UNL     1      -4.262  12.601  24.840  0.00  0.00    +0.000 C 
ATOM     16  C   UNL     1      -4.442  13.286  22.305  0.00  0.00    +0.000 A 
ATOM     17  H   UNL     1      -6.735  11.713  23.845  0.00  0.00    +0.000 HD
ENDBRANCH   7  16
ENDBRANCH   1   7
BRANCH   4  18
ATOM     18  C   UNL     1       0.986  12.021  19.578  0.00  0.00    +0.000 C 
BRANCH  18  19
ATOM     19  C   UNL     1       1.228  10.522  19.779  0.00  0.00    +0.000 A 
ATOM     20  C   UNL     1       1.663   9.699  18.725  0.00  0.00    +0.000 A 
ATOM     21  C   UNL     1       1.853   8.328  18.921  0.00  0.00    +0.000 A 
ATOM     22  C   UNL     1       1.624   7.770  20.175  0.00  0.00    +0.000 A 
ATOM     23 CL   UNL     1       1.842   6.080  20.413  0.00  0.00    +0.000 Cl
ATOM     24  C   UNL     1       1.215   8.572  21.237  0.00  0.00    +0.000 A 
ATOM     25  C   UNL     1       1.021   9.942  21.041  0.00  0.00    +0.000 A 
ENDBRANCH  18  19
BRANCH  18  26
ATOM     26  C   UNL     1       2.283  12.679  19.081  0.00  0.00    +0.000 C 
ATOM     27  F   UNL     1       2.222  12.913  17.745  0.00  0.00    +0.000 F 
ATOM     28  F   UNL     1       2.452  13.886  19.678  0.00  0.00    +0.000 F 
ENDBRANCH  18  26
ENDBRANCH   4  18
TORSDOF 5
ENDMDL
