MODEL 1
REMARK VINA RESULT:      -8.0      0.000      0.000
REMARK  Name = 
REMARK  12 active torsions:
REMARK  status: ('A' for Active; 'I' for Inactive)
REMARK    1  A    between atoms: C_1  and  C_2
REMARK    2  A    between atoms: C_2  and  C_3
REMARK    3  A    between atoms: C_2  and  O_4
REMARK    4  A    between atoms: O_4  and  C_5
REMARK    5  A    between atoms: C_8  and  C_9
REMARK    6  A    between atoms: C_9  and  C_10
REMARK    7  A    between atoms: C_12  and  C_13
REMARK    8  A    between atoms: C_15  and  C_16
REMARK    9  A    between atoms: C_16  and  O_17
REMARK   10  A    between atoms: C_18  and  O_19
REMARK   11  A    between atoms: C_20  and  O_21
REMARK   12  A    between atoms: C_22  and  O_23
REMARK                            x       y       z     vdW  Elec       q    Type
REMARK                         _______ _______ _______ _____ _____    ______ ____
ROOT
ATOM      1  C   UNL     1       4.508   4.817  19.074  0.00  0.00    +0.000 A 
ATOM      2  C   UNL     1       4.044   6.142  19.215  0.00  0.00    +0.000 A 
ATOM      3  C   UNL     1       2.731   6.428  19.632  0.00  0.00    +0.000 A 
ATOM      4  C   UNL     1       1.868   5.356  19.896  0.00  0.00    +0.000 A 
ATOM      5  C   UNL     1       2.317   4.039  19.787  0.00  0.00    +0.000 A 
ATOM      6  C   UNL     1       3.628   3.769  19.384  0.00  0.00    +0.000 A 
ATOM      7 CL   UNL     1       4.095   2.108  19.290  0.00  0.00    +0.000 Cl
ENDROOT
BRANCH   3   8
ATOM      8  C   UNL     1       2.274   7.874  19.771  0.00  0.00    +0.000 C 
ATOM      9  O   UNL     1       1.447   7.976  20.942  0.00  0.00    +0.000 OA
ATOM     10  C   UNL     1       1.000   9.313  21.216  0.00  0.00    +0.000 C 
ATOM     11  C   UNL     1       0.159   9.857  20.060  0.00  0.00    +0.000 C 
ATOM     12  C   UNL     1       0.980   9.788  18.764  0.00  0.00    +0.000 C 
ATOM     13  C   UNL     1       1.520   8.368  18.515  0.00  0.00    +0.000 C 
BRANCH  11  14
ATOM     14  O   UNL     1      -0.253  11.195  20.349  0.00  0.00    +0.000 OA
ATOM     15  H   UNL     1       0.331  11.814  19.876  0.00  0.00    +0.000 HD
ENDBRANCH  11  14
BRANCH  12  16
ATOM     16  O   UNL     1       0.199  10.257  17.657  0.00  0.00    +0.000 OA
ATOM     17  H   UNL     1       0.715  10.125  16.839  0.00  0.00    +0.000 HD
ENDBRANCH  12  16
BRANCH  13  18
ATOM     18  O   UNL     1       2.362   8.370  17.353  0.00  0.00    +0.000 OA
ATOM     19  H   UNL     1       3.064   7.708  17.468  0.00  0.00    +0.000 HD
ENDBRANCH  13  18
BRANCH  10  20
ATOM     20  C   UNL     1       0.196   9.273  22.522  0.00  0.00    +0.000 C 
BRANCH  20  21
ATOM     21  O   UNL     1      -0.874   8.333  22.392  0.00  0.00    +0.000 OA
ATOM     22  H   UNL     1      -1.549   8.600  23.043  0.00  0.00    +0.000 HD
ENDBRANCH  20  21
ENDBRANCH  10  20
ENDBRANCH   3   8
BRANCH   1  23
ATOM     23  C   UNL     1       5.933   4.596  18.606  0.00  0.00    +0.000 C 
BRANCH  23  27
ATOM     24  C   UNL     1       6.465   4.403  14.416  0.00  0.00    +0.000 A 
ATOM     25  C   UNL     1       5.227   4.069  14.920  0.00  0.00    +0.000 A 
ATOM     26  C   UNL     1       5.030   4.134  16.291  0.00  0.00    +0.000 A 
ATOM     27  C   UNL     1       6.090   4.498  17.111  0.00  0.00    +0.000 A 
ATOM     28  N   UNL     1       7.299   4.799  16.577  0.00  0.00    +0.000 NA
ATOM     29  N   UNL     1       7.491   4.754  15.216  0.00  0.00    +0.000 NA
BRANCH  24  30
ATOM     30  O   UNL     1       6.609   4.320  13.052  0.00  0.00    +0.000 OA
BRANCH  30  32
ATOM     31  C   UNL     1       4.841   3.483  11.728  0.00  0.00    +0.000 C 
ATOM     32  C   UNL     1       6.130   3.107  12.457  0.00  0.00    +0.000 C 
ATOM     33  C   UNL     1       7.147   2.565  11.453  0.00  0.00    +0.000 C 
ENDBRANCH  30  32
ENDBRANCH  24  30
ENDBRANCH  23  27
ENDBRANCH   1  23
TORSDOF 10
ENDMDL
MODEL 2
REMARK VINA RESULT:      -7.8      0.883      1.003
REMARK  Name = 
REMARK  12 active torsions:
REMARK  status: ('A' for Active; 'I' for Inactive)
REMARK    1  A    between atoms: C_1  and  C_2
REMARK    2  A    between atoms: C_2  and  C_3
REMARK    3  A    between atoms: C_2  and  O_4
REMARK    4  A    between atoms: O_4  and  C_5
REMARK    5  A    between atoms: C_8  and  C_9
REMARK    6  A    between atoms: C_9  and  C_10
REMARK    7  A    between atoms: C_12  and  C_13
REMARK    8  A    between atoms: C_15  and  C_16
REMARK    9  A    between atoms: C_16  and  O_17
REMARK   10  A    between atoms: C_18  and  O_19
REMARK   11  A    between atoms: C_20  and  O_21
REMARK   12  A    between atoms: C_22  and  O_23
REMARK                            x       y       z     vdW  Elec       q    Type
REMARK                         _______ _______ _______ _____ _____    ______ ____
ROOT
ATOM      1  C   UNL     1       4.279   4.657  19.197  0.00  0.00    +0.000 A 
ATOM      2  C   UNL     1       3.853   5.991  19.369  0.00  0.00    +0.000 A 
ATOM      3  C   UNL     1       2.537   6.306  19.757  0.00  0.00    +0.000 A 
ATOM      4  C   UNL     1       1.634   5.255  19.960  0.00  0.00    +0.000 A 
ATOM      5  C   UNL     1       2.045   3.928  19.820  0.00  0.00    +0.000 A 
ATOM      6  C   UNL     1       3.357   3.628  19.447  0.00  0.00    +0.000 A 
ATOM      7 CL   UNL     1       3.774   1.957  19.312  0.00  0.00    +0.000 Cl
ENDROOT
BRANCH   3   8
ATOM      8  C   UNL     1       2.122   7.761  19.930  0.00  0.00    +0.000 C 
ATOM      9  O   UNL     1       1.177   7.836  21.010  0.00  0.00    +0.000 OA
ATOM     10  C   UNL     1       0.753   9.174  21.313  0.00  0.00    +0.000 C 
ATOM     11  C   UNL     1       0.063   9.815  20.107  0.00  0.00    +0.000 C 
ATOM     12  C   UNL     1       1.018   9.780  18.904  0.00  0.00    +0.000 C 
ATOM     13  C   UNL     1       1.529   8.354  18.632  0.00  0.00    +0.000 C 
BRANCH  11  14
ATOM     14  O   UNL     1      -0.327  11.152  20.427  0.00  0.00    +0.000 OA
ATOM     15  H   UNL     1       0.444  11.739  20.329  0.00  0.00    +0.000 HD
ENDBRANCH  11  14
BRANCH  12  16
ATOM     16  O   UNL     1       0.381  10.342  17.749  0.00  0.00    +0.000 OA
ATOM     17  H   UNL     1      -0.585  10.305  17.882  0.00  0.00    +0.000 HD
ENDBRANCH  12  16
BRANCH  13  18
ATOM     18  O   UNL     1       2.492   8.382  17.568  0.00  0.00    +0.000 OA
ATOM     19  H   UNL     1       3.385   8.408  17.950  0.00  0.00    +0.000 HD
ENDBRANCH  13  18
BRANCH  10  20
ATOM     20  C   UNL     1      -0.190   9.098  22.520  0.00  0.00    +0.000 C 
BRANCH  20  21
ATOM     21  O   UNL     1      -0.042  10.280  23.313  0.00  0.00    +0.000 OA
ATOM     22  H   UNL     1      -0.912  10.439  23.725  0.00  0.00    +0.000 HD
ENDBRANCH  20  21
ENDBRANCH  10  20
ENDBRANCH   3   8
BRANCH   1  23
ATOM     23  C   UNL     1       5.710   4.405  18.764  0.00  0.00    +0.000 C 
BRANCH  23  27
ATOM     24  C   UNL     1       6.244   4.318  14.571  0.00  0.00    +0.000 A 
ATOM     25  C   UNL     1       7.123   5.077  15.312  0.00  0.00    +0.000 A 
ATOM     26  C   UNL     1       6.969   5.111  16.690  0.00  0.00    +0.000 A 
ATOM     27  C   UNL     1       5.920   4.413  17.272  0.00  0.00    +0.000 A 
ATOM     28  N   UNL     1       5.063   3.694  16.505  0.00  0.00    +0.000 NA
ATOM     29  N   UNL     1       5.225   3.643  15.140  0.00  0.00    +0.000 NA
BRANCH  24  30
ATOM     30  O   UNL     1       6.436   4.320  13.210  0.00  0.00    +0.000 OA
BRANCH  30  32
ATOM     31  C   UNL     1       4.701   3.474  11.848  0.00  0.00    +0.000 C 
ATOM     32  C   UNL     1       6.024   3.127  12.531  0.00  0.00    +0.000 C 
ATOM     33  C   UNL     1       7.056   2.729  11.475  0.00  0.00    +0.000 C 
ENDBRANCH  30  32
ENDBRANCH  24  30
ENDBRANCH  23  27
ENDBRANCH   1  23
TORSDOF 10
ENDMDL
MODEL 3
REMARK VINA RESULT:      -7.7      4.940      9.222
REMARK  Name = 
REMARK  12 active torsions:
REMARK  status: ('A' for Active; 'I' for Inactive)
REMARK    1  A    between atoms: C_1  and  C_2
REMARK    2  A    between atoms: C_2  and  C_3
REMARK    3  A    between atoms: C_2  and  O_4
REMARK    4  A    between atoms: O_4  and  C_5
REMARK    5  A    between atoms: C_8  and  C_9
REMARK    6  A    between atoms: C_9  and  C_10
REMARK    7  A    between atoms: C_12  and  C_13
REMARK    8  A    between atoms: C_15  and  C_16
REMARK    9  A    between atoms: C_16  and  O_17
REMARK   10  A    between atoms: C_18  and  O_19
REMARK   11  A    between atoms: C_20  and  O_21
REMARK   12  A    between atoms: C_22  and  O_23
REMARK                            x       y       z     vdW  Elec       q    Type
REMARK                         _______ _______ _______ _____ _____    ______ ____
ROOT
ATOM      1  C   UNL     1       0.954   9.491  19.413  0.00  0.00    +0.000 A 
ATOM      2  C   UNL     1       1.753   8.446  18.903  0.00  0.00    +0.000 A 
ATOM      3  C   UNL     1       2.112   7.335  19.690  0.00  0.00    +0.000 A 
ATOM      4  C   UNL     1       1.667   7.289  21.017  0.00  0.00    +0.000 A 
ATOM      5  C   UNL     1       0.854   8.301  21.530  0.00  0.00    +0.000 A 
ATOM      6  C   UNL     1       0.495   9.392  20.735  0.00  0.00    +0.000 A 
ATOM      7 CL   UNL     1      -0.524  10.588  21.454  0.00  0.00    +0.000 Cl
ENDROOT
BRANCH   3   8
ATOM      8  C   UNL     1       2.977   6.230  19.098  0.00  0.00    +0.000 C 
ATOM      9  O   UNL     1       3.907   6.828  18.179  0.00  0.00    +0.000 OA
ATOM     10  C   UNL     1       4.824   5.889  17.595  0.00  0.00    +0.000 C 
ATOM     11  C   UNL     1       4.076   4.818  16.798  0.00  0.00    +0.000 C 
ATOM     12  C   UNL     1       3.061   4.123  17.718  0.00  0.00    +0.000 C 
ATOM     13  C   UNL     1       2.130   5.142  18.400  0.00  0.00    +0.000 C 
BRANCH  11  14
ATOM     14  O   UNL     1       5.010   3.885  16.249  0.00  0.00    +0.000 OA
ATOM     15  H   UNL     1       5.911   4.156  16.498  0.00  0.00    +0.000 HD
ENDBRANCH  11  14
BRANCH  12  16
ATOM     16  O   UNL     1       2.320   3.139  16.984  0.00  0.00    +0.000 OA
ATOM     17  H   UNL     1       2.437   3.313  16.031  0.00  0.00    +0.000 HD
ENDBRANCH  12  16
BRANCH  13  18
ATOM     18  O   UNL     1       1.267   4.462  19.322  0.00  0.00    +0.000 OA
ATOM     19  H   UNL     1       1.673   4.476  20.206  0.00  0.00    +0.000 HD
ENDBRANCH  13  18
BRANCH  10  20
ATOM     20  C   UNL     1       5.788   6.679  16.702  0.00  0.00    +0.000 C 
BRANCH  20  21
ATOM     21  O   UNL     1       5.256   6.752  15.377  0.00  0.00    +0.000 OA
ATOM     22  H   UNL     1       4.416   7.243  15.449  0.00  0.00    +0.000 HD
ENDBRANCH  20  21
ENDBRANCH  10  20
ENDBRANCH   3   8
BRANCH   1  23
ATOM     23  C   UNL     1       0.625  10.658  18.503  0.00  0.00    +0.000 C 
BRANCH  23  27
ATOM     24  C   UNL     1      -3.454  10.942  17.426  0.00  0.00    +0.000 A 
ATOM     25  C   UNL     1      -2.752   9.841  16.988  0.00  0.00    +0.000 A 
ATOM     26  C   UNL     1      -1.415   9.726  17.338  0.00  0.00    +0.000 A 
ATOM     27  C   UNL     1      -0.820  10.734  18.084  0.00  0.00    +0.000 A 
ATOM     28  N   UNL     1      -1.541  11.813  18.478  0.00  0.00    +0.000 NA
ATOM     29  N   UNL     1      -2.872  11.920  18.149  0.00  0.00    +0.000 NA
BRANCH  24  30
ATOM     30  O   UNL     1      -4.774  11.012  17.050  0.00  0.00    +0.000 OA
BRANCH  30  32
ATOM     31  C   UNL     1      -6.384  12.737  17.149  0.00  0.00    +0.000 C 
ATOM     32  C   UNL     1      -5.640  11.686  17.972  0.00  0.00    +0.000 C 
ATOM     33  C   UNL     1      -6.643  10.705  18.579  0.00  0.00    +0.000 C 
ENDBRANCH  30  32
ENDBRANCH  24  30
ENDBRANCH  23  27
ENDBRANCH   1  23
TORSDOF 10
ENDMDL
MODEL 4
REMARK VINA RESULT:      -7.7      1.102      1.294
REMARK  Name = 
REMARK  12 active torsions:
REMARK  status: ('A' for Active; 'I' for Inactive)
REMARK    1  A    between atoms: C_1  and  C_2
REMARK    2  A    between atoms: C_2  and  C_3
REMARK    3  A    between atoms: C_2  and  O_4
REMARK    4  A    between atoms: O_4  and  C_5
REMARK    5  A    between atoms: C_8  and  C_9
REMARK    6  A    between atoms: C_9  and  C_10
REMARK    7  A    between atoms: C_12  and  C_13
REMARK    8  A    between atoms: C_15  and  C_16
REMARK    9  A    between atoms: C_16  and  O_17
REMARK   10  A    between atoms: C_18  and  O_19
REMARK   11  A    between atoms: C_20  and  O_21
REMARK   12  A    between atoms: C_22  and  O_23
REMARK                            x       y       z     vdW  Elec       q    Type
REMARK                         _______ _______ _______ _____ _____    ______ ____
ROOT
ATOM      1  C   UNL     1       3.848   4.510  19.502  0.00  0.00    +0.000 A 
ATOM      2  C   UNL     1       3.555   5.872  19.726  0.00  0.00    +0.000 A 
ATOM      3  C   UNL     1       2.233   6.331  19.877  0.00  0.00    +0.000 A 
ATOM      4  C   UNL     1       1.191   5.400  19.787  0.00  0.00    +0.000 A 
ATOM      5  C   UNL     1       1.463   4.045  19.592  0.00  0.00    +0.000 A 
ATOM      6  C   UNL     1       2.781   3.600  19.455  0.00  0.00    +0.000 A 
ATOM      7 CL   UNL     1       3.018   1.904  19.230  0.00  0.00    +0.000 Cl
ENDROOT
BRANCH   3   8
ATOM      8  C   UNL     1       1.965   7.811  20.117  0.00  0.00    +0.000 C 
ATOM      9  O   UNL     1       0.969   7.928  21.147  0.00  0.00    +0.000 OA
ATOM     10  C   UNL     1       0.671   9.286  21.508  0.00  0.00    +0.000 C 
ATOM     11  C   UNL     1       0.127  10.064  20.308  0.00  0.00    +0.000 C 
ATOM     12  C   UNL     1       1.144   9.993  19.160  0.00  0.00    +0.000 C 
ATOM     13  C   UNL     1       1.517   8.536  18.828  0.00  0.00    +0.000 C 
BRANCH  11  14
ATOM     14  O   UNL     1      -0.138  11.416  20.689  0.00  0.00    +0.000 OA
ATOM     15  H   UNL     1      -0.158  11.972  19.890  0.00  0.00    +0.000 HD
ENDBRANCH  11  14
BRANCH  12  16
ATOM     16  O   UNL     1       0.640  10.684  18.009  0.00  0.00    +0.000 OA
ATOM     17  H   UNL     1      -0.051  10.132  17.596  0.00  0.00    +0.000 HD
ENDBRANCH  12  16
BRANCH  13  18
ATOM     18  O   UNL     1       2.540   8.519  17.822  0.00  0.00    +0.000 OA
ATOM     19  H   UNL     1       3.209   9.189  18.038  0.00  0.00    +0.000 HD
ENDBRANCH  13  18
BRANCH  10  20
ATOM     20  C   UNL     1      -0.345   9.246  22.656  0.00  0.00    +0.000 C 
BRANCH  20  21
ATOM     21  O   UNL     1      -0.243  10.450  23.422  0.00  0.00    +0.000 OA
ATOM     22  H   UNL     1       0.208  11.098  22.849  0.00  0.00    +0.000 HD
ENDBRANCH  20  21
ENDBRANCH  10  20
ENDBRANCH   3   8
BRANCH   1  23
ATOM     23  C   UNL     1       5.299   4.100  19.336  0.00  0.00    +0.000 C 
BRANCH  23  27
ATOM     24  C   UNL     1       7.057   5.032  15.606  0.00  0.00    +0.000 A 
ATOM     25  C   UNL     1       5.693   5.185  15.725  0.00  0.00    +0.000 A 
ATOM     26  C   UNL     1       5.099   4.892  16.944  0.00  0.00    +0.000 A 
ATOM     27  C   UNL     1       5.887   4.425  17.987  0.00  0.00    +0.000 A 
ATOM     28  N   UNL     1       7.223   4.268  17.822  0.00  0.00    +0.000 NA
ATOM     29  N   UNL     1       7.818   4.576  16.620  0.00  0.00    +0.000 NA
BRANCH  24  30
ATOM     30  O   UNL     1       7.597   5.332  14.378  0.00  0.00    +0.000 OA
BRANCH  30  32
ATOM     31  C   UNL     1       7.646   5.264  12.017  0.00  0.00    +0.000 C 
ATOM     32  C   UNL     1       6.787   4.982  13.249  0.00  0.00    +0.000 C 
ATOM     33  C   UNL     1       6.424   3.497  13.291  0.00  0.00    +0.000 C 
ENDBRANCH  30  32
ENDBRANCH  24  30
ENDBRANCH  23  27
ENDBRANCH   1  23
TORSDOF 10
ENDMDL
MODEL 5
REMARK VINA RESULT:      -7.7      4.954      9.196
REMARK  Name = 
REMARK  12 active torsions:
REMARK  status: ('A' for Active; 'I' for Inactive)
REMARK    1  A    between atoms: C_1  and  C_2
REMARK    2  A    between atoms: C_2  and  C_3
REMARK    3  A    between atoms: C_2  and  O_4
REMARK    4  A    between atoms: O_4  and  C_5
REMARK    5  A    between atoms: C_8  and  C_9
REMARK    6  A    between atoms: C_9  and  C_10
REMARK    7  A    between atoms: C_12  and  C_13
REMARK    8  A    between atoms: C_15  and  C_16
REMARK    9  A    between atoms: C_16  and  O_17
REMARK   10  A    between atoms: C_18  and  O_19
REMARK   11  A    between atoms: C_20  and  O_21
REMARK   12  A    between atoms: C_22  and  O_23
REMARK                            x       y       z     vdW  Elec       q    Type
REMARK                         _______ _______ _______ _____ _____    ______ ____
ROOT
ATOM      1  C   UNL     1       1.046   9.466  19.294  0.00  0.00    +0.000 A 
ATOM      2  C   UNL     1       1.709   8.521  18.482  0.00  0.00    +0.000 A 
ATOM      3  C   UNL     1       2.176   7.298  18.996  0.00  0.00    +0.000 A 
ATOM      4  C   UNL     1       1.981   7.031  20.358  0.00  0.00    +0.000 A 
ATOM      5  C   UNL     1       1.304   7.942  21.170  0.00  0.00    +0.000 A 
ATOM      6  C   UNL     1       0.835   9.148  20.644  0.00  0.00    +0.000 A 
ATOM      7 CL   UNL     1      -0.002  10.205  21.725  0.00  0.00    +0.000 Cl
ENDROOT
BRANCH   3   8
ATOM      8  C   UNL     1       2.886   6.309  18.082  0.00  0.00    +0.000 C 
ATOM      9  O   UNL     1       3.200   5.132  18.845  0.00  0.00    +0.000 OA
ATOM     10  C   UNL     1       3.823   4.094  18.074  0.00  0.00    +0.000 C 
ATOM     11  C   UNL     1       5.149   4.574  17.480  0.00  0.00    +0.000 C 
ATOM     12  C   UNL     1       4.896   5.833  16.638  0.00  0.00    +0.000 C 
ATOM     13  C   UNL     1       4.160   6.915  17.449  0.00  0.00    +0.000 C 
BRANCH  11  14
ATOM     14  O   UNL     1       5.735   3.531  16.699  0.00  0.00    +0.000 OA
ATOM     15  H   UNL     1       5.541   3.692  15.758  0.00  0.00    +0.000 HD
ENDBRANCH  11  14
BRANCH  12  16
ATOM     16  O   UNL     1       6.131   6.326  16.100  0.00  0.00    +0.000 OA
ATOM     17  H   UNL     1       6.121   6.190  15.134  0.00  0.00    +0.000 HD
ENDBRANCH  12  16
BRANCH  13  18
ATOM     18  O   UNL     1       3.856   8.030  16.599  0.00  0.00    +0.000 OA
ATOM     19  H   UNL     1       3.828   7.727  15.676  0.00  0.00    +0.000 HD
ENDBRANCH  13  18
BRANCH  10  20
ATOM     20  C   UNL     1       4.030   2.889  19.001  0.00  0.00    +0.000 C 
BRANCH  20  21
ATOM     21  O   UNL     1       5.350   2.933  19.549  0.00  0.00    +0.000 OA
ATOM     22  H   UNL     1       5.375   3.714  20.133  0.00  0.00    +0.000 HD
ENDBRANCH  20  21
ENDBRANCH  10  20
ENDBRANCH   3   8
BRANCH   1  23
ATOM     23  C   UNL     1       0.587  10.766  18.663  0.00  0.00    +0.000 C 
BRANCH  23  27
ATOM     24  C   UNL     1      -3.513  10.869  17.635  0.00  0.00    +0.000 A 
ATOM     25  C   UNL     1      -2.724   9.918  17.025  0.00  0.00    +0.000 A 
ATOM     26  C   UNL     1      -1.379   9.863  17.356  0.00  0.00    +0.000 A 
ATOM     27  C   UNL     1      -0.864  10.784  18.258  0.00  0.00    +0.000 A 
ATOM     28  N   UNL     1      -1.670  11.719  18.820  0.00  0.00    +0.000 NA
ATOM     29  N   UNL     1      -3.009  11.763  18.509  0.00  0.00    +0.000 NA
BRANCH  24  30
ATOM     30  O   UNL     1      -4.838  10.885  17.271  0.00  0.00    +0.000 OA
BRANCH  30  32
ATOM     31  C   UNL     1      -6.369  12.683  17.293  0.00  0.00    +0.000 C 
ATOM     32  C   UNL     1      -5.708  11.606  18.152  0.00  0.00    +0.000 C 
ATOM     33  C   UNL     1      -6.779  10.678  18.725  0.00  0.00    +0.000 C 
ENDBRANCH  30  32
ENDBRANCH  24  30
ENDBRANCH  23  27
ENDBRANCH   1  23
TORSDOF 10
ENDMDL
MODEL 6
REMARK VINA RESULT:      -7.6      4.862      9.146
REMARK  Name = 
REMARK  12 active torsions:
REMARK  status: ('A' for Active; 'I' for Inactive)
REMARK    1  A    between atoms: C_1  and  C_2
REMARK    2  A    between atoms: C_2  and  C_3
REMARK    3  A    between atoms: C_2  and  O_4
REMARK    4  A    between atoms: O_4  and  C_5
REMARK    5  A    between atoms: C_8  and  C_9
REMARK    6  A    between atoms: C_9  and  C_10
REMARK    7  A    between atoms: C_12  and  C_13
REMARK    8  A    between atoms: C_15  and  C_16
REMARK    9  A    between atoms: C_16  and  O_17
REMARK   10  A    between atoms: C_18  and  O_19
REMARK   11  A    between atoms: C_20  and  O_21
REMARK   12  A    between atoms: C_22  and  O_23
REMARK                            x       y       z     vdW  Elec       q    Type
REMARK                         _______ _______ _______ _____ _____    ______ ____
ROOT
ATOM      1  C   UNL     1       1.361   9.146  19.094  0.00  0.00    +0.000 A 
ATOM      2  C   UNL     1       1.851   7.976  18.477  0.00  0.00    +0.000 A 
ATOM      3  C   UNL     1       2.127   6.809  19.213  0.00  0.00    +0.000 A 
ATOM      4  C   UNL     1       1.918   6.830  20.598  0.00  0.00    +0.000 A 
ATOM      5  C   UNL     1       1.409   7.970  21.222  0.00  0.00    +0.000 A 
ATOM      6  C   UNL     1       1.128   9.119  20.478  0.00  0.00    +0.000 A 
ATOM      7 CL   UNL     1       0.489  10.476  21.336  0.00  0.00    +0.000 Cl
ENDROOT
BRANCH   3   8
ATOM      8  C   UNL     1       2.655   5.569  18.504  0.00  0.00    +0.000 C 
ATOM      9  O   UNL     1       1.860   4.442  18.911  0.00  0.00    +0.000 OA
ATOM     10  C   UNL     1       2.223   3.215  18.260  0.00  0.00    +0.000 C 
ATOM     11  C   UNL     1       3.673   2.839  18.572  0.00  0.00    +0.000 C 
ATOM     12  C   UNL     1       4.593   3.996  18.156  0.00  0.00    +0.000 C 
ATOM     13  C   UNL     1       4.153   5.325  18.797  0.00  0.00    +0.000 C 
BRANCH  11  14
ATOM     14  O   UNL     1       4.015   1.629  17.894  0.00  0.00    +0.000 OA
ATOM     15  H   UNL     1       3.739   0.871  18.440  0.00  0.00    +0.000 HD
ENDBRANCH  11  14
BRANCH  12  16
ATOM     16  O   UNL     1       5.957   3.684  18.473  0.00  0.00    +0.000 OA
ATOM     17  H   UNL     1       6.399   3.378  17.659  0.00  0.00    +0.000 HD
ENDBRANCH  12  16
BRANCH  13  18
ATOM     18  O   UNL     1       4.975   6.393  18.305  0.00  0.00    +0.000 OA
ATOM     19  H   UNL     1       4.728   6.585  17.385  0.00  0.00    +0.000 HD
ENDBRANCH  13  18
BRANCH  10  20
ATOM     20  C   UNL     1       1.250   2.131  18.740  0.00  0.00    +0.000 C 
BRANCH  20  21
ATOM     21  O   UNL     1       0.395   2.675  19.750  0.00  0.00    +0.000 OA
ATOM     22  H   UNL     1       0.216   1.946  20.373  0.00  0.00    +0.000 HD
ENDBRANCH  20  21
ENDBRANCH  10  20
ENDBRANCH   3   8
BRANCH   1  23
ATOM     23  C   UNL     1       1.103  10.366  18.231  0.00  0.00    +0.000 C 
BRANCH  23  27
ATOM     24  C   UNL     1      -2.970  11.442  17.875  0.00  0.00    +0.000 A 
ATOM     25  C   UNL     1      -2.602  10.183  17.453  0.00  0.00    +0.000 A 
ATOM     26  C   UNL     1      -1.271   9.808  17.569  0.00  0.00    +0.000 A 
ATOM     27  C   UNL     1      -0.352  10.720  18.072  0.00  0.00    +0.000 A 
ATOM     28  N   UNL     1      -0.752  11.957  18.457  0.00  0.00    +0.000 NA
ATOM     29  N   UNL     1      -2.074  12.324  18.361  0.00  0.00    +0.000 NA
BRANCH  24  30
ATOM     30  O   UNL     1      -4.298  11.766  17.736  0.00  0.00    +0.000 OA
BRANCH  30  32
ATOM     31  C   UNL     1      -5.603  12.926  19.327  0.00  0.00    +0.000 C 
ATOM     32  C   UNL     1      -5.108  11.545  18.898  0.00  0.00    +0.000 C 
ATOM     33  C   UNL     1      -6.304  10.657  18.555  0.00  0.00    +0.000 C 
ENDBRANCH  30  32
ENDBRANCH  24  30
ENDBRANCH  23  27
ENDBRANCH   1  23
TORSDOF 10
ENDMDL
MODEL 7
REMARK VINA RESULT:      -7.5      1.365      1.672
REMARK  Name = 
REMARK  12 active torsions:
REMARK  status: ('A' for Active; 'I' for Inactive)
REMARK    1  A    between atoms: C_1  and  C_2
REMARK    2  A    between atoms: C_2  and  C_3
REMARK    3  A    between atoms: C_2  and  O_4
REMARK    4  A    between atoms: O_4  and  C_5
REMARK    5  A    between atoms: C_8  and  C_9
REMARK    6  A    between atoms: C_9  and  C_10
REMARK    7  A    between atoms: C_12  and  C_13
REMARK    8  A    between atoms: C_15  and  C_16
REMARK    9  A    between atoms: C_16  and  O_17
REMARK   10  A    between atoms: C_18  and  O_19
REMARK   11  A    between atoms: C_20  and  O_21
REMARK   12  A    between atoms: C_22  and  O_23
REMARK                            x       y       z     vdW  Elec       q    Type
REMARK                         _______ _______ _______ _____ _____    ______ ____
ROOT
ATOM      1  C   UNL     1       3.403   4.244  19.706  0.00  0.00    +0.000 A 
ATOM      2  C   UNL     1       3.259   5.644  19.803  0.00  0.00    +0.000 A 
ATOM      3  C   UNL     1       2.041   6.240  20.182  0.00  0.00    +0.000 A 
ATOM      4  C   UNL     1       0.948   5.406  20.452  0.00  0.00    +0.000 A 
ATOM      5  C   UNL     1       1.080   4.019  20.386  0.00  0.00    +0.000 A 
ATOM      6  C   UNL     1       2.298   3.439  20.021  0.00  0.00    +0.000 A 
ATOM      7 CL   UNL     1       2.367   1.713  19.980  0.00  0.00    +0.000 Cl
ENDROOT
BRANCH   3   8
ATOM      8  C   UNL     1       1.931   7.756  20.273  0.00  0.00    +0.000 C 
ATOM      9  O   UNL     1       0.928   8.079  21.251  0.00  0.00    +0.000 OA
ATOM     10  C   UNL     1       0.773   9.489  21.474  0.00  0.00    +0.000 C 
ATOM     11  C   UNL     1       0.350  10.202  20.188  0.00  0.00    +0.000 C 
ATOM     12  C   UNL     1       1.381   9.911  19.088  0.00  0.00    +0.000 C 
ATOM     13  C   UNL     1       1.600   8.398  18.906  0.00  0.00    +0.000 C 
BRANCH  11  14
ATOM     14  O   UNL     1       0.225  11.605  20.432  0.00  0.00    +0.000 OA
ATOM     15  H   UNL     1       0.843  12.083  19.850  0.00  0.00    +0.000 HD
ENDBRANCH  11  14
BRANCH  12  16
ATOM     16  O   UNL     1       0.987  10.538  17.860  0.00  0.00    +0.000 OA
ATOM     17  H   UNL     1       1.775  10.624  17.291  0.00  0.00    +0.000 HD
ENDBRANCH  12  16
BRANCH  13  18
ATOM     18  O   UNL     1       2.640   8.174  17.944  0.00  0.00    +0.000 OA
ATOM     19  H   UNL     1       3.502   8.324  18.368  0.00  0.00    +0.000 HD
ENDBRANCH  13  18
BRANCH  10  20
ATOM     20  C   UNL     1      -0.271   9.670  22.583  0.00  0.00    +0.000 C 
BRANCH  20  21
ATOM     21  O   UNL     1       0.385   9.680  23.854  0.00  0.00    +0.000 OA
ATOM     22  H   UNL     1      -0.316   9.815  24.519  0.00  0.00    +0.000 HD
ENDBRANCH  20  21
ENDBRANCH  10  20
ENDBRANCH   3   8
BRANCH   1  23
ATOM     23  C   UNL     1       4.746   3.684  19.278  0.00  0.00    +0.000 C 
BRANCH  23  27
ATOM     24  C   UNL     1       6.132   5.172  15.571  0.00  0.00    +0.000 A 
ATOM     25  C   UNL     1       6.987   5.245  16.649  0.00  0.00    +0.000 A 
ATOM     26  C   UNL     1       6.553   4.754  17.872  0.00  0.00    +0.000 A 
ATOM     27  C   UNL     1       5.267   4.240  17.978  0.00  0.00    +0.000 A 
ATOM     28  N   UNL     1       4.449   4.206  16.898  0.00  0.00    +0.000 NA
ATOM     29  N   UNL     1       4.884   4.674  15.680  0.00  0.00    +0.000 NA
BRANCH  24  30
ATOM     30  O   UNL     1       6.607   5.674  14.383  0.00  0.00    +0.000 OA
BRANCH  30  32
ATOM     31  C   UNL     1       6.424   3.838  12.909  0.00  0.00    +0.000 C 
ATOM     32  C   UNL     1       7.409   4.771  13.613  0.00  0.00    +0.000 C 
ATOM     33  C   UNL     1       8.225   5.536  12.570  0.00  0.00    +0.000 C 
ENDBRANCH  30  32
ENDBRANCH  24  30
ENDBRANCH  23  27
ENDBRANCH   1  23
TORSDOF 10
ENDMDL
MODEL 8
REMARK VINA RESULT:      -7.5      4.607      9.157
REMARK  Name = 
REMARK  12 active torsions:
REMARK  status: ('A' for Active; 'I' for Inactive)
REMARK    1  A    between atoms: C_1  and  C_2
REMARK    2  A    between atoms: C_2  and  C_3
REMARK    3  A    between atoms: C_2  and  O_4
REMARK    4  A    between atoms: O_4  and  C_5
REMARK    5  A    between atoms: C_8  and  C_9
REMARK    6  A    between atoms: C_9  and  C_10
REMARK    7  A    between atoms: C_12  and  C_13
REMARK    8  A    between atoms: C_15  and  C_16
REMARK    9  A    between atoms: C_16  and  O_17
REMARK   10  A    between atoms: C_18  and  O_19
REMARK   11  A    between atoms: C_20  and  O_21
REMARK   12  A    between atoms: C_22  and  O_23
REMARK                            x       y       z     vdW  Elec       q    Type
REMARK                         _______ _______ _______ _____ _____    ______ ____
ROOT
ATOM      1  C   UNL     1       1.294   9.219  19.142  0.00  0.00    +0.000 A 
ATOM      2  C   UNL     1       1.971   8.330  18.279  0.00  0.00    +0.000 A 
ATOM      3  C   UNL     1       2.442   7.080  18.722  0.00  0.00    +0.000 A 
ATOM      4  C   UNL     1       2.239   6.730  20.063  0.00  0.00    +0.000 A 
ATOM      5  C   UNL     1       1.549   7.584  20.924  0.00  0.00    +0.000 A 
ATOM      6  C   UNL     1       1.075   8.817  20.468  0.00  0.00    +0.000 A 
ATOM      7 CL   UNL     1       0.222   9.801  21.604  0.00  0.00    +0.000 Cl
ENDROOT
BRANCH   3   8
ATOM      8  C   UNL     1       3.167   6.154  17.755  0.00  0.00    +0.000 C 
ATOM      9  O   UNL     1       2.847   4.797  18.103  0.00  0.00    +0.000 OA
ATOM     10  C   UNL     1       3.427   3.824  17.221  0.00  0.00    +0.000 C 
ATOM     11  C   UNL     1       4.955   3.912  17.237  0.00  0.00    +0.000 C 
ATOM     12  C   UNL     1       5.380   5.339  16.866  0.00  0.00    +0.000 C 
ATOM     13  C   UNL     1       4.696   6.384  17.767  0.00  0.00    +0.000 C 
BRANCH  11  14
ATOM     14  O   UNL     1       5.504   2.950  16.335  0.00  0.00    +0.000 OA
ATOM     15  H   UNL     1       4.817   2.686  15.697  0.00  0.00    +0.000 HD
ENDBRANCH  11  14
BRANCH  12  16
ATOM     16  O   UNL     1       6.809   5.458  16.911  0.00  0.00    +0.000 OA
ATOM     17  H   UNL     1       7.067   5.723  17.814  0.00  0.00    +0.000 HD
ENDBRANCH  12  16
BRANCH  13  18
ATOM     18  O   UNL     1       5.042   7.703  17.323  0.00  0.00    +0.000 OA
ATOM     19  H   UNL     1       5.944   7.690  16.960  0.00  0.00    +0.000 HD
ENDBRANCH  13  18
BRANCH  10  20
ATOM     20  C   UNL     1       2.942   2.441  17.674  0.00  0.00    +0.000 C 
BRANCH  20  21
ATOM     21  O   UNL     1       3.995   1.776  18.378  0.00  0.00    +0.000 OA
ATOM     22  H   UNL     1       3.657   1.612  19.278  0.00  0.00    +0.000 HD
ENDBRANCH  20  21
ENDBRANCH  10  20
ENDBRANCH   3   8
BRANCH   1  23
ATOM     23  C   UNL     1       0.831  10.552  18.588  0.00  0.00    +0.000 C 
BRANCH  23  27
ATOM     24  C   UNL     1      -3.261  10.676  17.531  0.00  0.00    +0.000 A 
ATOM     25  C   UNL     1      -2.832  11.524  18.529  0.00  0.00    +0.000 A 
ATOM     26  C   UNL     1      -1.491  11.504  18.884  0.00  0.00    +0.000 A 
ATOM     27  C   UNL     1      -0.636  10.611  18.251  0.00  0.00    +0.000 A 
ATOM     28  N   UNL     1      -1.102   9.778  17.289  0.00  0.00    +0.000 NA
ATOM     29  N   UNL     1      -2.427   9.810  16.921  0.00  0.00    +0.000 NA
BRANCH  24  30
ATOM     30  O   UNL     1      -4.598  10.731  17.219  0.00  0.00    +0.000 OA
BRANCH  30  32
ATOM     31  C   UNL     1      -6.043  12.600  17.213  0.00  0.00    +0.000 C 
ATOM     32  C   UNL     1      -5.400  11.531  18.097  0.00  0.00    +0.000 C 
ATOM     33  C   UNL     1      -6.491  10.681  18.748  0.00  0.00    +0.000 C 
ENDBRANCH  30  32
ENDBRANCH  24  30
ENDBRANCH  23  27
ENDBRANCH   1  23
TORSDOF 10
ENDMDL
MODEL 9
REMARK VINA RESULT:      -7.5      2.866      4.020
REMARK  Name = 
REMARK  12 active torsions:
REMARK  status: ('A' for Active; 'I' for Inactive)
REMARK    1  A    between atoms: C_1  and  C_2
REMARK    2  A    between atoms: C_2  and  C_3
REMARK    3  A    between atoms: C_2  and  O_4
REMARK    4  A    between atoms: O_4  and  C_5
REMARK    5  A    between atoms: C_8  and  C_9
REMARK    6  A    between atoms: C_9  and  C_10
REMARK    7  A    between atoms: C_12  and  C_13
REMARK    8  A    between atoms: C_15  and  C_16
REMARK    9  A    between atoms: C_16  and  O_17
REMARK   10  A    between atoms: C_18  and  O_19
REMARK   11  A    between atoms: C_20  and  O_21
REMARK   12  A    between atoms: C_22  and  O_23
REMARK                            x       y       z     vdW  Elec       q    Type
REMARK                         _______ _______ _______ _____ _____    ______ ____
ROOT
ATOM      1  C   UNL     1       3.957   4.741  19.092  0.00  0.00    +0.000 A 
ATOM      2  C   UNL     1       3.549   6.083  19.245  0.00  0.00    +0.000 A 
ATOM      3  C   UNL     1       2.389   6.429  19.962  0.00  0.00    +0.000 A 
ATOM      4  C   UNL     1       1.621   5.400  20.521  0.00  0.00    +0.000 A 
ATOM      5  C   UNL     1       2.023   4.069  20.402  0.00  0.00    +0.000 A 
ATOM      6  C   UNL     1       3.184   3.739  19.698  0.00  0.00    +0.000 A 
ATOM      7 CL   UNL     1       3.607   2.066  19.617  0.00  0.00    +0.000 Cl
ENDROOT
BRANCH   3   8
ATOM      8  C   UNL     1       1.988   7.891  20.101  0.00  0.00    +0.000 C 
ATOM      9  O   UNL     1       1.022   7.997  21.160  0.00  0.00    +0.000 OA
ATOM     10  C   UNL     1       0.607   9.345  21.430  0.00  0.00    +0.000 C 
ATOM     11  C   UNL     1      -0.051   9.972  20.199  0.00  0.00    +0.000 C 
ATOM     12  C   UNL     1       0.927   9.905  19.017  0.00  0.00    +0.000 C 
ATOM     13  C   UNL     1       1.427   8.468  18.780  0.00  0.00    +0.000 C 
BRANCH  11  14
ATOM     14  O   UNL     1      -0.432  11.319  20.488  0.00  0.00    +0.000 OA
ATOM     15  H   UNL     1      -0.094  11.561  21.369  0.00  0.00    +0.000 HD
ENDBRANCH  11  14
BRANCH  12  16
ATOM     16  O   UNL     1       0.320  10.453  17.840  0.00  0.00    +0.000 OA
ATOM     17  H   UNL     1      -0.012  11.346  18.052  0.00  0.00    +0.000 HD
ENDBRANCH  12  16
BRANCH  13  18
ATOM     18  O   UNL     1       2.411   8.466  17.736  0.00  0.00    +0.000 OA
ATOM     19  H   UNL     1       3.243   8.103  18.085  0.00  0.00    +0.000 HD
ENDBRANCH  13  18
BRANCH  10  20
ATOM     20  C   UNL     1      -0.360   9.302  22.620  0.00  0.00    +0.000 C 
BRANCH  20  21
ATOM     21  O   UNL     1       0.338   9.672  23.812  0.00  0.00    +0.000 OA
ATOM     22  H   UNL     1       1.175  10.078  23.521  0.00  0.00    +0.000 HD
ENDBRANCH  20  21
ENDBRANCH  10  20
ENDBRANCH   3   8
BRANCH   1  23
ATOM     23  C   UNL     1       5.213   4.454  18.292  0.00  0.00    +0.000 C 
BRANCH  23  27
ATOM     24  C   UNL     1       7.758   7.781  17.720  0.00  0.00    +0.000 A 
ATOM     25  C   UNL     1       8.085   6.890  18.719  0.00  0.00    +0.000 A 
ATOM     26  C   UNL     1       7.266   5.788  18.917  0.00  0.00    +0.000 A 
ATOM     27  C   UNL     1       6.132   5.636  18.130  0.00  0.00    +0.000 A 
ATOM     28  N   UNL     1       5.835   6.547  17.171  0.00  0.00    +0.000 NA
ATOM     29  N   UNL     1       6.655   7.630  16.960  0.00  0.00    +0.000 NA
BRANCH  24  30
ATOM     30  O   UNL     1       8.599   8.858  17.567  0.00  0.00    +0.000 OA
BRANCH  30  32
ATOM     31  C   UNL     1       9.461  10.103  19.379  0.00  0.00    +0.000 C 
ATOM     32  C   UNL     1       8.300   9.991  18.391  0.00  0.00    +0.000 C 
ATOM     33  C   UNL     1       8.223  11.262  17.546  0.00  0.00    +0.000 C 
ENDBRANCH  30  32
ENDBRANCH  24  30
ENDBRANCH  23  27
ENDBRANCH   1  23
TORSDOF 10
ENDMDL
