MODEL 1
REMARK VINA RESULT:      -6.3      0.000      0.000
REMARK  Name = 
REMARK  10 active torsions:
REMARK  status: ('A' for Active; 'I' for Inactive)
REMARK    1  A    between atoms: C_1  and  O_2
REMARK    2  A    between atoms: O_2  and  C_3
REMARK    3  A    between atoms: C_6  and  C_7
REMARK    4  A    between atoms: C_8  and  C_9
REMARK    5  A    between atoms: C_11  and  S_12
REMARK    6  A    between atoms: N_13  and  N_14
REMARK    7  A    between atoms: N_14  and  S_15
REMARK    8  A    between atoms: S_15  and  C_18
REMARK    9  A    between atoms: C_21  and  C_22
REMARK   10  A    between atoms: C_27  and  C_28
REMARK                            x       y       z     vdW  Elec       q    Type
REMARK                         _______ _______ _______ _____ _____    ______ ____
ROOT
ATOM      1  C   UNL     1      -3.090  12.554  20.744  0.00  0.00    +0.000 A 
ATOM      2  C   UNL     1      -2.719  11.833  19.552  0.00  0.00    +0.000 A 
ATOM      3  C   UNL     1      -1.495  11.223  19.465  0.00  0.00    +0.000 A 
ATOM      4  N   UNL     1      -0.585  11.308  20.531  0.00  0.00    +0.000 N 
ATOM      5  C   UNL     1      -0.887  11.933  21.731  0.00  0.00    +0.000 A 
ATOM      6  O   UNL     1      -0.189  11.940  22.738  0.00  0.00    +0.000 OA
ATOM      7  C   UNL     1      -2.210  12.565  21.768  0.00  0.00    +0.000 A 
ENDROOT
BRANCH   1  11
ATOM      8  C   UNL     1      -6.802  14.688  21.114  0.00  0.00    +0.000 A 
ATOM      9  C   UNL     1      -5.631  15.356  20.758  0.00  0.00    +0.000 A 
ATOM     10  C   UNL     1      -4.431  14.657  20.600  0.00  0.00    +0.000 A 
ATOM     11  C   UNL     1      -4.379  13.281  20.860  0.00  0.00    +0.000 A 
ATOM     12  C   UNL     1      -5.551  12.617  21.248  0.00  0.00    +0.000 A 
ATOM     13  C   UNL     1      -6.758  13.318  21.372  0.00  0.00    +0.000 A 
BRANCH   8  15
ATOM     14  C   UNL     1      -7.725  16.753  21.804  0.00  0.00    +0.000 C 
ATOM     15  O   UNL     1      -7.916  15.476  21.203  0.00  0.00    +0.000 OA
ENDBRANCH   8  15
ENDBRANCH   1  11
BRANCH   2  16
ATOM     16  C   UNL     1      -3.683  11.753  18.380  0.00  0.00    +0.000 C 
ATOM     17  N   UNL     1      -4.482  11.686  17.408  0.00  0.00    +0.000 NA
ENDBRANCH   2  16
BRANCH   3  18
ATOM     18  S   UNL     1      -0.946  10.338  18.053  0.00  0.00    +0.000 S 
ATOM     19  H   UNL     1      -0.695   9.122  18.566  0.00  0.00    +0.000 HD
ENDBRANCH   3  18
BRANCH   4  20
ATOM     20  N   UNL     1       0.727  10.595  20.516  0.00  0.00    +0.000 N 
ATOM     21  H   UNL     1       1.574  11.162  20.580  0.00  0.00    +0.000 HD
BRANCH  20  22
ATOM     22  S   UNL     1       0.795   9.119  21.407  0.00  0.00    +0.000 S 
ATOM     23  O   UNL     1       1.698   9.313  22.514  0.00  0.00    +0.000 OA
ATOM     24  O   UNL     1      -0.544   8.595  21.601  0.00  0.00    +0.000 OA
BRANCH  22  25
ATOM     25  C   UNL     1       1.599   8.034  20.250  0.00  0.00    +0.000 A 
ATOM     26  C   UNL     1       1.810   6.703  20.614  0.00  0.00    +0.000 A 
ATOM     27  C   UNL     1       2.500   5.858  19.744  0.00  0.00    +0.000 A 
ATOM     28  C   UNL     1       2.938   6.328  18.498  0.00  0.00    +0.000 A 
ATOM     29  C   UNL     1       3.643   5.404  17.548  0.00  0.00    +0.000 C 
ATOM     30  C   UNL     1       2.682   7.654  18.127  0.00  0.00    +0.000 A 
ATOM     31  C   UNL     1       2.013   8.511  19.002  0.00  0.00    +0.000 A 
ENDBRANCH  22  25
ENDBRANCH  20  22
ENDBRANCH   4  20
BRANCH   7  32
ATOM     32  C   UNL     1      -2.592  13.280  23.053  0.00  0.00    +0.000 C 
ATOM     33  N   UNL     1      -2.909  13.873  24.120  0.00  0.00    +0.000 NA
ENDBRANCH   7  32
TORSDOF 8
ENDMDL
MODEL 2
REMARK VINA RESULT:      -6.3      0.331      1.273
REMARK  Name = 
REMARK  10 active torsions:
REMARK  status: ('A' for Active; 'I' for Inactive)
REMARK    1  A    between atoms: C_1  and  O_2
REMARK    2  A    between atoms: O_2  and  C_3
REMARK    3  A    between atoms: C_6  and  C_7
REMARK    4  A    between atoms: C_8  and  C_9
REMARK    5  A    between atoms: C_11  and  S_12
REMARK    6  A    between atoms: N_13  and  N_14
REMARK    7  A    between atoms: N_14  and  S_15
REMARK    8  A    between atoms: S_15  and  C_18
REMARK    9  A    between atoms: C_21  and  C_22
REMARK   10  A    between atoms: C_27  and  C_28
REMARK                            x       y       z     vdW  Elec       q    Type
REMARK                         _______ _______ _______ _____ _____    ______ ____
ROOT
ATOM      1  C   UNL     1      -2.915  12.619  20.748  0.00  0.00    +0.000 A 
ATOM      2  C   UNL     1      -2.620  11.845  19.569  0.00  0.00    +0.000 A 
ATOM      3  C   UNL     1      -1.434  11.166  19.466  0.00  0.00    +0.000 A 
ATOM      4  N   UNL     1      -0.490  11.229  20.504  0.00  0.00    +0.000 N 
ATOM      5  C   UNL     1      -0.723  11.904  21.693  0.00  0.00    +0.000 A 
ATOM      6  O   UNL     1       0.004  11.900  22.680  0.00  0.00    +0.000 OA
ATOM      7  C   UNL     1      -2.006  12.610  21.747  0.00  0.00    +0.000 A 
ENDROOT
BRANCH   1  11
ATOM      8  C   UNL     1      -6.535  14.912  21.088  0.00  0.00    +0.000 A 
ATOM      9  C   UNL     1      -6.538  13.540  21.336  0.00  0.00    +0.000 A 
ATOM     10  C   UNL     1      -5.354  12.800  21.263  0.00  0.00    +0.000 A 
ATOM     11  C   UNL     1      -4.158  13.421  20.878  0.00  0.00    +0.000 A 
ATOM     12  C   UNL     1      -4.164  14.794  20.599  0.00  0.00    +0.000 A 
ATOM     13  C   UNL     1      -5.347  15.537  20.706  0.00  0.00    +0.000 A 
BRANCH   8  15
ATOM     14  C   UNL     1      -7.917  16.732  20.480  0.00  0.00    +0.000 C 
ATOM     15  O   UNL     1      -7.747  15.530  21.225  0.00  0.00    +0.000 OA
ENDBRANCH   8  15
ENDBRANCH   1  11
BRANCH   2  16
ATOM     16  C   UNL     1      -3.620  11.786  18.426  0.00  0.00    +0.000 C 
ATOM     17  N   UNL     1      -4.450  11.737  17.479  0.00  0.00    +0.000 NA
ENDBRANCH   2  16
BRANCH   3  18
ATOM     18  S   UNL     1      -0.977  10.212  18.067  0.00  0.00    +0.000 S 
ATOM     19  H   UNL     1       0.351  10.414  18.014  0.00  0.00    +0.000 HD
ENDBRANCH   3  18
BRANCH   4  20
ATOM     20  N   UNL     1       0.779  10.444  20.474  0.00  0.00    +0.000 N 
ATOM     21  H   UNL     1       1.658  10.964  20.485  0.00  0.00    +0.000 HD
BRANCH  20  22
ATOM     22  S   UNL     1       0.799   9.003  21.424  0.00  0.00    +0.000 S 
ATOM     23  O   UNL     1       1.686   9.221  22.538  0.00  0.00    +0.000 OA
ATOM     24  O   UNL     1      -0.555   8.516  21.614  0.00  0.00    +0.000 OA
BRANCH  22  25
ATOM     25  C   UNL     1       1.597   7.856  20.324  0.00  0.00    +0.000 A 
ATOM     26  C   UNL     1       2.054   8.319  19.088  0.00  0.00    +0.000 A 
ATOM     27  C   UNL     1       2.619   7.416  18.188  0.00  0.00    +0.000 A 
ATOM     28  C   UNL     1       2.769   6.066  18.536  0.00  0.00    +0.000 A 
ATOM     29  C   UNL     1       3.417   5.108  17.580  0.00  0.00    +0.000 C 
ATOM     30  C   UNL     1       2.346   5.624  19.796  0.00  0.00    +0.000 A 
ATOM     31  C   UNL     1       1.758   6.516  20.693  0.00  0.00    +0.000 A 
ENDBRANCH  22  25
ENDBRANCH  20  22
ENDBRANCH   4  20
BRANCH   7  32
ATOM     32  C   UNL     1      -2.312  13.381  23.020  0.00  0.00    +0.000 C 
ATOM     33  N   UNL     1      -2.565  14.022  24.076  0.00  0.00    +0.000 NA
ENDBRANCH   7  32
TORSDOF 8
ENDMDL
MODEL 3
REMARK VINA RESULT:      -5.5      2.920      8.903
REMARK  Name = 
REMARK  10 active torsions:
REMARK  status: ('A' for Active; 'I' for Inactive)
REMARK    1  A    between atoms: C_1  and  O_2
REMARK    2  A    between atoms: O_2  and  C_3
REMARK    3  A    between atoms: C_6  and  C_7
REMARK    4  A    between atoms: C_8  and  C_9
REMARK    5  A    between atoms: C_11  and  S_12
REMARK    6  A    between atoms: N_13  and  N_14
REMARK    7  A    between atoms: N_14  and  S_15
REMARK    8  A    between atoms: S_15  and  C_18
REMARK    9  A    between atoms: C_21  and  C_22
REMARK   10  A    between atoms: C_27  and  C_28
REMARK                            x       y       z     vdW  Elec       q    Type
REMARK                         _______ _______ _______ _____ _____    ______ ____
ROOT
ATOM      1  C   UNL     1      -1.266  11.407  19.462  0.00  0.00    +0.000 A 
ATOM      2  C   UNL     1      -2.567  11.281  18.855  0.00  0.00    +0.000 A 
ATOM      3  C   UNL     1      -3.572  12.153  19.186  0.00  0.00    +0.000 A 
ATOM      4  N   UNL     1      -3.346  13.167  20.130  0.00  0.00    +0.000 N 
ATOM      5  C   UNL     1      -2.108  13.390  20.714  0.00  0.00    +0.000 A 
ATOM      6  O   UNL     1      -1.814  14.325  21.450  0.00  0.00    +0.000 OA
ATOM      7  C   UNL     1      -1.073  12.429  20.322  0.00  0.00    +0.000 A 
ENDROOT
BRANCH   1  11
ATOM      8  C   UNL     1       1.940   8.650  18.691  0.00  0.00    +0.000 A 
ATOM      9  C   UNL     1       1.208   8.574  19.874  0.00  0.00    +0.000 A 
ATOM     10  C   UNL     1       0.140   9.445  20.109  0.00  0.00    +0.000 A 
ATOM     11  C   UNL     1      -0.166  10.450  19.181  0.00  0.00    +0.000 A 
ATOM     12  C   UNL     1       0.592  10.544  18.006  0.00  0.00    +0.000 A 
ATOM     13  C   UNL     1       1.639   9.646  17.761  0.00  0.00    +0.000 A 
BRANCH   8  15
ATOM     14  C   UNL     1       2.795   6.549  19.360  0.00  0.00    +0.000 C 
ATOM     15  O   UNL     1       2.936   7.721  18.563  0.00  0.00    +0.000 OA
ENDBRANCH   8  15
ENDBRANCH   1  11
BRANCH   2  16
ATOM     16  C   UNL     1      -2.835  10.172  17.851  0.00  0.00    +0.000 C 
ATOM     17  N   UNL     1      -3.057   9.253  17.018  0.00  0.00    +0.000 NA
ENDBRANCH   2  16
BRANCH   3  18
ATOM     18  S   UNL     1      -5.191  12.071  18.516  0.00  0.00    +0.000 S 
ATOM     19  H   UNL     1      -4.946  11.764  17.231  0.00  0.00    +0.000 HD
ENDBRANCH   3  18
BRANCH   4  20
ATOM     20  N   UNL     1      -4.383  14.189  20.463  0.00  0.00    +0.000 N 
ATOM     21  H   UNL     1      -4.802  14.707  19.690  0.00  0.00    +0.000 HD
BRANCH  20  22
ATOM     22  S   UNL     1      -5.494  13.757  21.711  0.00  0.00    +0.000 S 
ATOM     23  O   UNL     1      -6.823  13.815  21.158  0.00  0.00    +0.000 OA
ATOM     24  O   UNL     1      -5.015  12.584  22.418  0.00  0.00    +0.000 OA
BRANCH  22  25
ATOM     25  C   UNL     1      -5.326  15.126  22.834  0.00  0.00    +0.000 A 
ATOM     26  C   UNL     1      -4.330  15.073  23.811  0.00  0.00    +0.000 A 
ATOM     27  C   UNL     1      -4.231  16.107  24.742  0.00  0.00    +0.000 A 
ATOM     28  C   UNL     1      -5.093  17.211  24.671  0.00  0.00    +0.000 A 
ATOM     29  C   UNL     1      -4.955  18.341  25.649  0.00  0.00    +0.000 C 
ATOM     30  C   UNL     1      -6.060  17.271  23.659  0.00  0.00    +0.000 A 
ATOM     31  C   UNL     1      -6.180  16.229  22.739  0.00  0.00    +0.000 A 
ENDBRANCH  22  25
ENDBRANCH  20  22
ENDBRANCH   4  20
BRANCH   7  32
ATOM     32  C   UNL     1       0.303  12.613  20.943  0.00  0.00    +0.000 C 
ATOM     33  N   UNL     1       1.444  12.764  21.457  0.00  0.00    +0.000 NA
ENDBRANCH   7  32
TORSDOF 8
ENDMDL
MODEL 4
REMARK VINA RESULT:      -5.5      2.948      8.876
REMARK  Name = 
REMARK  10 active torsions:
REMARK  status: ('A' for Active; 'I' for Inactive)
REMARK    1  A    between atoms: C_1  and  O_2
REMARK    2  A    between atoms: O_2  and  C_3
REMARK    3  A    between atoms: C_6  and  C_7
REMARK    4  A    between atoms: C_8  and  C_9
REMARK    5  A    between atoms: C_11  and  S_12
REMARK    6  A    between atoms: N_13  and  N_14
REMARK    7  A    between atoms: N_14  and  S_15
REMARK    8  A    between atoms: S_15  and  C_18
REMARK    9  A    between atoms: C_21  and  C_22
REMARK   10  A    between atoms: C_27  and  C_28
REMARK                            x       y       z     vdW  Elec       q    Type
REMARK                         _______ _______ _______ _____ _____    ______ ____
ROOT
ATOM      1  C   UNL     1      -1.199  11.401  19.489  0.00  0.00    +0.000 A 
ATOM      2  C   UNL     1      -2.505  11.251  18.900  0.00  0.00    +0.000 A 
ATOM      3  C   UNL     1      -3.516  12.115  19.229  0.00  0.00    +0.000 A 
ATOM      4  N   UNL     1      -3.292  13.147  20.155  0.00  0.00    +0.000 N 
ATOM      5  C   UNL     1      -2.050  13.393  20.721  0.00  0.00    +0.000 A 
ATOM      6  O   UNL     1      -1.758  14.343  21.439  0.00  0.00    +0.000 OA
ATOM      7  C   UNL     1      -1.007  12.439  20.331  0.00  0.00    +0.000 A 
ENDROOT
BRANCH   1  11
ATOM      8  C   UNL     1       1.983   8.638  18.641  0.00  0.00    +0.000 A 
ATOM      9  C   UNL     1       1.600   9.591  17.698  0.00  0.00    +0.000 A 
ATOM     10  C   UNL     1       0.592  10.515  17.987  0.00  0.00    +0.000 A 
ATOM     11  C   UNL     1      -0.091  10.453  19.209  0.00  0.00    +0.000 A 
ATOM     12  C   UNL     1       0.274   9.474  20.143  0.00  0.00    +0.000 A 
ATOM     13  C   UNL     1       1.309   8.572  19.861  0.00  0.00    +0.000 A 
BRANCH   8  15
ATOM     14  C   UNL     1       2.990   6.506  18.817  0.00  0.00    +0.000 C 
ATOM     15  O   UNL     1       3.003   7.814  18.253  0.00  0.00    +0.000 OA
ENDBRANCH   8  15
ENDBRANCH   1  11
BRANCH   2  16
ATOM     16  C   UNL     1      -2.772  10.124  17.915  0.00  0.00    +0.000 C 
ATOM     17  N   UNL     1      -2.994   9.190  17.099  0.00  0.00    +0.000 NA
ENDBRANCH   2  16
BRANCH   3  18
ATOM     18  S   UNL     1      -5.143  12.004  18.581  0.00  0.00    +0.000 S 
ATOM     19  H   UNL     1      -5.283  13.196  17.975  0.00  0.00    +0.000 HD
ENDBRANCH   3  18
BRANCH   4  20
ATOM     20  N   UNL     1      -4.336  14.161  20.486  0.00  0.00    +0.000 N 
ATOM     21  H   UNL     1      -4.760  14.674  19.711  0.00  0.00    +0.000 HD
BRANCH  20  22
ATOM     22  S   UNL     1      -5.445  13.724  21.734  0.00  0.00    +0.000 S 
ATOM     23  O   UNL     1      -6.779  13.839  21.200  0.00  0.00    +0.000 OA
ATOM     24  O   UNL     1      -4.993  12.515  22.397  0.00  0.00    +0.000 OA
BRANCH  22  25
ATOM     25  C   UNL     1      -5.222  15.051  22.897  0.00  0.00    +0.000 A 
ATOM     26  C   UNL     1      -6.037  16.180  22.791  0.00  0.00    +0.000 A 
ATOM     27  C   UNL     1      -5.827  17.256  23.652  0.00  0.00    +0.000 A 
ATOM     28  C   UNL     1      -4.838  17.190  24.644  0.00  0.00    +0.000 A 
ATOM     29  C   UNL     1      -4.644  18.334  25.595  0.00  0.00    +0.000 C 
ATOM     30  C   UNL     1      -4.055  16.034  24.766  0.00  0.00    +0.000 A 
ATOM     31  C   UNL     1      -4.244  14.962  23.893  0.00  0.00    +0.000 A 
ENDBRANCH  22  25
ENDBRANCH  20  22
ENDBRANCH   4  20
BRANCH   7  32
ATOM     32  C   UNL     1       0.373  12.648  20.932  0.00  0.00    +0.000 C 
ATOM     33  N   UNL     1       1.518  12.821  21.430  0.00  0.00    +0.000 NA
ENDBRANCH   7  32
TORSDOF 8
ENDMDL
MODEL 5
REMARK VINA RESULT:      -5.5      1.390      1.681
REMARK  Name = 
REMARK  10 active torsions:
REMARK  status: ('A' for Active; 'I' for Inactive)
REMARK    1  A    between atoms: C_1  and  O_2
REMARK    2  A    between atoms: O_2  and  C_3
REMARK    3  A    between atoms: C_6  and  C_7
REMARK    4  A    between atoms: C_8  and  C_9
REMARK    5  A    between atoms: C_11  and  S_12
REMARK    6  A    between atoms: N_13  and  N_14
REMARK    7  A    between atoms: N_14  and  S_15
REMARK    8  A    between atoms: S_15  and  C_18
REMARK    9  A    between atoms: C_21  and  C_22
REMARK   10  A    between atoms: C_27  and  C_28
REMARK                            x       y       z     vdW  Elec       q    Type
REMARK                         _______ _______ _______ _____ _____    ______ ____
ROOT
ATOM      1  C   UNL     1      -2.286  13.334  20.951  0.00  0.00    +0.000 A 
ATOM      2  C   UNL     1      -2.561  12.338  19.946  0.00  0.00    +0.000 A 
ATOM      3  C   UNL     1      -1.593  11.440  19.579  0.00  0.00    +0.000 A 
ATOM      4  N   UNL     1      -0.320  11.492  20.168  0.00  0.00    +0.000 N 
ATOM      5  C   UNL     1       0.005  12.382  21.181  0.00  0.00    +0.000 A 
ATOM      6  O   UNL     1       1.053  12.402  21.817  0.00  0.00    +0.000 OA
ATOM      7  C   UNL     1      -1.069  13.316  21.534  0.00  0.00    +0.000 A 
ENDROOT
BRANCH   1  11
ATOM      8  C   UNL     1      -5.135  16.349  22.080  0.00  0.00    +0.000 A 
ATOM      9  C   UNL     1      -4.151  16.622  21.131  0.00  0.00    +0.000 A 
ATOM     10  C   UNL     1      -3.248  15.631  20.734  0.00  0.00    +0.000 A 
ATOM     11  C   UNL     1      -3.283  14.365  21.336  0.00  0.00    +0.000 A 
ATOM     12  C   UNL     1      -4.253  14.104  22.313  0.00  0.00    +0.000 A 
ATOM     13  C   UNL     1      -5.177  15.090  22.682  0.00  0.00    +0.000 A 
BRANCH   8  15
ATOM     14  C   UNL     1      -7.306  17.027  22.727  0.00  0.00    +0.000 C 
ATOM     15  O   UNL     1      -5.979  17.389  22.358  0.00  0.00    +0.000 OA
ENDBRANCH   8  15
ENDBRANCH   1  11
BRANCH   2  16
ATOM     16  C   UNL     1      -3.927  12.284  19.281  0.00  0.00    +0.000 C 
ATOM     17  N   UNL     1      -5.059  12.239  18.729  0.00  0.00    +0.000 NA
ENDBRANCH   2  16
BRANCH   3  18
ATOM     18  S   UNL     1      -1.825  10.204  18.357  0.00  0.00    +0.000 S 
ATOM     19  H   UNL     1      -2.949   9.600  18.781  0.00  0.00    +0.000 HD
ENDBRANCH   3  18
BRANCH   4  20
ATOM     20  N   UNL     1       0.741  10.488  19.861  0.00  0.00    +0.000 N 
ATOM     21  H   UNL     1       1.640  10.837  19.526  0.00  0.00    +0.000 HD
BRANCH  20  22
ATOM     22  S   UNL     1       0.863   9.159  20.954  0.00  0.00    +0.000 S 
ATOM     23  O   UNL     1       1.757   9.541  22.017  0.00  0.00    +0.000 OA
ATOM     24  O   UNL     1      -0.456   8.619  21.227  0.00  0.00    +0.000 OA
BRANCH  22  25
ATOM     25  C   UNL     1       1.707   7.949  19.960  0.00  0.00    +0.000 A 
ATOM     26  C   UNL     1       2.176   8.327  18.699  0.00  0.00    +0.000 A 
ATOM     27  C   UNL     1       2.778   7.371  17.881  0.00  0.00    +0.000 A 
ATOM     28  C   UNL     1       2.951   6.056  18.334  0.00  0.00    +0.000 A 
ATOM     29  C   UNL     1       3.637   5.042  17.466  0.00  0.00    +0.000 C 
ATOM     30  C   UNL     1       2.514   5.701  19.617  0.00  0.00    +0.000 A 
ATOM     31  C   UNL     1       1.890   6.646  20.433  0.00  0.00    +0.000 A 
ENDBRANCH  22  25
ENDBRANCH  20  22
ENDBRANCH   4  20
BRANCH   7  32
ATOM     32  C   UNL     1      -0.766  14.327  22.628  0.00  0.00    +0.000 C 
ATOM     33  N   UNL     1      -0.516  15.167  23.535  0.00  0.00    +0.000 NA
ENDBRANCH   7  32
TORSDOF 8
ENDMDL
MODEL 6
REMARK VINA RESULT:      -5.5      3.017      8.476
REMARK  Name = 
REMARK  10 active torsions:
REMARK  status: ('A' for Active; 'I' for Inactive)
REMARK    1  A    between atoms: C_1  and  O_2
REMARK    2  A    between atoms: O_2  and  C_3
REMARK    3  A    between atoms: C_6  and  C_7
REMARK    4  A    between atoms: C_8  and  C_9
REMARK    5  A    between atoms: C_11  and  S_12
REMARK    6  A    between atoms: N_13  and  N_14
REMARK    7  A    between atoms: N_14  and  S_15
REMARK    8  A    between atoms: S_15  and  C_18
REMARK    9  A    between atoms: C_21  and  C_22
REMARK   10  A    between atoms: C_27  and  C_28
REMARK                            x       y       z     vdW  Elec       q    Type
REMARK                         _______ _______ _______ _____ _____    ______ ____
ROOT
ATOM      1  C   UNL     1      -0.902  11.534  19.666  0.00  0.00    +0.000 A 
ATOM      2  C   UNL     1      -2.268  11.472  19.210  0.00  0.00    +0.000 A 
ATOM      3  C   UNL     1      -3.166  12.438  19.581  0.00  0.00    +0.000 A 
ATOM      4  N   UNL     1      -2.767  13.491  20.421  0.00  0.00    +0.000 N 
ATOM      5  C   UNL     1      -1.460  13.653  20.855  0.00  0.00    +0.000 A 
ATOM      6  O   UNL     1      -1.022  14.607  21.487  0.00  0.00    +0.000 OA
ATOM      7  C   UNL     1      -0.544  12.591  20.426  0.00  0.00    +0.000 A 
ENDROOT
BRANCH   1  11
ATOM      8  C   UNL     1       1.995   8.491  18.764  0.00  0.00    +0.000 A 
ATOM      9  C   UNL     1       1.350   8.512  19.999  0.00  0.00    +0.000 A 
ATOM     10  C   UNL     1       0.379   9.479  20.280  0.00  0.00    +0.000 A 
ATOM     11  C   UNL     1       0.089  10.478  19.341  0.00  0.00    +0.000 A 
ATOM     12  C   UNL     1       0.762  10.472  18.112  0.00  0.00    +0.000 A 
ATOM     13  C   UNL     1       1.709   9.481  17.824  0.00  0.00    +0.000 A 
BRANCH   8  15
ATOM     14  C   UNL     1       2.711   6.339  19.435  0.00  0.00    +0.000 C 
ATOM     15  O   UNL     1       2.897   7.477  18.598  0.00  0.00    +0.000 OA
ENDBRANCH   8  15
ENDBRANCH   1  11
BRANCH   2  16
ATOM     16  C   UNL     1      -2.723  10.326  18.321  0.00  0.00    +0.000 C 
ATOM     17  N   UNL     1      -3.100   9.376  17.584  0.00  0.00    +0.000 NA
ENDBRANCH   2  16
BRANCH   3  18
ATOM     18  S   UNL     1      -4.852  12.441  19.092  0.00  0.00    +0.000 S 
ATOM     19  H   UNL     1      -5.464  12.878  20.206  0.00  0.00    +0.000 HD
ENDBRANCH   3  18
BRANCH   4  20
ATOM     20  N   UNL     1      -3.686  14.609  20.787  0.00  0.00    +0.000 N 
ATOM     21  H   UNL     1      -4.209  15.057  20.035  0.00  0.00    +0.000 HD
BRANCH  20  22
ATOM     22  S   UNL     1      -4.584  14.401  22.246  0.00  0.00    +0.000 S 
ATOM     23  O   UNL     1      -5.814  15.140  22.117  0.00  0.00    +0.000 OA
ATOM     24  O   UNL     1      -4.574  13.004  22.640  0.00  0.00    +0.000 OA
BRANCH  22  25
ATOM     25  C   UNL     1      -3.567  15.264  23.423  0.00  0.00    +0.000 A 
ATOM     26  C   UNL     1      -3.064  14.558  24.518  0.00  0.00    +0.000 A 
ATOM     27  C   UNL     1      -2.323  15.237  25.485  0.00  0.00    +0.000 A 
ATOM     28  C   UNL     1      -2.047  16.604  25.338  0.00  0.00    +0.000 A 
ATOM     29  C   UNL     1      -1.213  17.321  26.359  0.00  0.00    +0.000 C 
ATOM     30  C   UNL     1      -2.522  17.290  24.212  0.00  0.00    +0.000 A 
ATOM     31  C   UNL     1      -3.284  16.622  23.253  0.00  0.00    +0.000 A 
ENDBRANCH  22  25
ENDBRANCH  20  22
ENDBRANCH   4  20
BRANCH   7  32
ATOM     32  C   UNL     1       0.900  12.706  20.884  0.00  0.00    +0.000 C 
ATOM     33  N   UNL     1       2.099  12.801  21.265  0.00  0.00    +0.000 NA
ENDBRANCH   7  32
TORSDOF 8
ENDMDL
MODEL 7
REMARK VINA RESULT:      -5.4      4.232      8.124
REMARK  Name = 
REMARK  10 active torsions:
REMARK  status: ('A' for Active; 'I' for Inactive)
REMARK    1  A    between atoms: C_1  and  O_2
REMARK    2  A    between atoms: O_2  and  C_3
REMARK    3  A    between atoms: C_6  and  C_7
REMARK    4  A    between atoms: C_8  and  C_9
REMARK    5  A    between atoms: C_11  and  S_12
REMARK    6  A    between atoms: N_13  and  N_14
REMARK    7  A    between atoms: N_14  and  S_15
REMARK    8  A    between atoms: S_15  and  C_18
REMARK    9  A    between atoms: C_21  and  C_22
REMARK   10  A    between atoms: C_27  and  C_28
REMARK                            x       y       z     vdW  Elec       q    Type
REMARK                         _______ _______ _______ _____ _____    ______ ____
ROOT
ATOM      1  C   UNL     1      -3.697  11.966  19.363  0.00  0.00    +0.000 A 
ATOM      2  C   UNL     1      -5.019  11.967  19.939  0.00  0.00    +0.000 A 
ATOM      3  C   UNL     1      -5.225  12.471  21.197  0.00  0.00    +0.000 A 
ATOM      4  N   UNL     1      -4.148  12.977  21.942  0.00  0.00    +0.000 N 
ATOM      5  C   UNL     1      -2.859  13.064  21.438  0.00  0.00    +0.000 A 
ATOM      6  O   UNL     1      -1.903  13.600  21.986  0.00  0.00    +0.000 OA
ATOM      7  C   UNL     1      -2.698  12.512  20.089  0.00  0.00    +0.000 A 
ENDROOT
BRANCH   1  11
ATOM      8  C   UNL     1      -2.929  10.245  15.501  0.00  0.00    +0.000 A 
ATOM      9  C   UNL     1      -3.824  11.305  15.640  0.00  0.00    +0.000 A 
ATOM     10  C   UNL     1      -4.045  11.891  16.890  0.00  0.00    +0.000 A 
ATOM     11  C   UNL     1      -3.416  11.375  18.031  0.00  0.00    +0.000 A 
ATOM     12  C   UNL     1      -2.541  10.289  17.892  0.00  0.00    +0.000 A 
ATOM     13  C   UNL     1      -2.297   9.728  16.632  0.00  0.00    +0.000 A 
BRANCH   8  15
ATOM     14  C   UNL     1      -3.918   9.884  13.383  0.00  0.00    +0.000 C 
ATOM     15  O   UNL     1      -2.772   9.781  14.224  0.00  0.00    +0.000 OA
ENDBRANCH   8  15
ENDBRANCH   1  11
BRANCH   2  16
ATOM     16  C   UNL     1      -6.191  11.400  19.155  0.00  0.00    +0.000 C 
ATOM     17  N   UNL     1      -7.164  10.931  18.505  0.00  0.00    +0.000 NA
ENDBRANCH   2  16
BRANCH   3  18
ATOM     18  S   UNL     1      -6.790  12.501  21.989  0.00  0.00    +0.000 S 
ATOM     19  H   UNL     1      -7.043  11.192  22.157  0.00  0.00    +0.000 HD
ENDBRANCH   3  18
BRANCH   4  20
ATOM     20  N   UNL     1      -4.334  13.608  23.282  0.00  0.00    +0.000 N 
ATOM     21  H   UNL     1      -3.707  13.317  24.033  0.00  0.00    +0.000 HD
BRANCH  20  22
ATOM     22  S   UNL     1      -4.695  15.296  23.278  0.00  0.00    +0.000 S 
ATOM     23  O   UNL     1      -4.425  15.803  21.957  0.00  0.00    +0.000 OA
ATOM     24  O   UNL     1      -5.966  15.532  23.939  0.00  0.00    +0.000 OA
BRANCH  22  25
ATOM     25  C   UNL     1      -3.438  15.937  24.361  0.00  0.00    +0.000 A 
ATOM     26  C   UNL     1      -2.642  15.036  25.072  0.00  0.00    +0.000 A 
ATOM     27  C   UNL     1      -1.700  15.524  25.976  0.00  0.00    +0.000 A 
ATOM     28  C   UNL     1      -1.521  16.905  26.139  0.00  0.00    +0.000 A 
ATOM     29  C   UNL     1      -0.476  17.426  27.082  0.00  0.00    +0.000 C 
ATOM     30  C   UNL     1      -2.297  17.798  25.388  0.00  0.00    +0.000 A 
ATOM     31  C   UNL     1      -3.258  17.317  24.498  0.00  0.00    +0.000 A 
ENDBRANCH  22  25
ENDBRANCH  20  22
ENDBRANCH   4  20
BRANCH   7  32
ATOM     32  C   UNL     1      -1.303  12.564  19.489  0.00  0.00    +0.000 C 
ATOM     33  N   UNL     1      -0.145  12.608  18.990  0.00  0.00    +0.000 NA
ENDBRANCH   7  32
TORSDOF 8
ENDMDL
MODEL 8
REMARK VINA RESULT:      -5.3      4.346      8.308
REMARK  Name = 
REMARK  10 active torsions:
REMARK  status: ('A' for Active; 'I' for Inactive)
REMARK    1  A    between atoms: C_1  and  O_2
REMARK    2  A    between atoms: O_2  and  C_3
REMARK    3  A    between atoms: C_6  and  C_7
REMARK    4  A    between atoms: C_8  and  C_9
REMARK    5  A    between atoms: C_11  and  S_12
REMARK    6  A    between atoms: N_13  and  N_14
REMARK    7  A    between atoms: N_14  and  S_15
REMARK    8  A    between atoms: S_15  and  C_18
REMARK    9  A    between atoms: C_21  and  C_22
REMARK   10  A    between atoms: C_27  and  C_28
REMARK                            x       y       z     vdW  Elec       q    Type
REMARK                         _______ _______ _______ _____ _____    ______ ____
ROOT
ATOM      1  C   UNL     1      -3.577  11.881  19.282  0.00  0.00    +0.000 A 
ATOM      2  C   UNL     1      -2.453  12.481  19.955  0.00  0.00    +0.000 A 
ATOM      3  C   UNL     1      -2.609  13.047  21.193  0.00  0.00    +0.000 A 
ATOM      4  N   UNL     1      -3.870  13.062  21.810  0.00  0.00    +0.000 N 
ATOM      5  C   UNL     1      -4.987  12.457  21.255  0.00  0.00    +0.000 A 
ATOM      6  O   UNL     1      -6.082  12.330  21.791  0.00  0.00    +0.000 OA
ATOM      7  C   UNL     1      -4.760  11.866  19.932  0.00  0.00    +0.000 A 
ENDROOT
BRANCH   1  11
ATOM      8  C   UNL     1      -3.216  10.242  15.325  0.00  0.00    +0.000 A 
ATOM      9  C   UNL     1      -2.456   9.732  16.377  0.00  0.00    +0.000 A 
ATOM     10  C   UNL     1      -2.601  10.238  17.672  0.00  0.00    +0.000 A 
ATOM     11  C   UNL     1      -3.469  11.311  17.916  0.00  0.00    +0.000 A 
ATOM     12  C   UNL     1      -4.208  11.843  16.850  0.00  0.00    +0.000 A 
ATOM     13  C   UNL     1      -4.084  11.309  15.561  0.00  0.00    +0.000 A 
BRANCH   8  15
ATOM     14  C   UNL     1      -3.983   9.918  13.112  0.00  0.00    +0.000 C 
ATOM     15  O   UNL     1      -3.010   9.641  14.114  0.00  0.00    +0.000 OA
ENDBRANCH   8  15
ENDBRANCH   1  11
BRANCH   2  16
ATOM     16  C   UNL     1      -1.086  12.496  19.290  0.00  0.00    +0.000 C 
ATOM     17  N   UNL     1       0.047  12.507  18.738  0.00  0.00    +0.000 NA
ENDBRANCH   2  16
BRANCH   3  18
ATOM     18  S   UNL     1      -1.307  13.815  22.084  0.00  0.00    +0.000 S 
ATOM     19  H   UNL     1      -1.979  14.491  23.032  0.00  0.00    +0.000 HD
ENDBRANCH   3  18
BRANCH   4  20
ATOM     20  N   UNL     1      -4.075  13.595  23.190  0.00  0.00    +0.000 N 
ATOM     21  H   UNL     1      -3.405  13.318  23.909  0.00  0.00    +0.000 HD
BRANCH  20  22
ATOM     22  S   UNL     1      -4.584  15.241  23.296  0.00  0.00    +0.000 S 
ATOM     23  O   UNL     1      -4.346  15.860  22.017  0.00  0.00    +0.000 OA
ATOM     24  O   UNL     1      -5.877  15.319  23.950  0.00  0.00    +0.000 OA
BRANCH  22  25
ATOM     25  C   UNL     1      -3.399  15.913  24.440  0.00  0.00    +0.000 A 
ATOM     26  C   UNL     1      -3.266  17.300  24.530  0.00  0.00    +0.000 A 
ATOM     27  C   UNL     1      -2.293  17.839  25.371  0.00  0.00    +0.000 A 
ATOM     28  C   UNL     1      -1.487  17.000  26.154  0.00  0.00    +0.000 A 
ATOM     29  C   UNL     1      -0.471  17.586  27.090  0.00  0.00    +0.000 C 
ATOM     30  C   UNL     1      -1.661  15.611  26.086  0.00  0.00    +0.000 A 
ATOM     31  C   UNL     1      -2.616  15.064  25.228  0.00  0.00    +0.000 A 
ENDBRANCH  22  25
ENDBRANCH  20  22
ENDBRANCH   4  20
BRANCH   7  32
ATOM     32  C   UNL     1      -5.953  11.201  19.265  0.00  0.00    +0.000 C 
ATOM     33  N   UNL     1      -6.943  10.650  18.711  0.00  0.00    +0.000 NA
ENDBRANCH   7  32
TORSDOF 8
ENDMDL
MODEL 9
REMARK VINA RESULT:      -5.3      4.719      8.069
REMARK  Name = 
REMARK  10 active torsions:
REMARK  status: ('A' for Active; 'I' for Inactive)
REMARK    1  A    between atoms: C_1  and  O_2
REMARK    2  A    between atoms: O_2  and  C_3
REMARK    3  A    between atoms: C_6  and  C_7
REMARK    4  A    between atoms: C_8  and  C_9
REMARK    5  A    between atoms: C_11  and  S_12
REMARK    6  A    between atoms: N_13  and  N_14
REMARK    7  A    between atoms: N_14  and  S_15
REMARK    8  A    between atoms: S_15  and  C_18
REMARK    9  A    between atoms: C_21  and  C_22
REMARK   10  A    between atoms: C_27  and  C_28
REMARK                            x       y       z     vdW  Elec       q    Type
REMARK                         _______ _______ _______ _____ _____    ______ ____
ROOT
ATOM      1  C   UNL     1      -2.055  14.164  21.621  0.00  0.00    +0.000 A 
ATOM      2  C   UNL     1      -3.005  15.246  21.556  0.00  0.00    +0.000 A 
ATOM      3  C   UNL     1      -4.089  15.266  22.394  0.00  0.00    +0.000 A 
ATOM      4  N   UNL     1      -4.293  14.223  23.313  0.00  0.00    +0.000 N 
ATOM      5  C   UNL     1      -3.396  13.178  23.475  0.00  0.00    +0.000 A 
ATOM      6  O   UNL     1      -3.452  12.305  24.334  0.00  0.00    +0.000 OA
ATOM      7  C   UNL     1      -2.256  13.210  22.555  0.00  0.00    +0.000 A 
ENDROOT
BRANCH   1  11
ATOM      8  C   UNL     1       1.289  13.938  18.930  0.00  0.00    +0.000 A 
ATOM      9  C   UNL     1       1.390  14.640  20.130  0.00  0.00    +0.000 A 
ATOM     10  C   UNL     1       0.316  14.681  21.024  0.00  0.00    +0.000 A 
ATOM     11  C   UNL     1      -0.901  14.069  20.693  0.00  0.00    +0.000 A 
ATOM     12  C   UNL     1      -1.009  13.391  19.471  0.00  0.00    +0.000 A 
ATOM     13  C   UNL     1       0.082  13.324  18.594  0.00  0.00    +0.000 A 
BRANCH   8  15
ATOM     14  C   UNL     1       3.262  15.080  18.302  0.00  0.00    +0.000 C 
ATOM     15  O   UNL     1       2.418  13.942  18.158  0.00  0.00    +0.000 OA
ENDBRANCH   8  15
ENDBRANCH   1  11
BRANCH   2  16
ATOM     16  C   UNL     1      -2.813  16.370  20.551  0.00  0.00    +0.000 C 
ATOM     17  N   UNL     1      -2.654  17.302  19.717  0.00  0.00    +0.000 NA
ENDBRANCH   2  16
BRANCH   3  18
ATOM     18  S   UNL     1      -5.308  16.528  22.381  0.00  0.00    +0.000 S 
ATOM     19  H   UNL     1      -4.700  17.494  21.671  0.00  0.00    +0.000 HD
ENDBRANCH   3  18
BRANCH   4  20
ATOM     20  N   UNL     1      -5.413  14.239  24.299  0.00  0.00    +0.000 N 
ATOM     21  H   UNL     1      -5.738  15.148  24.632  0.00  0.00    +0.000 HD
BRANCH  20  22
ATOM     22  S   UNL     1      -6.676  13.094  24.027  0.00  0.00    +0.000 S 
ATOM     23  O   UNL     1      -6.149  11.782  24.305  0.00  0.00    +0.000 OA
ATOM     24  O   UNL     1      -7.908  13.563  24.633  0.00  0.00    +0.000 OA
BRANCH  22  25
ATOM     25  C   UNL     1      -6.900  13.215  22.267  0.00  0.00    +0.000 A 
ATOM     26  C   UNL     1      -6.173  12.358  21.438  0.00  0.00    +0.000 A 
ATOM     27  C   UNL     1      -6.287  12.489  20.054  0.00  0.00    +0.000 A 
ATOM     28  C   UNL     1      -7.156  13.440  19.500  0.00  0.00    +0.000 A 
ATOM     29  C   UNL     1      -7.307  13.548  18.010  0.00  0.00    +0.000 C 
ATOM     30  C   UNL     1      -7.912  14.264  20.344  0.00  0.00    +0.000 A 
ATOM     31  C   UNL     1      -7.785  14.156  21.729  0.00  0.00    +0.000 A 
ENDBRANCH  22  25
ENDBRANCH  20  22
ENDBRANCH   4  20
BRANCH   7  32
ATOM     32  C   UNL     1      -1.246  12.081  22.675  0.00  0.00    +0.000 C 
ATOM     33  N   UNL     1      -0.409  11.143  22.774  0.00  0.00    +0.000 NA
ENDBRANCH   7  32
TORSDOF 8
ENDMDL
