MODEL 1
REMARK VINA RESULT:      -8.5      0.000      0.000
REMARK  Name = 
REMARK  7 active torsions:
REMARK  status: ('A' for Active; 'I' for Inactive)
REMARK    1  A    between atoms: C_1  and  C_2
REMARK    2  A    between atoms: C_6  and  C_7
REMARK    3  A    between atoms: C_8  and  O_9
REMARK    4  A    between atoms: O_9  and  C_10
REMARK    5  A    between atoms: C_10  and  C_11
REMARK    6  A    between atoms: N_13  and  N_14
REMARK    7  A    between atoms: C_15  and  C_16
REMARK                            x       y       z     vdW  Elec       q    Type
REMARK                         _______ _______ _______ _____ _____    ______ ____
ROOT
ATOM      1  C   UNL     1       6.944   6.877  17.303  0.00  0.00    +0.000 C 
ATOM      2  O   UNL     1       7.779   7.782  17.196  0.00  0.00    +0.000 OA
ATOM      3  N   UNL     1       5.825   7.115  18.077  0.00  0.00    +0.000 N 
ATOM      4  H   UNL     1       5.793   7.993  18.579  0.00  0.00    +0.000 HD
ENDROOT
BRANCH   3   5
ATOM      5  N   UNL     1       4.757   6.212  18.212  0.00  0.00    +0.000 N 
ATOM      6  C   UNL     1       3.454   6.580  17.953  0.00  0.00    +0.000 A 
ATOM      7  C   UNL     1       3.143   8.008  17.563  0.00  0.00    +0.000 C 
ATOM      8  N   UNL     1       2.451   5.760  18.082  0.00  0.00    +0.000 NA
ATOM      9  C   UNL     1       2.738   4.418  18.393  0.00  0.00    +0.000 A 
ATOM     10  C   UNL     1       1.741   3.447  18.335  0.00  0.00    +0.000 A 
ATOM     11  C   UNL     1       2.056   2.094  18.528  0.00  0.00    +0.000 A 
ATOM     12  C   UNL     1       3.377   1.697  18.748  0.00  0.00    +0.000 A 
ATOM     13  C   UNL     1       4.370   2.662  18.862  0.00  0.00    +0.000 A 
ATOM     14  C   UNL     1       4.021   4.007  18.733  0.00  0.00    +0.000 A 
ATOM     15  C   UNL     1       4.981   5.078  18.970  0.00  0.00    +0.000 A 
ATOM     16  O   UNL     1       5.844   4.953  19.828  0.00  0.00    +0.000 OA
ENDBRANCH   3   5
BRANCH   1  17
ATOM     17  C   UNL     1       7.101   5.530  16.567  0.00  0.00    +0.000 C 
BRANCH  17  18
ATOM     18  O   UNL     1       7.471   5.604  15.205  0.00  0.00    +0.000 OA
BRANCH  18  26
ATOM     19  C   UNL     1       4.849   3.898  15.377  0.00  0.00    +0.000 C 
ATOM     20  C   UNL     1       5.766   4.092  14.206  0.00  0.00    +0.000 A 
ATOM     21  C   UNL     1       5.425   3.361  13.046  0.00  0.00    +0.000 A 
ATOM     22  C   UNL     1       6.161   3.439  11.869  0.00  0.00    +0.000 A 
ATOM     23  C   UNL     1       7.262   4.283  11.819  0.00  0.00    +0.000 A 
ATOM     24  C   UNL     1       7.645   5.015  12.955  0.00  0.00    +0.000 A 
ATOM     25  C   UNL     1       8.828   5.930  12.796  0.00  0.00    +0.000 C 
ATOM     26  C   UNL     1       6.905   4.908  14.177  0.00  0.00    +0.000 A 
ENDBRANCH  18  26
ENDBRANCH  17  18
ENDBRANCH   1  17
TORSDOF 4
ENDMDL
MODEL 2
REMARK VINA RESULT:      -8.4      2.498      6.574
REMARK  Name = 
REMARK  7 active torsions:
REMARK  status: ('A' for Active; 'I' for Inactive)
REMARK    1  A    between atoms: C_1  and  C_2
REMARK    2  A    between atoms: C_6  and  C_7
REMARK    3  A    between atoms: C_8  and  O_9
REMARK    4  A    between atoms: O_9  and  C_10
REMARK    5  A    between atoms: C_10  and  C_11
REMARK    6  A    between atoms: N_13  and  N_14
REMARK    7  A    between atoms: C_15  and  C_16
REMARK                            x       y       z     vdW  Elec       q    Type
REMARK                         _______ _______ _______ _____ _____    ______ ____
ROOT
ATOM      1  C   UNL     1       2.392   4.197  20.749  0.00  0.00    +0.000 C 
ATOM      2  O   UNL     1       1.963   3.893  21.867  0.00  0.00    +0.000 OA
ATOM      3  N   UNL     1       3.411   3.432  20.215  0.00  0.00    +0.000 N 
ATOM      4  H   UNL     1       3.803   2.712  20.809  0.00  0.00    +0.000 HD
ENDROOT
BRANCH   3   5
ATOM      5  N   UNL     1       3.931   3.608  18.922  0.00  0.00    +0.000 N 
ATOM      6  C   UNL     1       3.353   3.018  17.817  0.00  0.00    +0.000 A 
ATOM      7  C   UNL     1       2.157   2.111  17.994  0.00  0.00    +0.000 C 
ATOM      8  N   UNL     1       3.826   3.162  16.613  0.00  0.00    +0.000 NA
ATOM      9  C   UNL     1       4.906   4.047  16.435  0.00  0.00    +0.000 A 
ATOM     10  C   UNL     1       5.322   4.412  15.156  0.00  0.00    +0.000 A 
ATOM     11  C   UNL     1       6.317   5.385  14.984  0.00  0.00    +0.000 A 
ATOM     12  C   UNL     1       6.883   6.025  16.089  0.00  0.00    +0.000 A 
ATOM     13  C   UNL     1       6.516   5.629  17.369  0.00  0.00    +0.000 A 
ATOM     14  C   UNL     1       5.572   4.612  17.516  0.00  0.00    +0.000 A 
ATOM     15  C   UNL     1       5.235   4.055  18.820  0.00  0.00    +0.000 A 
ATOM     16  O   UNL     1       6.093   3.955  19.687  0.00  0.00    +0.000 OA
ENDBRANCH   3   5
BRANCH   1  17
ATOM     17  C   UNL     1       1.795   5.363  19.933  0.00  0.00    +0.000 C 
BRANCH  17  18
ATOM     18  O   UNL     1       2.517   6.578  19.966  0.00  0.00    +0.000 OA
BRANCH  18  26
ATOM     19  C   UNL     1       0.762   8.412  21.803  0.00  0.00    +0.000 C 
ATOM     20  C   UNL     1       1.208   8.652  20.392  0.00  0.00    +0.000 A 
ATOM     21  C   UNL     1       0.724   9.840  19.799  0.00  0.00    +0.000 A 
ATOM     22  C   UNL     1       1.054  10.220  18.504  0.00  0.00    +0.000 A 
ATOM     23  C   UNL     1       1.912   9.415  17.766  0.00  0.00    +0.000 A 
ATOM     24  C   UNL     1       2.403   8.217  18.310  0.00  0.00    +0.000 A 
ATOM     25  C   UNL     1       3.354   7.430  17.451  0.00  0.00    +0.000 C 
ATOM     26  C   UNL     1       2.034   7.811  19.633  0.00  0.00    +0.000 A 
ENDBRANCH  18  26
ENDBRANCH  17  18
ENDBRANCH   1  17
TORSDOF 4
ENDMDL
MODEL 3
REMARK VINA RESULT:      -8.2      2.509      6.767
REMARK  Name = 
REMARK  7 active torsions:
REMARK  status: ('A' for Active; 'I' for Inactive)
REMARK    1  A    between atoms: C_1  and  C_2
REMARK    2  A    between atoms: C_6  and  C_7
REMARK    3  A    between atoms: C_8  and  O_9
REMARK    4  A    between atoms: O_9  and  C_10
REMARK    5  A    between atoms: C_10  and  C_11
REMARK    6  A    between atoms: N_13  and  N_14
REMARK    7  A    between atoms: C_15  and  C_16
REMARK                            x       y       z     vdW  Elec       q    Type
REMARK                         _______ _______ _______ _____ _____    ______ ____
ROOT
ATOM      1  C   UNL     1       2.396   4.212  20.739  0.00  0.00    +0.000 C 
ATOM      2  O   UNL     1       1.970   3.910  21.859  0.00  0.00    +0.000 OA
ATOM      3  N   UNL     1       3.422   3.454  20.208  0.00  0.00    +0.000 N 
ATOM      4  H   UNL     1       3.821   2.740  20.806  0.00  0.00    +0.000 HD
ENDROOT
BRANCH   3   5
ATOM      5  N   UNL     1       3.939   3.628  18.914  0.00  0.00    +0.000 N 
ATOM      6  C   UNL     1       3.368   3.024  17.813  0.00  0.00    +0.000 A 
ATOM      7  C   UNL     1       2.182   2.104  17.996  0.00  0.00    +0.000 C 
ATOM      8  N   UNL     1       3.838   3.167  16.608  0.00  0.00    +0.000 NA
ATOM      9  C   UNL     1       4.908   4.063  16.424  0.00  0.00    +0.000 A 
ATOM     10  C   UNL     1       5.319   4.425  15.143  0.00  0.00    +0.000 A 
ATOM     11  C   UNL     1       6.303   5.408  14.964  0.00  0.00    +0.000 A 
ATOM     12  C   UNL     1       6.862   6.061  16.065  0.00  0.00    +0.000 A 
ATOM     13  C   UNL     1       6.500   5.669  17.348  0.00  0.00    +0.000 A 
ATOM     14  C   UNL     1       5.567   4.642  17.501  0.00  0.00    +0.000 A 
ATOM     15  C   UNL     1       5.237   4.089  18.809  0.00  0.00    +0.000 A 
ATOM     16  O   UNL     1       6.097   4.004  19.676  0.00  0.00    +0.000 OA
ENDBRANCH   3   5
BRANCH   1  17
ATOM     17  C   UNL     1       1.788   5.368  19.918  0.00  0.00    +0.000 C 
BRANCH  17  18
ATOM     18  O   UNL     1       2.259   6.665  20.227  0.00  0.00    +0.000 OA
BRANCH  18  26
ATOM     19  C   UNL     1       3.289   7.428  17.368  0.00  0.00    +0.000 C 
ATOM     20  C   UNL     1       2.427   8.229  18.298  0.00  0.00    +0.000 A 
ATOM     21  C   UNL     1       2.083   9.520  17.840  0.00  0.00    +0.000 A 
ATOM     22  C   UNL     1       1.278  10.385  18.572  0.00  0.00    +0.000 A 
ATOM     23  C   UNL     1       0.771   9.959  19.794  0.00  0.00    +0.000 A 
ATOM     24  C   UNL     1       1.102   8.690  20.294  0.00  0.00    +0.000 A 
ATOM     25  C   UNL     1       0.478   8.302  21.606  0.00  0.00    +0.000 C 
ATOM     26  C   UNL     1       1.960   7.813  19.552  0.00  0.00    +0.000 A 
ENDBRANCH  18  26
ENDBRANCH  17  18
ENDBRANCH   1  17
TORSDOF 4
ENDMDL
MODEL 4
REMARK VINA RESULT:      -8.0      2.926      5.177
REMARK  Name = 
REMARK  7 active torsions:
REMARK  status: ('A' for Active; 'I' for Inactive)
REMARK    1  A    between atoms: C_1  and  C_2
REMARK    2  A    between atoms: C_6  and  C_7
REMARK    3  A    between atoms: C_8  and  O_9
REMARK    4  A    between atoms: O_9  and  C_10
REMARK    5  A    between atoms: C_10  and  C_11
REMARK    6  A    between atoms: N_13  and  N_14
REMARK    7  A    between atoms: C_15  and  C_16
REMARK                            x       y       z     vdW  Elec       q    Type
REMARK                         _______ _______ _______ _____ _____    ______ ____
ROOT
ATOM      1  C   UNL     1       3.900   2.198  19.097  0.00  0.00    +0.000 C 
ATOM      2  O   UNL     1       4.054   0.994  18.863  0.00  0.00    +0.000 OA
ATOM      3  N   UNL     1       2.617   2.708  19.064  0.00  0.00    +0.000 N 
ATOM      4  H   UNL     1       1.881   2.078  18.769  0.00  0.00    +0.000 HD
ENDROOT
BRANCH   3   5
ATOM      5  N   UNL     1       2.289   4.033  19.397  0.00  0.00    +0.000 N 
ATOM      6  C   UNL     1       1.982   4.405  20.689  0.00  0.00    +0.000 A 
ATOM      7  C   UNL     1       1.943   3.358  21.780  0.00  0.00    +0.000 C 
ATOM      8  N   UNL     1       1.667   5.625  21.015  0.00  0.00    +0.000 NA
ATOM      9  C   UNL     1       1.754   6.613  20.016  0.00  0.00    +0.000 A 
ATOM     10  C   UNL     1       1.640   7.963  20.340  0.00  0.00    +0.000 A 
ATOM     11  C   UNL     1       1.847   8.948  19.364  0.00  0.00    +0.000 A 
ATOM     12  C   UNL     1       2.200   8.591  18.061  0.00  0.00    +0.000 A 
ATOM     13  C   UNL     1       2.262   7.248  17.713  0.00  0.00    +0.000 A 
ATOM     14  C   UNL     1       1.987   6.286  18.686  0.00  0.00    +0.000 A 
ATOM     15  C   UNL     1       1.903   4.867  18.365  0.00  0.00    +0.000 A 
ATOM     16  O   UNL     1       1.457   4.505  17.284  0.00  0.00    +0.000 OA
ENDBRANCH   3   5
BRANCH   1  17
ATOM     17  C   UNL     1       5.085   3.116  19.462  0.00  0.00    +0.000 C 
BRANCH  17  18
ATOM     18  O   UNL     1       5.951   3.467  18.401  0.00  0.00    +0.000 OA
BRANCH  18  26
ATOM     19  C   UNL     1       7.945   5.473  19.749  0.00  0.00    +0.000 C 
ATOM     20  C   UNL     1       7.065   5.687  18.554  0.00  0.00    +0.000 A 
ATOM     21  C   UNL     1       7.105   6.987  18.000  0.00  0.00    +0.000 A 
ATOM     22  C   UNL     1       6.363   7.347  16.882  0.00  0.00    +0.000 A 
ATOM     23  C   UNL     1       5.565   6.391  16.268  0.00  0.00    +0.000 A 
ATOM     24  C   UNL     1       5.483   5.092  16.795  0.00  0.00    +0.000 A 
ATOM     25  C   UNL     1       4.623   4.115  16.042  0.00  0.00    +0.000 C 
ATOM     26  C   UNL     1       6.224   4.732  17.968  0.00  0.00    +0.000 A 
ENDBRANCH  18  26
ENDBRANCH  17  18
ENDBRANCH   1  17
TORSDOF 4
ENDMDL
MODEL 5
REMARK VINA RESULT:      -7.9      3.284      6.151
REMARK  Name = 
REMARK  7 active torsions:
REMARK  status: ('A' for Active; 'I' for Inactive)
REMARK    1  A    between atoms: C_1  and  C_2
REMARK    2  A    between atoms: C_6  and  C_7
REMARK    3  A    between atoms: C_8  and  O_9
REMARK    4  A    between atoms: O_9  and  C_10
REMARK    5  A    between atoms: C_10  and  C_11
REMARK    6  A    between atoms: N_13  and  N_14
REMARK    7  A    between atoms: C_15  and  C_16
REMARK                            x       y       z     vdW  Elec       q    Type
REMARK                         _______ _______ _______ _____ _____    ______ ____
ROOT
ATOM      1  C   UNL     1       4.538   6.585  16.564  0.00  0.00    +0.000 C 
ATOM      2  O   UNL     1       4.932   7.132  15.529  0.00  0.00    +0.000 OA
ATOM      3  N   UNL     1       4.550   5.204  16.613  0.00  0.00    +0.000 N 
ATOM      4  H   UNL     1       4.808   4.717  15.764  0.00  0.00    +0.000 HD
ENDROOT
BRANCH   3   5
ATOM      5  N   UNL     1       4.216   4.456  17.754  0.00  0.00    +0.000 N 
ATOM      6  C   UNL     1       5.157   4.112  18.702  0.00  0.00    +0.000 A 
ATOM      7  C   UNL     1       6.603   4.501  18.496  0.00  0.00    +0.000 C 
ATOM      8  N   UNL     1       4.867   3.412  19.761  0.00  0.00    +0.000 NA
ATOM      9  C   UNL     1       3.515   3.094  19.986  0.00  0.00    +0.000 A 
ATOM     10  C   UNL     1       3.108   2.537  21.197  0.00  0.00    +0.000 A 
ATOM     11  C   UNL     1       1.747   2.333  21.463  0.00  0.00    +0.000 A 
ATOM     12  C   UNL     1       0.777   2.714  20.533  0.00  0.00    +0.000 A 
ATOM     13  C   UNL     1       1.174   3.219  19.301  0.00  0.00    +0.000 A 
ATOM     14  C   UNL     1       2.537   3.350  19.033  0.00  0.00    +0.000 A 
ATOM     15  C   UNL     1       3.030   3.747  17.720  0.00  0.00    +0.000 A 
ATOM     16  O   UNL     1       2.439   3.394  16.708  0.00  0.00    +0.000 OA
ENDBRANCH   3   5
BRANCH   1  17
ATOM     17  C   UNL     1       4.083   7.396  17.795  0.00  0.00    +0.000 C 
BRANCH  17  18
ATOM     18  O   UNL     1       2.687   7.495  17.993  0.00  0.00    +0.000 OA
BRANCH  18  26
ATOM     19  C   UNL     1       2.221   6.133  20.776  0.00  0.00    +0.000 C 
ATOM     20  C   UNL     1       1.785   7.491  20.312  0.00  0.00    +0.000 A 
ATOM     21  C   UNL     1       1.014   8.226  21.241  0.00  0.00    +0.000 A 
ATOM     22  C   UNL     1       0.543   9.506  20.976  0.00  0.00    +0.000 A 
ATOM     23  C   UNL     1       0.858  10.100  19.760  0.00  0.00    +0.000 A 
ATOM     24  C   UNL     1       1.607   9.398  18.802  0.00  0.00    +0.000 A 
ATOM     25  C   UNL     1       1.930  10.135  17.532  0.00  0.00    +0.000 C 
ATOM     26  C   UNL     1       2.063   8.066  19.065  0.00  0.00    +0.000 A 
ENDBRANCH  18  26
ENDBRANCH  17  18
ENDBRANCH   1  17
TORSDOF 4
ENDMDL
MODEL 6
REMARK VINA RESULT:      -7.8      2.294      7.032
REMARK  Name = 
REMARK  7 active torsions:
REMARK  status: ('A' for Active; 'I' for Inactive)
REMARK    1  A    between atoms: C_1  and  C_2
REMARK    2  A    between atoms: C_6  and  C_7
REMARK    3  A    between atoms: C_8  and  O_9
REMARK    4  A    between atoms: O_9  and  C_10
REMARK    5  A    between atoms: C_10  and  C_11
REMARK    6  A    between atoms: N_13  and  N_14
REMARK    7  A    between atoms: C_15  and  C_16
REMARK                            x       y       z     vdW  Elec       q    Type
REMARK                         _______ _______ _______ _____ _____    ______ ____
ROOT
ATOM      1  C   UNL     1       4.751   4.474  18.828  0.00  0.00    +0.000 C 
ATOM      2  O   UNL     1       4.372   3.934  19.874  0.00  0.00    +0.000 OA
ATOM      3  N   UNL     1       5.747   3.852  18.101  0.00  0.00    +0.000 N 
ATOM      4  H   UNL     1       6.166   3.026  18.511  0.00  0.00    +0.000 HD
ENDROOT
BRANCH   3   5
ATOM      5  N   UNL     1       6.209   4.305  16.854  0.00  0.00    +0.000 N 
ATOM      6  C   UNL     1       7.143   5.313  16.745  0.00  0.00    +0.000 A 
ATOM      7  C   UNL     1       7.656   5.997  17.993  0.00  0.00    +0.000 C 
ATOM      8  N   UNL     1       7.576   5.753  15.598  0.00  0.00    +0.000 NA
ATOM      9  C   UNL     1       7.144   5.086  14.437  0.00  0.00    +0.000 A 
ATOM     10  C   UNL     1       7.727   5.360  13.202  0.00  0.00    +0.000 A 
ATOM     11  C   UNL     1       7.379   4.610  12.069  0.00  0.00    +0.000 A 
ATOM     12  C   UNL     1       6.467   3.557  12.169  0.00  0.00    +0.000 A 
ATOM     13  C   UNL     1       5.838   3.310  13.383  0.00  0.00    +0.000 A 
ATOM     14  C   UNL     1       6.152   4.114  14.480  0.00  0.00    +0.000 A 
ATOM     15  C   UNL     1       5.440   4.000  15.747  0.00  0.00    +0.000 A 
ATOM     16  O   UNL     1       4.248   3.724  15.761  0.00  0.00    +0.000 OA
ENDBRANCH   3   5
BRANCH   1  17
ATOM     17  C   UNL     1       4.117   5.779  18.306  0.00  0.00    +0.000 C 
BRANCH  17  18
ATOM     18  O   UNL     1       2.723   5.915  18.500  0.00  0.00    +0.000 OA
BRANCH  18  26
ATOM     19  C   UNL     1       2.343   8.889  17.589  0.00  0.00    +0.000 C 
ATOM     20  C   UNL     1       1.944   8.247  18.884  0.00  0.00    +0.000 A 
ATOM     21  C   UNL     1       1.370   9.118  19.838  0.00  0.00    +0.000 A 
ATOM     22  C   UNL     1       0.931   8.682  21.082  0.00  0.00    +0.000 A 
ATOM     23  C   UNL     1       1.039   7.334  21.399  0.00  0.00    +0.000 A 
ATOM     24  C   UNL     1       1.618   6.437  20.487  0.00  0.00    +0.000 A 
ATOM     25  C   UNL     1       1.660   4.992  20.901  0.00  0.00    +0.000 C 
ATOM     26  C   UNL     1       2.100   6.894  19.218  0.00  0.00    +0.000 A 
ENDBRANCH  18  26
ENDBRANCH  17  18
ENDBRANCH   1  17
TORSDOF 4
ENDMDL
MODEL 7
REMARK VINA RESULT:      -7.7      0.377      1.776
REMARK  Name = 
REMARK  7 active torsions:
REMARK  status: ('A' for Active; 'I' for Inactive)
REMARK    1  A    between atoms: C_1  and  C_2
REMARK    2  A    between atoms: C_6  and  C_7
REMARK    3  A    between atoms: C_8  and  O_9
REMARK    4  A    between atoms: O_9  and  C_10
REMARK    5  A    between atoms: C_10  and  C_11
REMARK    6  A    between atoms: N_13  and  N_14
REMARK    7  A    between atoms: C_15  and  C_16
REMARK                            x       y       z     vdW  Elec       q    Type
REMARK                         _______ _______ _______ _____ _____    ______ ____
ROOT
ATOM      1  C   UNL     1       6.583   6.959  17.204  0.00  0.00    +0.000 C 
ATOM      2  O   UNL     1       7.420   7.855  17.052  0.00  0.00    +0.000 OA
ATOM      3  N   UNL     1       5.485   7.223  18.000  0.00  0.00    +0.000 N 
ATOM      4  H   UNL     1       5.470   8.116  18.479  0.00  0.00    +0.000 HD
ENDROOT
BRANCH   3   5
ATOM      5  N   UNL     1       4.416   6.331  18.185  0.00  0.00    +0.000 N 
ATOM      6  C   UNL     1       3.105   6.712  17.987  0.00  0.00    +0.000 A 
ATOM      7  C   UNL     1       2.790   8.141  17.609  0.00  0.00    +0.000 C 
ATOM      8  N   UNL     1       2.102   5.901  18.163  0.00  0.00    +0.000 NA
ATOM      9  C   UNL     1       2.390   4.556  18.462  0.00  0.00    +0.000 A 
ATOM     10  C   UNL     1       1.383   3.594  18.453  0.00  0.00    +0.000 A 
ATOM     11  C   UNL     1       1.693   2.239  18.632  0.00  0.00    +0.000 A 
ATOM     12  C   UNL     1       3.019   1.830  18.792  0.00  0.00    +0.000 A 
ATOM     13  C   UNL     1       4.026   2.786  18.859  0.00  0.00    +0.000 A 
ATOM     14  C   UNL     1       3.684   4.134  18.744  0.00  0.00    +0.000 A 
ATOM     15  C   UNL     1       4.663   5.196  18.934  0.00  0.00    +0.000 A 
ATOM     16  O   UNL     1       5.565   5.063  19.752  0.00  0.00    +0.000 OA
ENDBRANCH   3   5
BRANCH   1  17
ATOM     17  C   UNL     1       6.714   5.591  16.502  0.00  0.00    +0.000 C 
BRANCH  17  18
ATOM     18  O   UNL     1       7.519   5.563  15.341  0.00  0.00    +0.000 OA
BRANCH  18  26
ATOM     19  C   UNL     1       8.888   6.098  12.573  0.00  0.00    +0.000 C 
ATOM     20  C   UNL     1       7.763   5.160  12.897  0.00  0.00    +0.000 A 
ATOM     21  C   UNL     1       7.217   4.469  11.792  0.00  0.00    +0.000 A 
ATOM     22  C   UNL     1       6.181   3.552  11.920  0.00  0.00    +0.000 A 
ATOM     23  C   UNL     1       5.673   3.283  13.185  0.00  0.00    +0.000 A 
ATOM     24  C   UNL     1       6.176   3.960  14.308  0.00  0.00    +0.000 A 
ATOM     25  C   UNL     1       5.591   3.578  15.639  0.00  0.00    +0.000 C 
ATOM     26  C   UNL     1       7.221   4.930  14.169  0.00  0.00    +0.000 A 
ENDBRANCH  18  26
ENDBRANCH  17  18
ENDBRANCH   1  17
TORSDOF 4
ENDMDL
MODEL 8
REMARK VINA RESULT:      -7.6      3.303      6.322
REMARK  Name = 
REMARK  7 active torsions:
REMARK  status: ('A' for Active; 'I' for Inactive)
REMARK    1  A    between atoms: C_1  and  C_2
REMARK    2  A    between atoms: C_6  and  C_7
REMARK    3  A    between atoms: C_8  and  O_9
REMARK    4  A    between atoms: O_9  and  C_10
REMARK    5  A    between atoms: C_10  and  C_11
REMARK    6  A    between atoms: N_13  and  N_14
REMARK    7  A    between atoms: C_15  and  C_16
REMARK                            x       y       z     vdW  Elec       q    Type
REMARK                         _______ _______ _______ _____ _____    ______ ____
ROOT
ATOM      1  C   UNL     1       4.493   6.642  16.598  0.00  0.00    +0.000 C 
ATOM      2  O   UNL     1       4.862   7.210  15.565  0.00  0.00    +0.000 OA
ATOM      3  N   UNL     1       4.506   5.261  16.619  0.00  0.00    +0.000 N 
ATOM      4  H   UNL     1       4.745   4.791  15.754  0.00  0.00    +0.000 HD
ENDROOT
BRANCH   3   5
ATOM      5  N   UNL     1       4.199   4.490  17.753  0.00  0.00    +0.000 N 
ATOM      6  C   UNL     1       5.160   4.141  18.679  0.00  0.00    +0.000 A 
ATOM      7  C   UNL     1       6.599   4.549  18.455  0.00  0.00    +0.000 C 
ATOM      8  N   UNL     1       4.896   3.419  19.730  0.00  0.00    +0.000 NA
ATOM      9  C   UNL     1       3.551   3.082  19.972  0.00  0.00    +0.000 A 
ATOM     10  C   UNL     1       3.170   2.500  21.179  0.00  0.00    +0.000 A 
ATOM     11  C   UNL     1       1.816   2.277  21.465  0.00  0.00    +0.000 A 
ATOM     12  C   UNL     1       0.827   2.663  20.557  0.00  0.00    +0.000 A 
ATOM     13  C   UNL     1       1.197   3.192  19.327  0.00  0.00    +0.000 A 
ATOM     14  C   UNL     1       2.554   3.344  19.040  0.00  0.00    +0.000 A 
ATOM     15  C   UNL     1       3.021   3.768  17.726  0.00  0.00    +0.000 A 
ATOM     16  O   UNL     1       2.418   3.425  16.717  0.00  0.00    +0.000 OA
ENDBRANCH   3   5
BRANCH   1  17
ATOM     17  C   UNL     1       4.067   7.428  17.855  0.00  0.00    +0.000 C 
BRANCH  17  18
ATOM     18  O   UNL     1       2.717   7.285  18.250  0.00  0.00    +0.000 OA
BRANCH  18  26
ATOM     19  C   UNL     1       1.801  10.188  17.507  0.00  0.00    +0.000 C 
ATOM     20  C   UNL     1       1.628   9.453  18.803  0.00  0.00    +0.000 A 
ATOM     21  C   UNL     1       1.018  10.195  19.840  0.00  0.00    +0.000 A 
ATOM     22  C   UNL     1       0.770   9.659  21.098  0.00  0.00    +0.000 A 
ATOM     23  C   UNL     1       1.113   8.336  21.345  0.00  0.00    +0.000 A 
ATOM     24  C   UNL     1       1.736   7.568  20.348  0.00  0.00    +0.000 A 
ATOM     25  C   UNL     1       2.037   6.136  20.693  0.00  0.00    +0.000 C 
ATOM     26  C   UNL     1       2.021   8.133  19.062  0.00  0.00    +0.000 A 
ENDBRANCH  18  26
ENDBRANCH  17  18
ENDBRANCH   1  17
TORSDOF 4
ENDMDL
MODEL 9
REMARK VINA RESULT:      -7.6      3.116      6.641
REMARK  Name = 
REMARK  7 active torsions:
REMARK  status: ('A' for Active; 'I' for Inactive)
REMARK    1  A    between atoms: C_1  and  C_2
REMARK    2  A    between atoms: C_6  and  C_7
REMARK    3  A    between atoms: C_8  and  O_9
REMARK    4  A    between atoms: O_9  and  C_10
REMARK    5  A    between atoms: C_10  and  C_11
REMARK    6  A    between atoms: N_13  and  N_14
REMARK    7  A    between atoms: C_15  and  C_16
REMARK                            x       y       z     vdW  Elec       q    Type
REMARK                         _______ _______ _______ _____ _____    ______ ____
ROOT
ATOM      1  C   UNL     1       1.869   4.125  20.509  0.00  0.00    +0.000 C 
ATOM      2  O   UNL     1       0.948   3.570  21.117  0.00  0.00    +0.000 OA
ATOM      3  N   UNL     1       2.593   3.376  19.601  0.00  0.00    +0.000 N 
ATOM      4  H   UNL     1       2.376   2.389  19.545  0.00  0.00    +0.000 HD
ENDROOT
BRANCH   3   5
ATOM      5  N   UNL     1       3.603   3.901  18.779  0.00  0.00    +0.000 N 
ATOM      6  C   UNL     1       3.454   3.996  17.411  0.00  0.00    +0.000 A 
ATOM      7  C   UNL     1       2.193   3.478  16.758  0.00  0.00    +0.000 C 
ATOM      8  N   UNL     1       4.384   4.470  16.632  0.00  0.00    +0.000 NA
ATOM      9  C   UNL     1       5.537   5.003  17.238  0.00  0.00    +0.000 A 
ATOM     10  C   UNL     1       6.469   5.716  16.487  0.00  0.00    +0.000 A 
ATOM     11  C   UNL     1       7.553   6.347  17.113  0.00  0.00    +0.000 A 
ATOM     12  C   UNL     1       7.697   6.297  18.502  0.00  0.00    +0.000 A 
ATOM     13  C   UNL     1       6.805   5.544  19.254  0.00  0.00    +0.000 A 
ATOM     14  C   UNL     1       5.773   4.870  18.600  0.00  0.00    +0.000 A 
ATOM     15  C   UNL     1       4.880   3.958  19.305  0.00  0.00    +0.000 A 
ATOM     16  O   UNL     1       5.301   3.277  20.231  0.00  0.00    +0.000 OA
ENDBRANCH   3   5
BRANCH   1  17
ATOM     17  C   UNL     1       2.193   5.621  20.706  0.00  0.00    +0.000 C 
BRANCH  17  18
ATOM     18  O   UNL     1       2.193   6.417  19.538  0.00  0.00    +0.000 OA
BRANCH  18  26
ATOM     19  C   UNL     1       0.565   8.020  21.682  0.00  0.00    +0.000 C 
ATOM     20  C   UNL     1       1.101   8.495  20.365  0.00  0.00    +0.000 A 
ATOM     21  C   UNL     1       0.778   9.829  20.028  0.00  0.00    +0.000 A 
ATOM     22  C   UNL     1       1.210  10.429  18.851  0.00  0.00    +0.000 A 
ATOM     23  C   UNL     1       2.008   9.701  17.978  0.00  0.00    +0.000 A 
ATOM     24  C   UNL     1       2.338   8.367  18.266  0.00  0.00    +0.000 A 
ATOM     25  C   UNL     1       3.236   7.670  17.282  0.00  0.00    +0.000 C 
ATOM     26  C   UNL     1       1.865   7.740  19.464  0.00  0.00    +0.000 A 
ENDBRANCH  18  26
ENDBRANCH  17  18
ENDBRANCH   1  17
TORSDOF 4
ENDMDL
