MODEL 1
REMARK VINA RESULT:      -8.8      0.000      0.000
REMARK  Name = 
REMARK  7 active torsions:
REMARK  status: ('A' for Active; 'I' for Inactive)
REMARK    1  A    between atoms: C_1  and  C_2
REMARK    2  A    between atoms: C_5  and  C_6
REMARK    3  A    between atoms: N_7  and  O_8
REMARK    4  A    between atoms: N_9  and  C_10
REMARK    5  A    between atoms: C_10  and  C_11
REMARK    6  A    between atoms: C_18  and  O_19
REMARK    7  A    between atoms: O_19  and  C_20
REMARK                            x       y       z     vdW  Elec       q    Type
REMARK                         _______ _______ _______ _____ _____    ______ ____
ROOT
ATOM      1  C   UNL     1       0.490   2.526  18.725  0.00  0.00    +0.000 C 
ATOM      2  C   UNL     1       1.859   3.044  18.394  0.00  0.00    +0.000 A 
ATOM      3  C   UNL     1       2.970   2.214  18.370  0.00  0.00    +0.000 A 
ATOM      4  C   UNL     1       4.230   2.768  18.134  0.00  0.00    +0.000 A 
ATOM      5  C   UNL     1       4.358   4.145  17.903  0.00  0.00    +0.000 A 
ATOM      6  C   UNL     1       3.172   4.897  17.882  0.00  0.00    +0.000 A 
ATOM      7  N   UNL     1       1.948   4.368  18.147  0.00  0.00    +0.000 NA
ENDROOT
BRANCH   5   8
ATOM      8  C   UNL     1       5.734   4.753  17.764  0.00  0.00    +0.000 C 
ATOM      9  N   UNL     1       6.600   4.416  18.679  0.00  0.00    +0.000 NA
ATOM     10  N   UNL     1       6.003   5.607  16.691  0.00  0.00    +0.000 N 
ATOM     11  H   UNL     1       5.198   5.876  16.134  0.00  0.00    +0.000 HD
BRANCH   9  12
ATOM     12  O   UNL     1       7.806   5.128  18.598  0.00  0.00    +0.000 OA
ATOM     13  H   UNL     1       8.064   5.238  19.533  0.00  0.00    +0.000 HD
ENDBRANCH   9  12
BRANCH  10  14
ATOM     14  C   UNL     1       7.164   5.402  15.818  0.00  0.00    +0.000 C 
BRANCH  14  15
ATOM     15  C   UNL     1       6.774   4.743  14.517  0.00  0.00    +0.000 A 
ATOM     16  C   UNL     1       5.604   3.971  14.419  0.00  0.00    +0.000 A 
ATOM     17  C   UNL     1       5.211   3.419  13.194  0.00  0.00    +0.000 A 
ATOM     18  C   UNL     1       5.981   3.627  12.051  0.00  0.00    +0.000 A 
ATOM     19  C   UNL     1       7.151   4.378  12.135  0.00  0.00    +0.000 A 
ATOM     20  C   UNL     1       7.537   4.927  13.359  0.00  0.00    +0.000 A 
ATOM     21  F   UNL     1       8.655   5.665  13.414  0.00  0.00    +0.000 F 
ENDBRANCH  14  15
ENDBRANCH  10  14
ENDBRANCH   5   8
BRANCH   6  22
ATOM     22  O   UNL     1       3.225   6.253  17.579  0.00  0.00    +0.000 OA
BRANCH  22  23
ATOM     23  C   UNL     1       2.608   7.149  18.432  0.00  0.00    +0.000 A 
ATOM     24  C   UNL     1       2.365   6.887  19.788  0.00  0.00    +0.000 A 
ATOM     25  C   UNL     1       1.669   7.810  20.576  0.00  0.00    +0.000 A 
ATOM     26  C   UNL     1       1.190   8.986  20.005  0.00  0.00    +0.000 A 
ATOM     27  C   UNL     1       1.420   9.233  18.655  0.00  0.00    +0.000 A 
ATOM     28  F   UNL     1       0.948  10.362  18.109  0.00  0.00    +0.000 F 
ATOM     29  C   UNL     1       2.121   8.326  17.863  0.00  0.00    +0.000 A 
ENDBRANCH  22  23
ENDBRANCH   6  22
TORSDOF 6
ENDMDL
MODEL 2
REMARK VINA RESULT:      -8.8      0.877      1.275
REMARK  Name = 
REMARK  7 active torsions:
REMARK  status: ('A' for Active; 'I' for Inactive)
REMARK    1  A    between atoms: C_1  and  C_2
REMARK    2  A    between atoms: C_5  and  C_6
REMARK    3  A    between atoms: N_7  and  O_8
REMARK    4  A    between atoms: N_9  and  C_10
REMARK    5  A    between atoms: C_10  and  C_11
REMARK    6  A    between atoms: C_18  and  O_19
REMARK    7  A    between atoms: O_19  and  C_20
REMARK                            x       y       z     vdW  Elec       q    Type
REMARK                         _______ _______ _______ _____ _____    ______ ____
ROOT
ATOM      1  C   UNL     1       0.405   2.884  18.826  0.00  0.00    +0.000 C 
ATOM      2  C   UNL     1       1.796   3.326  18.475  0.00  0.00    +0.000 A 
ATOM      3  C   UNL     1       2.858   2.435  18.431  0.00  0.00    +0.000 A 
ATOM      4  C   UNL     1       4.143   2.919  18.176  0.00  0.00    +0.000 A 
ATOM      5  C   UNL     1       4.344   4.288  17.947  0.00  0.00    +0.000 A 
ATOM      6  C   UNL     1       3.202   5.104  17.946  0.00  0.00    +0.000 A 
ATOM      7  N   UNL     1       1.954   4.644  18.229  0.00  0.00    +0.000 NA
ENDROOT
BRANCH   5   8
ATOM      8  C   UNL     1       5.749   4.819  17.787  0.00  0.00    +0.000 C 
ATOM      9  N   UNL     1       6.594   4.484  18.722  0.00  0.00    +0.000 NA
ATOM     10  N   UNL     1       6.065   5.607  16.676  0.00  0.00    +0.000 N 
ATOM     11  H   UNL     1       5.276   5.889  16.103  0.00  0.00    +0.000 HD
BRANCH   9  12
ATOM     12  O   UNL     1       7.834   5.130  18.615  0.00  0.00    +0.000 OA
ATOM     13  H   UNL     1       8.050   5.356  19.540  0.00  0.00    +0.000 HD
ENDBRANCH   9  12
BRANCH  10  14
ATOM     14  C   UNL     1       7.217   5.303  15.821  0.00  0.00    +0.000 C 
BRANCH  14  15
ATOM     15  C   UNL     1       6.792   4.687  14.510  0.00  0.00    +0.000 A 
ATOM     16  C   UNL     1       5.612   3.931  14.415  0.00  0.00    +0.000 A 
ATOM     17  C   UNL     1       5.185   3.421  13.184  0.00  0.00    +0.000 A 
ATOM     18  C   UNL     1       5.933   3.654  12.030  0.00  0.00    +0.000 A 
ATOM     19  C   UNL     1       7.112   4.391  12.111  0.00  0.00    +0.000 A 
ATOM     20  C   UNL     1       7.531   4.898  13.342  0.00  0.00    +0.000 A 
ATOM     21  F   UNL     1       8.659   5.622  13.393  0.00  0.00    +0.000 F 
ENDBRANCH  14  15
ENDBRANCH  10  14
ENDBRANCH   5   8
BRANCH   6  22
ATOM     22  O   UNL     1       3.324   6.457  17.645  0.00  0.00    +0.000 OA
BRANCH  22  23
ATOM     23  C   UNL     1       2.524   7.362  18.316  0.00  0.00    +0.000 A 
ATOM     24  C   UNL     1       1.980   8.508  17.719  0.00  0.00    +0.000 A 
ATOM     25  C   UNL     1       1.240   9.422  18.477  0.00  0.00    +0.000 A 
ATOM     26  C   UNL     1       1.062   9.205  19.841  0.00  0.00    +0.000 A 
ATOM     27  C   UNL     1       1.616   8.074  20.432  0.00  0.00    +0.000 A 
ATOM     28  F   UNL     1       1.451   7.876  21.746  0.00  0.00    +0.000 F 
ATOM     29  C   UNL     1       2.348   7.153  19.684  0.00  0.00    +0.000 A 
ENDBRANCH  22  23
ENDBRANCH   6  22
TORSDOF 6
ENDMDL
MODEL 3
REMARK VINA RESULT:      -8.4      3.030      5.730
REMARK  Name = 
REMARK  7 active torsions:
REMARK  status: ('A' for Active; 'I' for Inactive)
REMARK    1  A    between atoms: C_1  and  C_2
REMARK    2  A    between atoms: C_5  and  C_6
REMARK    3  A    between atoms: N_7  and  O_8
REMARK    4  A    between atoms: N_9  and  C_10
REMARK    5  A    between atoms: C_10  and  C_11
REMARK    6  A    between atoms: C_18  and  O_19
REMARK    7  A    between atoms: O_19  and  C_20
REMARK                            x       y       z     vdW  Elec       q    Type
REMARK                         _______ _______ _______ _____ _____    ______ ____
ROOT
ATOM      1  C   UNL     1       8.119   9.232  18.137  0.00  0.00    +0.000 C 
ATOM      2  C   UNL     1       7.448   7.916  17.873  0.00  0.00    +0.000 A 
ATOM      3  C   UNL     1       8.116   6.710  18.023  0.00  0.00    +0.000 A 
ATOM      4  C   UNL     1       7.463   5.522  17.685  0.00  0.00    +0.000 A 
ATOM      5  C   UNL     1       6.140   5.558  17.222  0.00  0.00    +0.000 A 
ATOM      6  C   UNL     1       5.522   6.817  17.164  0.00  0.00    +0.000 A 
ATOM      7  N   UNL     1       6.165   7.979  17.457  0.00  0.00    +0.000 NA
ENDROOT
BRANCH   5   8
ATOM      8  C   UNL     1       5.481   4.283  16.750  0.00  0.00    +0.000 C 
ATOM      9  N   UNL     1       6.206   3.519  15.981  0.00  0.00    +0.000 NA
ATOM     10  N   UNL     1       4.176   3.991  17.158  0.00  0.00    +0.000 N 
ATOM     11  H   UNL     1       3.695   4.737  17.649  0.00  0.00    +0.000 HD
BRANCH   9  12
ATOM     12  O   UNL     1       5.499   2.434  15.442  0.00  0.00    +0.000 OA
ATOM     13  H   UNL     1       6.119   2.066  14.784  0.00  0.00    +0.000 HD
ENDBRANCH   9  12
BRANCH  10  14
ATOM     14  C   UNL     1       3.829   2.698  17.757  0.00  0.00    +0.000 C 
BRANCH  14  15
ATOM     15  C   UNL     1       2.938   2.864  18.964  0.00  0.00    +0.000 A 
ATOM     16  C   UNL     1       1.578   3.186  18.820  0.00  0.00    +0.000 A 
ATOM     17  C   UNL     1       0.740   3.270  19.939  0.00  0.00    +0.000 A 
ATOM     18  C   UNL     1       1.249   3.038  21.216  0.00  0.00    +0.000 A 
ATOM     19  C   UNL     1       2.598   2.731  21.375  0.00  0.00    +0.000 A 
ATOM     20  C   UNL     1       3.427   2.647  20.256  0.00  0.00    +0.000 A 
ATOM     21  F   UNL     1       4.719   2.330  20.430  0.00  0.00    +0.000 F 
ENDBRANCH  14  15
ENDBRANCH  10  14
ENDBRANCH   5   8
BRANCH   6  22
ATOM     22  O   UNL     1       4.186   6.910  16.790  0.00  0.00    +0.000 OA
BRANCH  22  23
ATOM     23  C   UNL     1       3.265   7.358  17.718  0.00  0.00    +0.000 A 
ATOM     24  C   UNL     1       2.619   8.599  17.633  0.00  0.00    +0.000 A 
ATOM     25  C   UNL     1       1.754   9.021  18.649  0.00  0.00    +0.000 A 
ATOM     26  C   UNL     1       1.551   8.213  19.764  0.00  0.00    +0.000 A 
ATOM     27  C   UNL     1       2.206   6.989  19.851  0.00  0.00    +0.000 A 
ATOM     28  F   UNL     1       2.015   6.221  20.931  0.00  0.00    +0.000 F 
ATOM     29  C   UNL     1       3.063   6.555  18.841  0.00  0.00    +0.000 A 
ENDBRANCH  22  23
ENDBRANCH   6  22
TORSDOF 6
ENDMDL
MODEL 4
REMARK VINA RESULT:      -8.4      3.041      5.779
REMARK  Name = 
REMARK  7 active torsions:
REMARK  status: ('A' for Active; 'I' for Inactive)
REMARK    1  A    between atoms: C_1  and  C_2
REMARK    2  A    between atoms: C_5  and  C_6
REMARK    3  A    between atoms: N_7  and  O_8
REMARK    4  A    between atoms: N_9  and  C_10
REMARK    5  A    between atoms: C_10  and  C_11
REMARK    6  A    between atoms: C_18  and  O_19
REMARK    7  A    between atoms: O_19  and  C_20
REMARK                            x       y       z     vdW  Elec       q    Type
REMARK                         _______ _______ _______ _____ _____    ______ ____
ROOT
ATOM      1  C   UNL     1       8.092   9.437  18.002  0.00  0.00    +0.000 C 
ATOM      2  C   UNL     1       7.441   8.101  17.793  0.00  0.00    +0.000 A 
ATOM      3  C   UNL     1       8.127   6.913  17.997  0.00  0.00    +0.000 A 
ATOM      4  C   UNL     1       7.493   5.702  17.708  0.00  0.00    +0.000 A 
ATOM      5  C   UNL     1       6.172   5.697  17.239  0.00  0.00    +0.000 A 
ATOM      6  C   UNL     1       5.535   6.943  17.125  0.00  0.00    +0.000 A 
ATOM      7  N   UNL     1       6.159   8.126  17.371  0.00  0.00    +0.000 NA
ENDROOT
BRANCH   5   8
ATOM      8  C   UNL     1       5.534   4.393  16.820  0.00  0.00    +0.000 C 
ATOM      9  N   UNL     1       6.230   3.658  15.998  0.00  0.00    +0.000 NA
ATOM     10  N   UNL     1       4.279   4.048  17.327  0.00  0.00    +0.000 N 
ATOM     11  H   UNL     1       3.805   4.775  17.853  0.00  0.00    +0.000 HD
BRANCH   9  12
ATOM     12  O   UNL     1       5.531   2.542  15.516  0.00  0.00    +0.000 OA
ATOM     13  H   UNL     1       4.628   2.885  15.379  0.00  0.00    +0.000 HD
ENDBRANCH   9  12
BRANCH  10  14
ATOM     14  C   UNL     1       4.034   2.743  17.952  0.00  0.00    +0.000 C 
BRANCH  14  15
ATOM     15  C   UNL     1       3.058   2.849  19.100  0.00  0.00    +0.000 A 
ATOM     16  C   UNL     1       3.471   2.621  20.423  0.00  0.00    +0.000 A 
ATOM     17  C   UNL     1       2.579   2.788  21.489  0.00  0.00    +0.000 A 
ATOM     18  C   UNL     1       1.263   3.180  21.249  0.00  0.00    +0.000 A 
ATOM     19  C   UNL     1       0.837   3.397  19.941  0.00  0.00    +0.000 A 
ATOM     20  C   UNL     1       1.731   3.230  18.883  0.00  0.00    +0.000 A 
ATOM     21  F   UNL     1       1.304   3.464  17.633  0.00  0.00    +0.000 F 
ENDBRANCH  14  15
ENDBRANCH  10  14
ENDBRANCH   5   8
BRANCH   6  22
ATOM     22  O   UNL     1       4.199   6.999  16.743  0.00  0.00    +0.000 OA
BRANCH  22  23
ATOM     23  C   UNL     1       3.263   7.443  17.659  0.00  0.00    +0.000 A 
ATOM     24  C   UNL     1       2.597   8.672  17.553  0.00  0.00    +0.000 A 
ATOM     25  C   UNL     1       1.717   9.091  18.557  0.00  0.00    +0.000 A 
ATOM     26  C   UNL     1       1.520   8.295  19.682  0.00  0.00    +0.000 A 
ATOM     27  C   UNL     1       2.196   7.083  19.788  0.00  0.00    +0.000 A 
ATOM     28  F   UNL     1       2.010   6.326  20.878  0.00  0.00    +0.000 F 
ATOM     29  C   UNL     1       3.067   6.652  18.791  0.00  0.00    +0.000 A 
ENDBRANCH  22  23
ENDBRANCH   6  22
TORSDOF 6
ENDMDL
MODEL 5
REMARK VINA RESULT:      -8.3      0.936      1.301
REMARK  Name = 
REMARK  7 active torsions:
REMARK  status: ('A' for Active; 'I' for Inactive)
REMARK    1  A    between atoms: C_1  and  C_2
REMARK    2  A    between atoms: C_5  and  C_6
REMARK    3  A    between atoms: N_7  and  O_8
REMARK    4  A    between atoms: N_9  and  C_10
REMARK    5  A    between atoms: C_10  and  C_11
REMARK    6  A    between atoms: C_18  and  O_19
REMARK    7  A    between atoms: O_19  and  C_20
REMARK                            x       y       z     vdW  Elec       q    Type
REMARK                         _______ _______ _______ _____ _____    ______ ____
ROOT
ATOM      1  C   UNL     1       0.276   2.819  18.496  0.00  0.00    +0.000 C 
ATOM      2  C   UNL     1       1.690   3.266  18.262  0.00  0.00    +0.000 A 
ATOM      3  C   UNL     1       2.746   2.367  18.228  0.00  0.00    +0.000 A 
ATOM      4  C   UNL     1       4.048   2.851  18.086  0.00  0.00    +0.000 A 
ATOM      5  C   UNL     1       4.274   4.229  17.959  0.00  0.00    +0.000 A 
ATOM      6  C   UNL     1       3.141   5.057  17.939  0.00  0.00    +0.000 A 
ATOM      7  N   UNL     1       1.874   4.595  18.113  0.00  0.00    +0.000 NA
ENDROOT
BRANCH   5   8
ATOM      8  C   UNL     1       5.691   4.752  17.923  0.00  0.00    +0.000 C 
ATOM      9  N   UNL     1       6.419   4.496  18.974  0.00  0.00    +0.000 NA
ATOM     10  N   UNL     1       6.138   5.450  16.798  0.00  0.00    +0.000 N 
ATOM     11  H   UNL     1       5.423   5.683  16.116  0.00  0.00    +0.000 HD
BRANCH   9  12
ATOM     12  O   UNL     1       7.667   5.136  18.962  0.00  0.00    +0.000 OA
ATOM     13  H   UNL     1       8.073   4.820  18.132  0.00  0.00    +0.000 HD
ENDBRANCH   9  12
BRANCH  10  14
ATOM     14  C   UNL     1       7.381   5.085  16.110  0.00  0.00    +0.000 C 
BRANCH  14  15
ATOM     15  C   UNL     1       7.143   4.787  14.649  0.00  0.00    +0.000 A 
ATOM     16  C   UNL     1       7.824   5.497  13.646  0.00  0.00    +0.000 A 
ATOM     17  C   UNL     1       7.653   5.170  12.296  0.00  0.00    +0.000 A 
ATOM     18  C   UNL     1       6.796   4.134  11.928  0.00  0.00    +0.000 A 
ATOM     19  C   UNL     1       6.103   3.431  12.910  0.00  0.00    +0.000 A 
ATOM     20  C   UNL     1       6.280   3.760  14.255  0.00  0.00    +0.000 A 
ATOM     21  F   UNL     1       5.619   3.056  15.186  0.00  0.00    +0.000 F 
ENDBRANCH  14  15
ENDBRANCH  10  14
ENDBRANCH   5   8
BRANCH   6  22
ATOM     22  O   UNL     1       3.294   6.425  17.736  0.00  0.00    +0.000 OA
BRANCH  22  23
ATOM     23  C   UNL     1       2.596   7.300  18.547  0.00  0.00    +0.000 A 
ATOM     24  C   UNL     1       2.295   7.039  19.891  0.00  0.00    +0.000 A 
ATOM     25  C   UNL     1       1.519   7.937  20.633  0.00  0.00    +0.000 A 
ATOM     26  C   UNL     1       1.020   9.086  20.025  0.00  0.00    +0.000 A 
ATOM     27  C   UNL     1       1.309   9.332  18.687  0.00  0.00    +0.000 A 
ATOM     28  F   UNL     1       0.817  10.433  18.105  0.00  0.00    +0.000 F 
ATOM     29  C   UNL     1       2.087   8.449  17.941  0.00  0.00    +0.000 A 
ENDBRANCH  22  23
ENDBRANCH   6  22
TORSDOF 6
ENDMDL
MODEL 6
REMARK VINA RESULT:      -8.2      1.663      2.116
REMARK  Name = 
REMARK  7 active torsions:
REMARK  status: ('A' for Active; 'I' for Inactive)
REMARK    1  A    between atoms: C_1  and  C_2
REMARK    2  A    between atoms: C_5  and  C_6
REMARK    3  A    between atoms: N_7  and  O_8
REMARK    4  A    between atoms: N_9  and  C_10
REMARK    5  A    between atoms: C_10  and  C_11
REMARK    6  A    between atoms: C_18  and  O_19
REMARK    7  A    between atoms: O_19  and  C_20
REMARK                            x       y       z     vdW  Elec       q    Type
REMARK                         _______ _______ _______ _____ _____    ______ ____
ROOT
ATOM      1  C   UNL     1       0.878   3.284  20.625  0.00  0.00    +0.000 C 
ATOM      2  C   UNL     1       2.204   3.726  20.078  0.00  0.00    +0.000 A 
ATOM      3  C   UNL     1       3.340   2.937  20.184  0.00  0.00    +0.000 A 
ATOM      4  C   UNL     1       4.562   3.437  19.727  0.00  0.00    +0.000 A 
ATOM      5  C   UNL     1       4.625   4.712  19.149  0.00  0.00    +0.000 A 
ATOM      6  C   UNL     1       3.415   5.413  19.024  0.00  0.00    +0.000 A 
ATOM      7  N   UNL     1       2.229   4.946  19.500  0.00  0.00    +0.000 NA
ENDROOT
BRANCH   5   8
ATOM      8  C   UNL     1       5.967   5.291  18.764  0.00  0.00    +0.000 C 
ATOM      9  N   UNL     1       6.848   5.370  19.721  0.00  0.00    +0.000 NA
ATOM     10  N   UNL     1       6.191   5.688  17.443  0.00  0.00    +0.000 N 
ATOM     11  H   UNL     1       5.373   5.686  16.842  0.00  0.00    +0.000 HD
BRANCH   9  12
ATOM     12  O   UNL     1       8.015   6.057  19.355  0.00  0.00    +0.000 OA
ATOM     13  H   UNL     1       8.676   5.345  19.265  0.00  0.00    +0.000 HD
ENDBRANCH   9  12
BRANCH  10  14
ATOM     14  C   UNL     1       7.362   5.227  16.689  0.00  0.00    +0.000 C 
BRANCH  14  15
ATOM     15  C   UNL     1       6.994   4.811  15.286  0.00  0.00    +0.000 A 
ATOM     16  C   UNL     1       7.700   5.304  14.177  0.00  0.00    +0.000 A 
ATOM     17  C   UNL     1       7.400   4.862  12.882  0.00  0.00    +0.000 A 
ATOM     18  C   UNL     1       6.389   3.924  12.678  0.00  0.00    +0.000 A 
ATOM     19  C   UNL     1       5.672   3.436  13.767  0.00  0.00    +0.000 A 
ATOM     20  C   UNL     1       5.976   3.880  15.054  0.00  0.00    +0.000 A 
ATOM     21  F   UNL     1       5.286   3.381  16.091  0.00  0.00    +0.000 F 
ENDBRANCH  14  15
ENDBRANCH  10  14
ENDBRANCH   5   8
BRANCH   6  22
ATOM     22  O   UNL     1       3.399   6.649  18.387  0.00  0.00    +0.000 OA
BRANCH  22  23
ATOM     23  C   UNL     1       2.452   7.581  18.768  0.00  0.00    +0.000 A 
ATOM     24  C   UNL     1       1.928   8.552  17.904  0.00  0.00    +0.000 A 
ATOM     25  C   UNL     1       1.028   9.514  18.378  0.00  0.00    +0.000 A 
ATOM     26  C   UNL     1       0.669   9.522  19.723  0.00  0.00    +0.000 A 
ATOM     27  C   UNL     1       1.204   8.565  20.579  0.00  0.00    +0.000 A 
ATOM     28  F   UNL     1       0.864   8.585  21.875  0.00  0.00    +0.000 F 
ATOM     29  C   UNL     1       2.094   7.598  20.117  0.00  0.00    +0.000 A 
ENDBRANCH  22  23
ENDBRANCH   6  22
TORSDOF 6
ENDMDL
MODEL 7
REMARK VINA RESULT:      -8.2      3.071      7.437
REMARK  Name = 
REMARK  7 active torsions:
REMARK  status: ('A' for Active; 'I' for Inactive)
REMARK    1  A    between atoms: C_1  and  C_2
REMARK    2  A    between atoms: C_5  and  C_6
REMARK    3  A    between atoms: N_7  and  O_8
REMARK    4  A    between atoms: N_9  and  C_10
REMARK    5  A    between atoms: C_10  and  C_11
REMARK    6  A    between atoms: C_18  and  O_19
REMARK    7  A    between atoms: O_19  and  C_20
REMARK                            x       y       z     vdW  Elec       q    Type
REMARK                         _______ _______ _______ _____ _____    ______ ____
ROOT
ATOM      1  C   UNL     1       6.239   4.049  15.712  0.00  0.00    +0.000 C 
ATOM      2  C   UNL     1       5.251   4.978  16.355  0.00  0.00    +0.000 A 
ATOM      3  C   UNL     1       5.483   6.342  16.450  0.00  0.00    +0.000 A 
ATOM      4  C   UNL     1       4.564   7.144  17.131  0.00  0.00    +0.000 A 
ATOM      5  C   UNL     1       3.413   6.571  17.689  0.00  0.00    +0.000 A 
ATOM      6  C   UNL     1       3.228   5.194  17.487  0.00  0.00    +0.000 A 
ATOM      7  N   UNL     1       4.138   4.403  16.857  0.00  0.00    +0.000 NA
ENDROOT
BRANCH   5   8
ATOM      8  C   UNL     1       2.483   7.423  18.521  0.00  0.00    +0.000 C 
ATOM      9  N   UNL     1       2.492   7.188  19.804  0.00  0.00    +0.000 NA
ATOM     10  N   UNL     1       1.698   8.396  17.897  0.00  0.00    +0.000 N 
ATOM     11  H   UNL     1       1.703   8.376  16.883  0.00  0.00    +0.000 HD
BRANCH   9  12
ATOM     12  O   UNL     1       1.503   7.888  20.509  0.00  0.00    +0.000 OA
ATOM     13  H   UNL     1       1.466   7.423  21.366  0.00  0.00    +0.000 HD
ENDBRANCH   9  12
BRANCH  10  14
ATOM     14  C   UNL     1       1.677   9.785  18.367  0.00  0.00    +0.000 C 
BRANCH  14  15
ATOM     15  C   UNL     1       0.275  10.345  18.393  0.00  0.00    +0.000 A 
ATOM     16  C   UNL     1      -0.769   9.710  17.700  0.00  0.00    +0.000 A 
ATOM     17  C   UNL     1      -2.081  10.193  17.783  0.00  0.00    +0.000 A 
ATOM     18  C   UNL     1      -2.367  11.317  18.555  0.00  0.00    +0.000 A 
ATOM     19  C   UNL     1      -1.340  11.965  19.237  0.00  0.00    +0.000 A 
ATOM     20  C   UNL     1      -0.034  11.478  19.151  0.00  0.00    +0.000 A 
ATOM     21  F   UNL     1       0.936  12.104  19.833  0.00  0.00    +0.000 F 
ENDBRANCH  14  15
ENDBRANCH  10  14
ENDBRANCH   5   8
BRANCH   6  22
ATOM     22  O   UNL     1       2.068   4.581  17.947  0.00  0.00    +0.000 OA
BRANCH  22  23
ATOM     23  C   UNL     1       2.116   3.866  19.129  0.00  0.00    +0.000 A 
ATOM     24  C   UNL     1       1.067   3.831  20.058  0.00  0.00    +0.000 A 
ATOM     25  C   UNL     1       1.214   3.147  21.270  0.00  0.00    +0.000 A 
ATOM     26  C   UNL     1       2.419   2.517  21.567  0.00  0.00    +0.000 A 
ATOM     27  C   UNL     1       3.462   2.568  20.648  0.00  0.00    +0.000 A 
ATOM     28  F   UNL     1       4.623   1.969  20.945  0.00  0.00    +0.000 F 
ATOM     29  C   UNL     1       3.324   3.239  19.435  0.00  0.00    +0.000 A 
ENDBRANCH  22  23
ENDBRANCH   6  22
TORSDOF 6
ENDMDL
MODEL 8
REMARK VINA RESULT:      -8.2      1.623      2.171
REMARK  Name = 
REMARK  7 active torsions:
REMARK  status: ('A' for Active; 'I' for Inactive)
REMARK    1  A    between atoms: C_1  and  C_2
REMARK    2  A    between atoms: C_5  and  C_6
REMARK    3  A    between atoms: N_7  and  O_8
REMARK    4  A    between atoms: N_9  and  C_10
REMARK    5  A    between atoms: C_10  and  C_11
REMARK    6  A    between atoms: C_18  and  O_19
REMARK    7  A    between atoms: O_19  and  C_20
REMARK                            x       y       z     vdW  Elec       q    Type
REMARK                         _______ _______ _______ _____ _____    ______ ____
ROOT
ATOM      1  C   UNL     1       0.281   2.258  19.005  0.00  0.00    +0.000 C 
ATOM      2  C   UNL     1       1.561   3.037  18.916  0.00  0.00    +0.000 A 
ATOM      3  C   UNL     1       2.644   2.583  18.177  0.00  0.00    +0.000 A 
ATOM      4  C   UNL     1       3.836   3.311  18.197  0.00  0.00    +0.000 A 
ATOM      5  C   UNL     1       3.920   4.497  18.940  0.00  0.00    +0.000 A 
ATOM      6  C   UNL     1       2.755   4.913  19.604  0.00  0.00    +0.000 A 
ATOM      7  N   UNL     1       1.604   4.190  19.617  0.00  0.00    +0.000 NA
ENDROOT
BRANCH   5   8
ATOM      8  C   UNL     1       5.244   5.216  19.049  0.00  0.00    +0.000 C 
ATOM      9  N   UNL     1       6.182   4.585  19.700  0.00  0.00    +0.000 NA
ATOM     10  N   UNL     1       5.396   6.473  18.458  0.00  0.00    +0.000 N 
ATOM     11  H   UNL     1       4.544   6.891  18.098  0.00  0.00    +0.000 HD
BRANCH   9  12
ATOM     12  O   UNL     1       7.334   5.357  19.912  0.00  0.00    +0.000 OA
ATOM     13  H   UNL     1       7.932   4.742  20.378  0.00  0.00    +0.000 HD
ENDBRANCH   9  12
BRANCH  10  14
ATOM     14  C   UNL     1       6.514   6.768  17.556  0.00  0.00    +0.000 C 
BRANCH  14  15
ATOM     15  C   UNL     1       6.469   5.912  16.312  0.00  0.00    +0.000 A 
ATOM     16  C   UNL     1       7.376   4.855  16.130  0.00  0.00    +0.000 A 
ATOM     17  C   UNL     1       7.287   4.021  15.009  0.00  0.00    +0.000 A 
ATOM     18  C   UNL     1       6.294   4.233  14.054  0.00  0.00    +0.000 A 
ATOM     19  C   UNL     1       5.396   5.286  14.215  0.00  0.00    +0.000 A 
ATOM     20  C   UNL     1       5.490   6.113  15.335  0.00  0.00    +0.000 A 
ATOM     21  F   UNL     1       4.602   7.108  15.481  0.00  0.00    +0.000 F 
ENDBRANCH  14  15
ENDBRANCH  10  14
ENDBRANCH   5   8
BRANCH   6  22
ATOM     22  O   UNL     1       2.751   6.122  20.291  0.00  0.00    +0.000 OA
BRANCH  22  23
ATOM     23  C   UNL     1       2.176   7.226  19.691  0.00  0.00    +0.000 A 
ATOM     24  C   UNL     1       2.302   7.522  18.327  0.00  0.00    +0.000 A 
ATOM     25  C   UNL     1       1.756   8.698  17.801  0.00  0.00    +0.000 A 
ATOM     26  C   UNL     1       1.104   9.595  18.642  0.00  0.00    +0.000 A 
ATOM     27  C   UNL     1       0.994   9.304  19.998  0.00  0.00    +0.000 A 
ATOM     28  F   UNL     1       0.374  10.175  20.805  0.00  0.00    +0.000 F 
ATOM     29  C   UNL     1       1.526   8.132  20.531  0.00  0.00    +0.000 A 
ENDBRANCH  22  23
ENDBRANCH   6  22
TORSDOF 6
ENDMDL
MODEL 9
REMARK VINA RESULT:      -8.2      2.890      5.608
REMARK  Name = 
REMARK  7 active torsions:
REMARK  status: ('A' for Active; 'I' for Inactive)
REMARK    1  A    between atoms: C_1  and  C_2
REMARK    2  A    between atoms: C_5  and  C_6
REMARK    3  A    between atoms: N_7  and  O_8
REMARK    4  A    between atoms: N_9  and  C_10
REMARK    5  A    between atoms: C_10  and  C_11
REMARK    6  A    between atoms: C_18  and  O_19
REMARK    7  A    between atoms: O_19  and  C_20
REMARK                            x       y       z     vdW  Elec       q    Type
REMARK                         _______ _______ _______ _____ _____    ______ ____
ROOT
ATOM      1  C   UNL     1       8.256   9.263  18.192  0.00  0.00    +0.000 C 
ATOM      2  C   UNL     1       7.556   7.963  17.924  0.00  0.00    +0.000 A 
ATOM      3  C   UNL     1       8.207   6.743  18.044  0.00  0.00    +0.000 A 
ATOM      4  C   UNL     1       7.526   5.572  17.705  0.00  0.00    +0.000 A 
ATOM      5  C   UNL     1       6.194   5.636  17.271  0.00  0.00    +0.000 A 
ATOM      6  C   UNL     1       5.597   6.906  17.242  0.00  0.00    +0.000 A 
ATOM      7  N   UNL     1       6.266   8.053  17.537  0.00  0.00    +0.000 NA
ENDROOT
BRANCH   5   8
ATOM      8  C   UNL     1       5.503   4.379  16.796  0.00  0.00    +0.000 C 
ATOM      9  N   UNL     1       6.197   3.614  16.000  0.00  0.00    +0.000 NA
ATOM     10  N   UNL     1       4.204   4.103  17.229  0.00  0.00    +0.000 N 
ATOM     11  H   UNL     1       3.746   4.851  17.741  0.00  0.00    +0.000 HD
BRANCH   9  12
ATOM     12  O   UNL     1       5.460   2.549  15.462  0.00  0.00    +0.000 OA
ATOM     13  H   UNL     1       4.617   2.968  15.205  0.00  0.00    +0.000 HD
ENDBRANCH   9  12
BRANCH  10  14
ATOM     14  C   UNL     1       3.848   2.808  17.818  0.00  0.00    +0.000 C 
BRANCH  14  15
ATOM     15  C   UNL     1       2.967   2.970  19.034  0.00  0.00    +0.000 A 
ATOM     16  C   UNL     1       1.633   3.391  18.908  0.00  0.00    +0.000 A 
ATOM     17  C   UNL     1       0.800   3.473  20.031  0.00  0.00    +0.000 A 
ATOM     18  C   UNL     1       1.289   3.141  21.293  0.00  0.00    +0.000 A 
ATOM     19  C   UNL     1       2.614   2.735  21.434  0.00  0.00    +0.000 A 
ATOM     20  C   UNL     1       3.438   2.654  20.311  0.00  0.00    +0.000 A 
ATOM     21  F   UNL     1       4.705   2.241  20.467  0.00  0.00    +0.000 F 
ENDBRANCH  14  15
ENDBRANCH  10  14
ENDBRANCH   5   8
BRANCH   6  22
ATOM     22  O   UNL     1       4.255   7.027  16.898  0.00  0.00    +0.000 OA
BRANCH  22  23
ATOM     23  C   UNL     1       3.357   7.450  17.860  0.00  0.00    +0.000 A 
ATOM     24  C   UNL     1       3.117   6.756  19.054  0.00  0.00    +0.000 A 
ATOM     25  C   UNL     1       2.138   7.201  19.950  0.00  0.00    +0.000 A 
ATOM     26  C   UNL     1       1.379   8.327  19.642  0.00  0.00    +0.000 A 
ATOM     27  C   UNL     1       1.611   9.002  18.448  0.00  0.00    +0.000 A 
ATOM     28  F   UNL     1       0.870  10.078  18.152  0.00  0.00    +0.000 F 
ATOM     29  C   UNL     1       2.589   8.573  17.553  0.00  0.00    +0.000 A 
ENDBRANCH  22  23
ENDBRANCH   6  22
TORSDOF 6
ENDMDL
