MODEL 1
REMARK VINA RESULT:      -8.7      0.000      0.000
REMARK  Name = 
REMARK  7 active torsions:
REMARK  status: ('A' for Active; 'I' for Inactive)
REMARK    1  A    between atoms: C_1  and  C_2
REMARK    2  A    between atoms: C_7  and  C_8
REMARK    3  A    between atoms: C_8  and  S_9
REMARK    4  A    between atoms: S_9  and  C_10
REMARK    5  A    between atoms: C_13  and  C_14
REMARK    6  A    between atoms: C_14  and  C_15
REMARK    7  A    between atoms: N_20  and  C_21
REMARK                            x       y       z     vdW  Elec       q    Type
REMARK                         _______ _______ _______ _____ _____    ______ ____
ROOT
ATOM      1  C   UNL     1       4.649   6.496  17.690  0.00  0.00    +0.000 A 
ATOM      2  N   UNL     1       5.568   7.355  17.320  0.00  0.00    +0.000 NA
ATOM      3  N   UNL     1       6.536   6.655  16.640  0.00  0.00    +0.000 NA
ATOM      4  C   UNL     1       6.195   5.375  16.599  0.00  0.00    +0.000 A 
ATOM      5  N   UNL     1       5.032   5.216  17.333  0.00  0.00    +0.000 N 
ENDROOT
BRANCH   5   6
ATOM      6  C   UNL     1       4.403   4.003  17.836  0.00  0.00    +0.000 C 
ATOM      7  C   UNL     1       2.971   3.813  17.323  0.00  0.00    +0.000 C 
ATOM      8  C   UNL     1       2.496   2.395  17.631  0.00  0.00    +0.000 C 
ATOM      9  C   UNL     1       2.601   2.084  19.122  0.00  0.00    +0.000 C 
ATOM     10  C   UNL     1       4.007   2.332  19.673  0.00  0.00    +0.000 C 
ATOM     11  C   UNL     1       4.523   3.736  19.339  0.00  0.00    +0.000 C 
ENDBRANCH   5   6
BRANCH   1  12
ATOM     12  S   UNL     1       3.146   6.845  18.481  0.00  0.00    +0.000 S 
BRANCH  12  13
ATOM     13  C   UNL     1       2.400   8.175  17.505  0.00  0.00    +0.000 C 
BRANCH  13  20
ATOM     14  C   UNL     1      -1.651  11.598  23.386  0.00  0.00    +0.000 C 
ATOM     15  C   UNL     1      -0.856  10.809  22.388  0.00  0.00    +0.000 A 
ATOM     16  C   UNL     1      -0.067   9.692  22.850  0.00  0.00    +0.000 A 
ATOM     17  C   UNL     1       0.685   8.984  22.000  0.00  0.00    +0.000 A 
ATOM     18  C   UNL     1       0.724   9.343  20.552  0.00  0.00    +0.000 A 
ATOM     19  N   UNL     1       1.482   8.644  19.749  0.00  0.00    +0.000 NA
ATOM     20  C   UNL     1       1.497   8.994  18.417  0.00  0.00    +0.000 A 
ATOM     21  C   UNL     1       0.772  10.007  17.925  0.00  0.00    +0.000 A 
ATOM     22  C   UNL     1      -0.104  10.778  18.823  0.00  0.00    +0.000 A 
ATOM     23  O   UNL     1      -0.790  11.681  18.344  0.00  0.00    +0.000 OA
ATOM     24  N   UNL     1      -0.074  10.407  20.158  0.00  0.00    +0.000 N 
ATOM     25  C   UNL     1      -0.838  11.115  21.080  0.00  0.00    +0.000 A 
ENDBRANCH  13  20
ENDBRANCH  12  13
ENDBRANCH   1  12
BRANCH   4  26
ATOM     26  C   UNL     1       7.000   4.319  15.895  0.00  0.00    +0.000 C 
BRANCH  26  27
ATOM     27  C   UNL     1       6.715   4.177  14.422  0.00  0.00    +0.000 A 
ATOM     28  C   UNL     1       5.698   3.497  13.777  0.00  0.00    +0.000 A 
ATOM     29  C   UNL     1       5.848   3.512  12.358  0.00  0.00    +0.000 A 
ATOM     30  C   UNL     1       6.927   4.267  11.961  0.00  0.00    +0.000 A 
ATOM     31  S   UNL     1       7.732   4.980  13.287  0.00  0.00    +0.000 S 
ENDBRANCH  26  27
ENDBRANCH   4  26
TORSDOF 6
ENDMDL
MODEL 2
REMARK VINA RESULT:      -8.5      1.241      1.313
REMARK  Name = 
REMARK  7 active torsions:
REMARK  status: ('A' for Active; 'I' for Inactive)
REMARK    1  A    between atoms: C_1  and  C_2
REMARK    2  A    between atoms: C_7  and  C_8
REMARK    3  A    between atoms: C_8  and  S_9
REMARK    4  A    between atoms: S_9  and  C_10
REMARK    5  A    between atoms: C_13  and  C_14
REMARK    6  A    between atoms: C_14  and  C_15
REMARK    7  A    between atoms: N_20  and  C_21
REMARK                            x       y       z     vdW  Elec       q    Type
REMARK                         _______ _______ _______ _____ _____    ______ ____
ROOT
ATOM      1  C   UNL     1       3.569   6.749  17.823  0.00  0.00    +0.000 A 
ATOM      2  N   UNL     1       4.526   7.362  17.172  0.00  0.00    +0.000 NA
ATOM      3  N   UNL     1       5.265   6.400  16.524  0.00  0.00    +0.000 NA
ATOM      4  C   UNL     1       4.747   5.209  16.787  0.00  0.00    +0.000 A 
ATOM      5  N   UNL     1       3.707   5.380  17.684  0.00  0.00    +0.000 N 
ENDROOT
BRANCH   5   6
ATOM      6  C   UNL     1       3.005   4.399  18.498  0.00  0.00    +0.000 C 
ATOM      7  C   UNL     1       1.607   4.066  17.964  0.00  0.00    +0.000 C 
ATOM      8  C   UNL     1       1.065   2.826  18.671  0.00  0.00    +0.000 C 
ATOM      9  C   UNL     1       1.055   3.011  20.187  0.00  0.00    +0.000 C 
ATOM     10  C   UNL     1       2.426   3.411  20.737  0.00  0.00    +0.000 C 
ATOM     11  C   UNL     1       3.010   4.628  20.012  0.00  0.00    +0.000 C 
ENDBRANCH   5   6
BRANCH   1  12
ATOM     12  S   UNL     1       2.277   7.479  18.719  0.00  0.00    +0.000 S 
BRANCH  12  13
ATOM     13  C   UNL     1       2.084   9.131  18.002  0.00  0.00    +0.000 C 
BRANCH  13  20
ATOM     14  C   UNL     1      -2.602  12.309  23.538  0.00  0.00    +0.000 C 
ATOM     15  C   UNL     1      -1.695  11.565  22.605  0.00  0.00    +0.000 A 
ATOM     16  C   UNL     1      -0.927  10.453  23.115  0.00  0.00    +0.000 A 
ATOM     17  C   UNL     1      -0.079   9.785  22.325  0.00  0.00    +0.000 A 
ATOM     18  C   UNL     1       0.092  10.182  20.897  0.00  0.00    +0.000 A 
ATOM     19  N   UNL     1       0.941   9.521  20.156  0.00  0.00    +0.000 NA
ATOM     20  C   UNL     1       1.077   9.906  18.841  0.00  0.00    +0.000 A 
ATOM     21  C   UNL     1       0.379  10.916  18.304  0.00  0.00    +0.000 A 
ATOM     22  C   UNL     1      -0.598  11.644  19.131  0.00  0.00    +0.000 A 
ATOM     23  O   UNL     1      -1.256  12.544  18.609  0.00  0.00    +0.000 OA
ATOM     24  N   UNL     1      -0.689  11.239  20.453  0.00  0.00    +0.000 N 
ATOM     25  C   UNL     1      -1.557  11.905  21.312  0.00  0.00    +0.000 A 
ENDBRANCH  13  20
ENDBRANCH  12  13
ENDBRANCH   1  12
BRANCH   4  26
ATOM     26  C   UNL     1       5.274   3.925  16.209  0.00  0.00    +0.000 C 
BRANCH  26  27
ATOM     27  C   UNL     1       5.769   4.021  14.788  0.00  0.00    +0.000 A 
ATOM     28  C   UNL     1       5.173   3.603  13.612  0.00  0.00    +0.000 A 
ATOM     29  C   UNL     1       6.025   3.775  12.481  0.00  0.00    +0.000 A 
ATOM     30  C   UNL     1       7.210   4.389  12.815  0.00  0.00    +0.000 A 
ATOM     31  S   UNL     1       7.279   4.786  14.473  0.00  0.00    +0.000 S 
ENDBRANCH  26  27
ENDBRANCH   4  26
TORSDOF 6
ENDMDL
MODEL 3
REMARK VINA RESULT:      -8.4      1.426      2.260
REMARK  Name = 
REMARK  7 active torsions:
REMARK  status: ('A' for Active; 'I' for Inactive)
REMARK    1  A    between atoms: C_1  and  C_2
REMARK    2  A    between atoms: C_7  and  C_8
REMARK    3  A    between atoms: C_8  and  S_9
REMARK    4  A    between atoms: S_9  and  C_10
REMARK    5  A    between atoms: C_13  and  C_14
REMARK    6  A    between atoms: C_14  and  C_15
REMARK    7  A    between atoms: N_20  and  C_21
REMARK                            x       y       z     vdW  Elec       q    Type
REMARK                         _______ _______ _______ _____ _____    ______ ____
ROOT
ATOM      1  C   UNL     1       3.846   6.769  17.534  0.00  0.00    +0.000 A 
ATOM      2  N   UNL     1       4.698   7.685  17.145  0.00  0.00    +0.000 NA
ATOM      3  N   UNL     1       5.796   7.036  16.632  0.00  0.00    +0.000 NA
ATOM      4  C   UNL     1       5.600   5.727  16.712  0.00  0.00    +0.000 A 
ATOM      5  N   UNL     1       4.396   5.512  17.362  0.00  0.00    +0.000 N 
ENDROOT
BRANCH   5   6
ATOM      6  C   UNL     1       3.857   4.293  17.949  0.00  0.00    +0.000 C 
ATOM      7  C   UNL     1       4.819   3.626  18.937  0.00  0.00    +0.000 C 
ATOM      8  C   UNL     1       4.081   2.552  19.733  0.00  0.00    +0.000 C 
ATOM      9  C   UNL     1       3.429   1.526  18.809  0.00  0.00    +0.000 C 
ATOM     10  C   UNL     1       2.514   2.175  17.767  0.00  0.00    +0.000 C 
ATOM     11  C   UNL     1       3.221   3.287  16.985  0.00  0.00    +0.000 C 
ENDBRANCH   5   6
BRANCH   1  12
ATOM     12  S   UNL     1       2.247   7.020  18.154  0.00  0.00    +0.000 S 
BRANCH  12  13
ATOM     13  C   UNL     1       2.460   7.193  19.944  0.00  0.00    +0.000 C 
BRANCH  13  20
ATOM     14  C   UNL     1      -2.519  13.266  20.962  0.00  0.00    +0.000 C 
ATOM     15  C   UNL     1      -1.557  12.176  20.596  0.00  0.00    +0.000 A 
ATOM     16  C   UNL     1      -1.277  11.930  19.201  0.00  0.00    +0.000 A 
ATOM     17  C   UNL     1      -0.453  10.944  18.830  0.00  0.00    +0.000 A 
ATOM     18  C   UNL     1       0.191  10.074  19.856  0.00  0.00    +0.000 A 
ATOM     19  N   UNL     1       0.976   9.107  19.461  0.00  0.00    +0.000 NA
ATOM     20  C   UNL     1       1.561   8.321  20.430  0.00  0.00    +0.000 A 
ATOM     21  C   UNL     1       1.356   8.512  21.740  0.00  0.00    +0.000 A 
ATOM     22  C   UNL     1       0.493   9.618  22.188  0.00  0.00    +0.000 A 
ATOM     23  O   UNL     1       0.348   9.799  23.397  0.00  0.00    +0.000 OA
ATOM     24  N   UNL     1      -0.091  10.371  21.182  0.00  0.00    +0.000 N 
ATOM     25  C   UNL     1      -0.957  11.406  21.521  0.00  0.00    +0.000 A 
ENDBRANCH  13  20
ENDBRANCH  12  13
ENDBRANCH   1  12
BRANCH   4  26
ATOM     26  C   UNL     1       6.577   4.705  16.204  0.00  0.00    +0.000 C 
BRANCH  26  27
ATOM     27  C   UNL     1       6.465   4.391  14.733  0.00  0.00    +0.000 A 
ATOM     28  C   UNL     1       5.512   3.655  14.054  0.00  0.00    +0.000 A 
ATOM     29  C   UNL     1       5.830   3.498  12.672  0.00  0.00    +0.000 A 
ATOM     30  C   UNL     1       6.972   4.183  12.323  0.00  0.00    +0.000 A 
ATOM     31  S   UNL     1       7.634   5.037  13.645  0.00  0.00    +0.000 S 
ENDBRANCH  26  27
ENDBRANCH   4  26
TORSDOF 6
ENDMDL
MODEL 4
REMARK VINA RESULT:      -8.4      1.946      2.650
REMARK  Name = 
REMARK  7 active torsions:
REMARK  status: ('A' for Active; 'I' for Inactive)
REMARK    1  A    between atoms: C_1  and  C_2
REMARK    2  A    between atoms: C_7  and  C_8
REMARK    3  A    between atoms: C_8  and  S_9
REMARK    4  A    between atoms: S_9  and  C_10
REMARK    5  A    between atoms: C_13  and  C_14
REMARK    6  A    between atoms: C_14  and  C_15
REMARK    7  A    between atoms: N_20  and  C_21
REMARK                            x       y       z     vdW  Elec       q    Type
REMARK                         _______ _______ _______ _____ _____    ______ ____
ROOT
ATOM      1  C   UNL     1       3.099   6.710  18.495  0.00  0.00    +0.000 A 
ATOM      2  N   UNL     1       3.895   7.388  17.705  0.00  0.00    +0.000 NA
ATOM      3  N   UNL     1       4.527   6.485  16.883  0.00  0.00    +0.000 NA
ATOM      4  C   UNL     1       4.106   5.264  17.180  0.00  0.00    +0.000 A 
ATOM      5  N   UNL     1       3.252   5.355  18.265  0.00  0.00    +0.000 N 
ENDROOT
BRANCH   5   6
ATOM      6  C   UNL     1       2.749   4.312  19.148  0.00  0.00    +0.000 C 
ATOM      7  C   UNL     1       1.309   3.896  18.828  0.00  0.00    +0.000 C 
ATOM      8  C   UNL     1       0.964   2.609  19.572  0.00  0.00    +0.000 C 
ATOM      9  C   UNL     1       1.180   2.763  21.076  0.00  0.00    +0.000 C 
ATOM     10  C   UNL     1       2.592   3.243  21.419  0.00  0.00    +0.000 C 
ATOM     11  C   UNL     1       2.977   4.512  20.649  0.00  0.00    +0.000 C 
ENDBRANCH   5   6
BRANCH   1  12
ATOM     12  S   UNL     1       1.979   7.349  19.654  0.00  0.00    +0.000 S 
BRANCH  12  13
ATOM     13  C   UNL     1       1.582   9.011  19.055  0.00  0.00    +0.000 C 
BRANCH  13  20
ATOM     14  C   UNL     1      -3.461  13.364  23.335  0.00  0.00    +0.000 C 
ATOM     15  C   UNL     1      -2.535  12.662  22.389  0.00  0.00    +0.000 A 
ATOM     16  C   UNL     1      -2.583  12.996  20.985  0.00  0.00    +0.000 A 
ATOM     17  C   UNL     1      -1.800  12.367  20.102  0.00  0.00    +0.000 A 
ATOM     18  C   UNL     1      -0.859  11.301  20.555  0.00  0.00    +0.000 A 
ATOM     19  N   UNL     1      -0.120  10.693  19.666  0.00  0.00    +0.000 NA
ATOM     20  C   UNL     1       0.742   9.716  20.111  0.00  0.00    +0.000 A 
ATOM     21  C   UNL     1       0.848   9.375  21.403  0.00  0.00    +0.000 A 
ATOM     22  C   UNL     1       0.035  10.078  22.409  0.00  0.00    +0.000 A 
ATOM     23  O   UNL     1       0.174   9.776  23.594  0.00  0.00    +0.000 OA
ATOM     24  N   UNL     1      -0.833  11.039  21.918  0.00  0.00    +0.000 N 
ATOM     25  C   UNL     1      -1.669  11.718  22.798  0.00  0.00    +0.000 A 
ENDBRANCH  13  20
ENDBRANCH  12  13
ENDBRANCH   1  12
BRANCH   4  26
ATOM     26  C   UNL     1       4.554   4.028  16.451  0.00  0.00    +0.000 C 
BRANCH  26  27
ATOM     27  C   UNL     1       5.500   4.272  15.303  0.00  0.00    +0.000 A 
ATOM     28  C   UNL     1       5.306   4.107  13.944  0.00  0.00    +0.000 A 
ATOM     29  C   UNL     1       6.496   4.340  13.192  0.00  0.00    +0.000 A 
ATOM     30  C   UNL     1       7.539   4.753  13.990  0.00  0.00    +0.000 A 
ATOM     31  S   UNL     1       7.075   4.890  15.628  0.00  0.00    +0.000 S 
ENDBRANCH  26  27
ENDBRANCH   4  26
TORSDOF 6
ENDMDL
MODEL 5
REMARK VINA RESULT:      -8.3      0.912      1.357
REMARK  Name = 
REMARK  7 active torsions:
REMARK  status: ('A' for Active; 'I' for Inactive)
REMARK    1  A    between atoms: C_1  and  C_2
REMARK    2  A    between atoms: C_7  and  C_8
REMARK    3  A    between atoms: C_8  and  S_9
REMARK    4  A    between atoms: S_9  and  C_10
REMARK    5  A    between atoms: C_13  and  C_14
REMARK    6  A    between atoms: C_14  and  C_15
REMARK    7  A    between atoms: N_20  and  C_21
REMARK                            x       y       z     vdW  Elec       q    Type
REMARK                         _______ _______ _______ _____ _____    ______ ____
ROOT
ATOM      1  C   UNL     1       3.826   6.599  17.266  0.00  0.00    +0.000 A 
ATOM      2  N   UNL     1       4.655   7.512  16.823  0.00  0.00    +0.000 NA
ATOM      3  N   UNL     1       5.755   6.859  16.317  0.00  0.00    +0.000 NA
ATOM      4  C   UNL     1       5.582   5.553  16.456  0.00  0.00    +0.000 A 
ATOM      5  N   UNL     1       4.395   5.345  17.136  0.00  0.00    +0.000 N 
ENDROOT
BRANCH   5   6
ATOM      6  C   UNL     1       3.887   4.144  17.783  0.00  0.00    +0.000 C 
ATOM      7  C   UNL     1       4.868   3.548  18.800  0.00  0.00    +0.000 C 
ATOM      8  C   UNL     1       4.159   2.497  19.649  0.00  0.00    +0.000 C 
ATOM      9  C   UNL     1       3.529   1.411  18.778  0.00  0.00    +0.000 C 
ATOM     10  C   UNL     1       2.596   1.986  17.710  0.00  0.00    +0.000 C 
ATOM     11  C   UNL     1       3.274   3.077  16.872  0.00  0.00    +0.000 C 
ENDBRANCH   5   6
BRANCH   1  12
ATOM     12  S   UNL     1       2.234   6.850  17.905  0.00  0.00    +0.000 S 
BRANCH  12  13
ATOM     13  C   UNL     1       2.489   7.284  19.644  0.00  0.00    +0.000 C 
BRANCH  13  20
ATOM     14  C   UNL     1      -2.239  12.764  22.855  0.00  0.00    +0.000 C 
ATOM     15  C   UNL     1      -1.391  11.619  22.390  0.00  0.00    +0.000 A 
ATOM     16  C   UNL     1      -1.099  10.545  23.310  0.00  0.00    +0.000 A 
ATOM     17  C   UNL     1      -0.317   9.523  22.947  0.00  0.00    +0.000 A 
ATOM     18  C   UNL     1       0.274   9.477  21.578  0.00  0.00    +0.000 A 
ATOM     19  N   UNL     1       1.049   8.474  21.259  0.00  0.00    +0.000 NA
ATOM     20  C   UNL     1       1.578   8.454  19.987  0.00  0.00    +0.000 A 
ATOM     21  C   UNL     1       1.328   9.409  19.082  0.00  0.00    +0.000 A 
ATOM     22  C   UNL     1       0.433  10.526  19.431  0.00  0.00    +0.000 A 
ATOM     23  O   UNL     1       0.187  11.373  18.573  0.00  0.00    +0.000 OA
ATOM     24  N   UNL     1      -0.061  10.519  20.725  0.00  0.00    +0.000 N 
ATOM     25  C   UNL     1      -0.878  11.563  21.149  0.00  0.00    +0.000 A 
ENDBRANCH  13  20
ENDBRANCH  12  13
ENDBRANCH   1  12
BRANCH   4  26
ATOM     26  C   UNL     1       6.568   4.526  15.973  0.00  0.00    +0.000 C 
BRANCH  26  27
ATOM     27  C   UNL     1       6.546   4.270  14.487  0.00  0.00    +0.000 A 
ATOM     28  C   UNL     1       5.683   3.494  13.734  0.00  0.00    +0.000 A 
ATOM     29  C   UNL     1       6.073   3.422  12.364  0.00  0.00    +0.000 A 
ATOM     30  C   UNL     1       7.172   4.207  12.097  0.00  0.00    +0.000 A 
ATOM     31  S   UNL     1       7.707   5.050  13.482  0.00  0.00    +0.000 S 
ENDBRANCH  26  27
ENDBRANCH   4  26
TORSDOF 6
ENDMDL
MODEL 6
REMARK VINA RESULT:      -8.3      0.867      1.353
REMARK  Name = 
REMARK  7 active torsions:
REMARK  status: ('A' for Active; 'I' for Inactive)
REMARK    1  A    between atoms: C_1  and  C_2
REMARK    2  A    between atoms: C_7  and  C_8
REMARK    3  A    between atoms: C_8  and  S_9
REMARK    4  A    between atoms: S_9  and  C_10
REMARK    5  A    between atoms: C_13  and  C_14
REMARK    6  A    between atoms: C_14  and  C_15
REMARK    7  A    between atoms: N_20  and  C_21
REMARK                            x       y       z     vdW  Elec       q    Type
REMARK                         _______ _______ _______ _____ _____    ______ ____
ROOT
ATOM      1  C   UNL     1       4.181   6.655  17.644  0.00  0.00    +0.000 A 
ATOM      2  N   UNL     1       5.133   7.284  17.001  0.00  0.00    +0.000 NA
ATOM      3  N   UNL     1       5.750   6.369  16.181  0.00  0.00    +0.000 NA
ATOM      4  C   UNL     1       5.165   5.190  16.333  0.00  0.00    +0.000 A 
ATOM      5  N   UNL     1       4.206   5.310  17.324  0.00  0.00    +0.000 N 
ENDROOT
BRANCH   5   6
ATOM      6  C   UNL     1       3.491   4.279  18.062  0.00  0.00    +0.000 C 
ATOM      7  C   UNL     1       4.425   3.315  18.805  0.00  0.00    +0.000 C 
ATOM      8  C   UNL     1       3.620   2.471  19.789  0.00  0.00    +0.000 C 
ATOM      9  C   UNL     1       2.490   1.722  19.085  0.00  0.00    +0.000 C 
ATOM     10  C   UNL     1       1.583   2.656  18.280  0.00  0.00    +0.000 C 
ATOM     11  C   UNL     1       2.373   3.546  17.315  0.00  0.00    +0.000 C 
ENDBRANCH   5   6
BRANCH   1  12
ATOM     12  S   UNL     1       3.013   7.345  18.725  0.00  0.00    +0.000 S 
BRANCH  12  13
ATOM     13  C   UNL     1       2.022   8.458  17.695  0.00  0.00    +0.000 C 
BRANCH  13  20
ATOM     14  C   UNL     1      -1.950  12.013  23.551  0.00  0.00    +0.000 C 
ATOM     15  C   UNL     1      -1.200  11.189  22.548  0.00  0.00    +0.000 A 
ATOM     16  C   UNL     1      -0.618   9.936  22.968  0.00  0.00    +0.000 A 
ATOM     17  C   UNL     1       0.090   9.188  22.115  0.00  0.00    +0.000 A 
ATOM     18  C   UNL     1       0.295   9.640  20.708  0.00  0.00    +0.000 A 
ATOM     19  N   UNL     1       1.006   8.895  19.904  0.00  0.00    +0.000 NA
ATOM     20  C   UNL     1       1.177   9.335  18.609  0.00  0.00    +0.000 A 
ATOM     21  C   UNL     1       0.646  10.477  18.154  0.00  0.00    +0.000 A 
ATOM     22  C   UNL     1      -0.179  11.304  19.052  0.00  0.00    +0.000 A 
ATOM     23  O   UNL     1      -0.688  12.331  18.604  0.00  0.00    +0.000 OA
ATOM     24  N   UNL     1      -0.308  10.837  20.350  0.00  0.00    +0.000 N 
ATOM     25  C   UNL     1      -1.034  11.583  21.273  0.00  0.00    +0.000 A 
ENDBRANCH  13  20
ENDBRANCH  12  13
ENDBRANCH   1  12
BRANCH   4  26
ATOM     26  C   UNL     1       5.552   3.961  15.559  0.00  0.00    +0.000 C 
BRANCH  26  27
ATOM     27  C   UNL     1       6.351   4.221  14.308  0.00  0.00    +0.000 A 
ATOM     28  C   UNL     1       7.420   5.074  14.099  0.00  0.00    +0.000 A 
ATOM     29  C   UNL     1       7.826   5.113  12.732  0.00  0.00    +0.000 A 
ATOM     30  C   UNL     1       7.110   4.231  11.955  0.00  0.00    +0.000 A 
ATOM     31  S   UNL     1       5.981   3.339  12.875  0.00  0.00    +0.000 S 
ENDBRANCH  26  27
ENDBRANCH   4  26
TORSDOF 6
ENDMDL
MODEL 7
REMARK VINA RESULT:      -8.2      2.539      3.838
REMARK  Name = 
REMARK  7 active torsions:
REMARK  status: ('A' for Active; 'I' for Inactive)
REMARK    1  A    between atoms: C_1  and  C_2
REMARK    2  A    between atoms: C_7  and  C_8
REMARK    3  A    between atoms: C_8  and  S_9
REMARK    4  A    between atoms: S_9  and  C_10
REMARK    5  A    between atoms: C_13  and  C_14
REMARK    6  A    between atoms: C_14  and  C_15
REMARK    7  A    between atoms: N_20  and  C_21
REMARK                            x       y       z     vdW  Elec       q    Type
REMARK                         _______ _______ _______ _____ _____    ______ ____
ROOT
ATOM      1  C   UNL     1       2.334   7.360  19.098  0.00  0.00    +0.000 A 
ATOM      2  N   UNL     1       3.127   8.035  18.302  0.00  0.00    +0.000 NA
ATOM      3  N   UNL     1       3.724   7.134  17.453  0.00  0.00    +0.000 NA
ATOM      4  C   UNL     1       3.285   5.916  17.739  0.00  0.00    +0.000 A 
ATOM      5  N   UNL     1       2.455   6.006  18.843  0.00  0.00    +0.000 N 
ENDROOT
BRANCH   5   6
ATOM      6  C   UNL     1       1.949   4.959  19.720  0.00  0.00    +0.000 C 
ATOM      7  C   UNL     1       2.987   4.478  20.740  0.00  0.00    +0.000 C 
ATOM      8  C   UNL     1       2.306   3.624  21.806  0.00  0.00    +0.000 C 
ATOM      9  C   UNL     1       1.551   2.452  21.181  0.00  0.00    +0.000 C 
ATOM     10  C   UNL     1       0.556   2.902  20.109  0.00  0.00    +0.000 C 
ATOM     11  C   UNL     1       1.208   3.798  19.050  0.00  0.00    +0.000 C 
ENDBRANCH   5   6
BRANCH   1  12
ATOM     12  S   UNL     1       1.252   8.002  20.290  0.00  0.00    +0.000 S 
BRANCH  12  13
ATOM     13  C   UNL     1       1.448   9.799  20.182  0.00  0.00    +0.000 C 
BRANCH  13  20
ATOM     14  C   UNL     1      -5.501  11.950  17.053  0.00  0.00    +0.000 C 
ATOM     15  C   UNL     1      -4.146  11.470  17.480  0.00  0.00    +0.000 A 
ATOM     16  C   UNL     1      -3.452  10.509  16.655  0.00  0.00    +0.000 A 
ATOM     17  C   UNL     1      -2.258  10.028  17.019  0.00  0.00    +0.000 A 
ATOM     18  C   UNL     1      -1.621  10.477  18.291  0.00  0.00    +0.000 A 
ATOM     19  N   UNL     1      -0.462   9.975  18.627  0.00  0.00    +0.000 NA
ATOM     20  C   UNL     1       0.105  10.409  19.805  0.00  0.00    +0.000 A 
ATOM     21  C   UNL     1      -0.479  11.314  20.602  0.00  0.00    +0.000 A 
ATOM     22  C   UNL     1      -1.772  11.900  20.211  0.00  0.00    +0.000 A 
ATOM     23  O   UNL     1      -2.274  12.756  20.938  0.00  0.00    +0.000 OA
ATOM     24  N   UNL     1      -2.318  11.421  19.031  0.00  0.00    +0.000 N 
ATOM     25  C   UNL     1      -3.559  11.891  18.614  0.00  0.00    +0.000 A 
ENDBRANCH  13  20
ENDBRANCH  12  13
ENDBRANCH   1  12
BRANCH   4  26
ATOM     26  C   UNL     1       3.692   4.684  16.981  0.00  0.00    +0.000 C 
BRANCH  26  27
ATOM     27  C   UNL     1       5.150   4.623  16.599  0.00  0.00    +0.000 A 
ATOM     28  C   UNL     1       6.273   4.525  17.400  0.00  0.00    +0.000 A 
ATOM     29  C   UNL     1       7.484   4.611  16.650  0.00  0.00    +0.000 A 
ATOM     30  C   UNL     1       7.249   4.691  15.296  0.00  0.00    +0.000 A 
ATOM     31  S   UNL     1       5.582   4.629  14.932  0.00  0.00    +0.000 S 
ENDBRANCH  26  27
ENDBRANCH   4  26
TORSDOF 6
ENDMDL
MODEL 8
REMARK VINA RESULT:      -8.2      2.184      2.873
REMARK  Name = 
REMARK  7 active torsions:
REMARK  status: ('A' for Active; 'I' for Inactive)
REMARK    1  A    between atoms: C_1  and  C_2
REMARK    2  A    between atoms: C_7  and  C_8
REMARK    3  A    between atoms: C_8  and  S_9
REMARK    4  A    between atoms: S_9  and  C_10
REMARK    5  A    between atoms: C_13  and  C_14
REMARK    6  A    between atoms: C_14  and  C_15
REMARK    7  A    between atoms: N_20  and  C_21
REMARK                            x       y       z     vdW  Elec       q    Type
REMARK                         _______ _______ _______ _____ _____    ______ ____
ROOT
ATOM      1  C   UNL     1       3.350   6.859  17.844  0.00  0.00    +0.000 A 
ATOM      2  N   UNL     1       4.290   7.467  17.164  0.00  0.00    +0.000 NA
ATOM      3  N   UNL     1       5.054   6.498  16.558  0.00  0.00    +0.000 NA
ATOM      4  C   UNL     1       4.569   5.306  16.875  0.00  0.00    +0.000 A 
ATOM      5  N   UNL     1       3.525   5.489  17.766  0.00  0.00    +0.000 N 
ENDROOT
BRANCH   5   6
ATOM      6  C   UNL     1       2.850   4.526  18.625  0.00  0.00    +0.000 C 
ATOM      7  C   UNL     1       1.506   4.056  18.059  0.00  0.00    +0.000 C 
ATOM      8  C   UNL     1       1.013   2.840  18.838  0.00  0.00    +0.000 C 
ATOM      9  C   UNL     1       0.916   3.139  20.333  0.00  0.00    +0.000 C 
ATOM     10  C   UNL     1       2.229   3.676  20.908  0.00  0.00    +0.000 C 
ATOM     11  C   UNL     1       2.766   4.872  20.114  0.00  0.00    +0.000 C 
ENDBRANCH   5   6
BRANCH   1  12
ATOM     12  S   UNL     1       2.040   7.593  18.709  0.00  0.00    +0.000 S 
BRANCH  12  13
ATOM     13  C   UNL     1       2.193   9.366  18.376  0.00  0.00    +0.000 C 
BRANCH  13  20
ATOM     14  C   UNL     1      -5.320  11.854  18.126  0.00  0.00    +0.000 C 
ATOM     15  C   UNL     1      -3.921  11.332  17.998  0.00  0.00    +0.000 A 
ATOM     16  C   UNL     1      -3.591  10.485  16.876  0.00  0.00    +0.000 A 
ATOM     17  C   UNL     1      -2.364   9.968  16.743  0.00  0.00    +0.000 A 
ATOM     18  C   UNL     1      -1.311  10.258  17.759  0.00  0.00    +0.000 A 
ATOM     19  N   UNL     1      -0.128   9.725  17.611  0.00  0.00    +0.000 NA
ATOM     20  C   UNL     1       0.827  10.012  18.562  0.00  0.00    +0.000 A 
ATOM     21  C   UNL     1       0.588  10.807  19.613  0.00  0.00    +0.000 A 
ATOM     22  C   UNL     1      -0.737  11.431  19.767  0.00  0.00    +0.000 A 
ATOM     23  O   UNL     1      -0.925  12.188  20.719  0.00  0.00    +0.000 OA
ATOM     24  N   UNL     1      -1.674  11.100  18.801  0.00  0.00    +0.000 N 
ATOM     25  C   UNL     1      -2.963  11.612  18.899  0.00  0.00    +0.000 A 
ENDBRANCH  13  20
ENDBRANCH  12  13
ENDBRANCH   1  12
BRANCH   4  26
ATOM     26  C   UNL     1       5.130   4.012  16.355  0.00  0.00    +0.000 C 
BRANCH  26  27
ATOM     27  C   UNL     1       5.667   4.070  14.947  0.00  0.00    +0.000 A 
ATOM     28  C   UNL     1       5.090   3.656  13.760  0.00  0.00    +0.000 A 
ATOM     29  C   UNL     1       5.979   3.782  12.651  0.00  0.00    +0.000 A 
ATOM     30  C   UNL     1       7.175   4.361  13.010  0.00  0.00    +0.000 A 
ATOM     31  S   UNL     1       7.211   4.780  14.665  0.00  0.00    +0.000 S 
ENDBRANCH  26  27
ENDBRANCH   4  26
TORSDOF 6
ENDMDL
MODEL 9
REMARK VINA RESULT:      -8.2      1.959      2.610
REMARK  Name = 
REMARK  7 active torsions:
REMARK  status: ('A' for Active; 'I' for Inactive)
REMARK    1  A    between atoms: C_1  and  C_2
REMARK    2  A    between atoms: C_7  and  C_8
REMARK    3  A    between atoms: C_8  and  S_9
REMARK    4  A    between atoms: S_9  and  C_10
REMARK    5  A    between atoms: C_13  and  C_14
REMARK    6  A    between atoms: C_14  and  C_15
REMARK    7  A    between atoms: N_20  and  C_21
REMARK                            x       y       z     vdW  Elec       q    Type
REMARK                         _______ _______ _______ _____ _____    ______ ____
ROOT
ATOM      1  C   UNL     1       2.817   7.312  18.357  0.00  0.00    +0.000 A 
ATOM      2  N   UNL     1       3.770   7.846  17.634  0.00  0.00    +0.000 NA
ATOM      3  N   UNL     1       4.452   6.818  17.027  0.00  0.00    +0.000 NA
ATOM      4  C   UNL     1       3.904   5.666  17.386  0.00  0.00    +0.000 A 
ATOM      5  N   UNL     1       2.904   5.933  18.305  0.00  0.00    +0.000 N 
ENDROOT
BRANCH   5   6
ATOM      6  C   UNL     1       2.199   5.033  19.206  0.00  0.00    +0.000 C 
ATOM      7  C   UNL     1       3.051   4.591  20.401  0.00  0.00    +0.000 C 
ATOM      8  C   UNL     1       2.166   3.916  21.446  0.00  0.00    +0.000 C 
ATOM      9  C   UNL     1       1.394   2.743  20.846  0.00  0.00    +0.000 C 
ATOM     10  C   UNL     1       0.587   3.145  19.609  0.00  0.00    +0.000 C 
ATOM     11  C   UNL     1       1.447   3.864  18.563  0.00  0.00    +0.000 C 
ENDBRANCH   5   6
BRANCH   1  12
ATOM     12  S   UNL     1       1.584   8.146  19.246  0.00  0.00    +0.000 S 
BRANCH  12  13
ATOM     13  C   UNL     1       1.176   9.594  18.237  0.00  0.00    +0.000 C 
BRANCH  13  20
ATOM     14  C   UNL     1      -1.261  14.512  23.945  0.00  0.00    +0.000 C 
ATOM     15  C   UNL     1      -0.928  13.464  22.925  0.00  0.00    +0.000 A 
ATOM     16  C   UNL     1      -1.432  12.123  23.110  0.00  0.00    +0.000 A 
ATOM     17  C   UNL     1      -1.130  11.150  22.244  0.00  0.00    +0.000 A 
ATOM     18  C   UNL     1      -0.258  11.434  21.067  0.00  0.00    +0.000 A 
ATOM     19  N   UNL     1       0.034  10.459  20.248  0.00  0.00    +0.000 NA
ATOM     20  C   UNL     1       0.837  10.750  19.168  0.00  0.00    +0.000 A 
ATOM     21  C   UNL     1       1.319  11.977  18.930  0.00  0.00    +0.000 A 
ATOM     22  C   UNL     1       0.968  13.083  19.837  0.00  0.00    +0.000 A 
ATOM     23  O   UNL     1       1.390  14.211  19.581  0.00  0.00    +0.000 OA
ATOM     24  N   UNL     1       0.176  12.745  20.922  0.00  0.00    +0.000 N 
ATOM     25  C   UNL     1      -0.164  13.723  21.850  0.00  0.00    +0.000 A 
ENDBRANCH  13  20
ENDBRANCH  12  13
ENDBRANCH   1  12
BRANCH   4  26
ATOM     26  C   UNL     1       4.366   4.329  16.878  0.00  0.00    +0.000 C 
BRANCH  26  27
ATOM     27  C   UNL     1       5.318   4.385  15.710  0.00  0.00    +0.000 A 
ATOM     28  C   UNL     1       5.082   4.173  14.363  0.00  0.00    +0.000 A 
ATOM     29  C   UNL     1       6.280   4.208  13.590  0.00  0.00    +0.000 A 
ATOM     30  C   UNL     1       7.380   4.522  14.355  0.00  0.00    +0.000 A 
ATOM     31  S   UNL     1       6.965   4.807  15.986  0.00  0.00    +0.000 S 
ENDBRANCH  26  27
ENDBRANCH   4  26
TORSDOF 6
ENDMDL
