MODEL 1
REMARK VINA RESULT:      -8.3      0.000      0.000
REMARK  Name = 
REMARK  9 active torsions:
REMARK  status: ('A' for Active; 'I' for Inactive)
REMARK    1  A    between atoms: C_1  and  O_2
REMARK    2  A    between atoms: O_2  and  C_3
REMARK    3  A    between atoms: C_3  and  C_5
REMARK    4  A    between atoms: N_7  and  C_8
REMARK    5  A    between atoms: C_13  and  O_14
REMARK    6  A    between atoms: O_14  and  C_15
REMARK    7  A    between atoms: N_19  and  C_20
REMARK    8  A    between atoms: C_25  and  O_26
REMARK    9  A    between atoms: O_26  and  C_27
REMARK                            x       y       z     vdW  Elec       q    Type
REMARK                         _______ _______ _______ _____ _____    ______ ____
ROOT
ATOM      1  C   UNL     1       7.157   6.264  17.257  0.00  0.00    +0.000 C 
ATOM      2  N   UNL     1       6.651   6.418  16.069  0.00  0.00    +0.000 NA
ATOM      3  N   UNL     1       6.076   5.235  15.724  0.00  0.00    +0.000 N 
ATOM      4  C   UNL     1       6.310   4.190  16.735  0.00  0.00    +0.000 C 
ATOM      5  C   UNL     1       5.008   3.721  17.354  0.00  0.00    +0.000 C 
ATOM      6  O   UNL     1       4.265   2.885  16.851  0.00  0.00    +0.000 OA
ATOM      7  N   UNL     1       4.838   4.378  18.545  0.00  0.00    +0.000 N 
ATOM      8  C   UNL     1       6.004   4.922  18.988  0.00  0.00    +0.000 C 
ATOM      9  O   UNL     1       6.278   5.349  20.105  0.00  0.00    +0.000 OA
ATOM     10  C   UNL     1       6.996   4.924  17.869  0.00  0.00    +0.000 C 
ENDROOT
BRANCH   3  11
ATOM     11  C   UNL     1       6.085   4.781  14.386  0.00  0.00    +0.000 A 
ATOM     12  C   UNL     1       4.964   4.001  14.005  0.00  0.00    +0.000 A 
ATOM     13  C   UNL     1       4.896   3.322  12.790  0.00  0.00    +0.000 A 
ATOM     14  C   UNL     1       5.941   3.436  11.887  0.00  0.00    +0.000 A 
ATOM     15  C   UNL     1       7.040   4.230  12.211  0.00  0.00    +0.000 A 
ATOM     16  C   UNL     1       7.134   4.898  13.449  0.00  0.00    +0.000 A 
BRANCH  16  17
ATOM     17  O   UNL     1       8.382   5.421  13.662  0.00  0.00    +0.000 OA
ATOM     18  C   UNL     1       8.982   6.135  12.590  0.00  0.00    +0.000 C 
ENDBRANCH  16  17
ENDBRANCH   3  11
BRANCH   7  19
ATOM     19  C   UNL     1       3.710   4.185  19.373  0.00  0.00    +0.000 A 
ATOM     20  C   UNL     1       3.608   2.947  20.035  0.00  0.00    +0.000 A 
ATOM     21  C   UNL     1       2.489   2.632  20.804  0.00  0.00    +0.000 A 
ATOM     22  C   UNL     1       1.449   3.545  20.905  0.00  0.00    +0.000 A 
ATOM     23  C   UNL     1       1.546   4.774  20.255  0.00  0.00    +0.000 A 
ATOM     24  C   UNL     1       2.669   5.119  19.482  0.00  0.00    +0.000 A 
BRANCH  24  25
ATOM     25  O   UNL     1       2.506   6.350  18.912  0.00  0.00    +0.000 OA
ATOM     26  C   UNL     1       2.159   7.487  19.679  0.00  0.00    +0.000 C 
ENDBRANCH  24  25
ENDBRANCH   7  19
BRANCH   1  27
ATOM     27  C   UNL     1       7.871   7.365  17.996  0.00  0.00    +0.000 C 
ATOM     28  O   UNL     1       8.554   7.163  18.986  0.00  0.00    +0.000 OA
BRANCH  27  30
ATOM     29  C   UNL     1       8.324   9.651  17.938  0.00  0.00    +0.000 C 
ATOM     30  O   UNL     1       7.582   8.545  17.417  0.00  0.00    +0.000 OA
ENDBRANCH  27  30
ENDBRANCH   1  27
TORSDOF 6
ENDMDL
MODEL 2
REMARK VINA RESULT:      -8.0      0.864      1.764
REMARK  Name = 
REMARK  9 active torsions:
REMARK  status: ('A' for Active; 'I' for Inactive)
REMARK    1  A    between atoms: C_1  and  O_2
REMARK    2  A    between atoms: O_2  and  C_3
REMARK    3  A    between atoms: C_3  and  C_5
REMARK    4  A    between atoms: N_7  and  C_8
REMARK    5  A    between atoms: C_13  and  O_14
REMARK    6  A    between atoms: O_14  and  C_15
REMARK    7  A    between atoms: N_19  and  C_20
REMARK    8  A    between atoms: C_25  and  O_26
REMARK    9  A    between atoms: O_26  and  C_27
REMARK                            x       y       z     vdW  Elec       q    Type
REMARK                         _______ _______ _______ _____ _____    ______ ____
ROOT
ATOM      1  C   UNL     1       7.178   6.288  17.238  0.00  0.00    +0.000 C 
ATOM      2  N   UNL     1       6.705   6.450  16.038  0.00  0.00    +0.000 NA
ATOM      3  N   UNL     1       6.135   5.271  15.671  0.00  0.00    +0.000 N 
ATOM      4  C   UNL     1       6.338   4.220  16.681  0.00  0.00    +0.000 C 
ATOM      5  C   UNL     1       5.018   3.752  17.262  0.00  0.00    +0.000 C 
ATOM      6  O   UNL     1       4.286   2.921  16.734  0.00  0.00    +0.000 OA
ATOM      7  N   UNL     1       4.819   4.403  18.452  0.00  0.00    +0.000 N 
ATOM      8  C   UNL     1       5.975   4.940  18.930  0.00  0.00    +0.000 C 
ATOM      9  O   UNL     1       6.220   5.359  20.056  0.00  0.00    +0.000 OA
ATOM     10  C   UNL     1       6.997   4.944  17.838  0.00  0.00    +0.000 C 
ENDROOT
BRANCH   3  11
ATOM     11  C   UNL     1       6.179   4.825  14.331  0.00  0.00    +0.000 A 
ATOM     12  C   UNL     1       5.105   3.985  13.938  0.00  0.00    +0.000 A 
ATOM     13  C   UNL     1       5.083   3.309  12.720  0.00  0.00    +0.000 A 
ATOM     14  C   UNL     1       6.127   3.485  11.825  0.00  0.00    +0.000 A 
ATOM     15  C   UNL     1       7.177   4.339  12.160  0.00  0.00    +0.000 A 
ATOM     16  C   UNL     1       7.226   5.005  13.401  0.00  0.00    +0.000 A 
BRANCH  16  17
ATOM     17  O   UNL     1       8.441   5.595  13.626  0.00  0.00    +0.000 OA
ATOM     18  C   UNL     1       9.104   6.170  12.508  0.00  0.00    +0.000 C 
ENDBRANCH  16  17
ENDBRANCH   3  11
BRANCH   7  19
ATOM     19  C   UNL     1       3.668   4.209  19.249  0.00  0.00    +0.000 A 
ATOM     20  C   UNL     1       2.841   5.328  19.460  0.00  0.00    +0.000 A 
ATOM     21  C   UNL     1       1.731   5.254  20.301  0.00  0.00    +0.000 A 
ATOM     22  C   UNL     1       1.447   4.065  20.956  0.00  0.00    +0.000 A 
ATOM     23  C   UNL     1       2.261   2.952  20.748  0.00  0.00    +0.000 A 
ATOM     24  C   UNL     1       3.379   2.998  19.896  0.00  0.00    +0.000 A 
BRANCH  24  25
ATOM     25  O   UNL     1       4.038   1.801  19.895  0.00  0.00    +0.000 OA
ATOM     26  C   UNL     1       5.124   1.547  20.765  0.00  0.00    +0.000 C 
ENDBRANCH  24  25
ENDBRANCH   7  19
BRANCH   1  27
ATOM     27  C   UNL     1       7.877   7.381  18.003  0.00  0.00    +0.000 C 
ATOM     28  O   UNL     1       8.536   7.171  19.007  0.00  0.00    +0.000 OA
BRANCH  27  30
ATOM     29  C   UNL     1       8.351   9.663  17.957  0.00  0.00    +0.000 C 
ATOM     30  O   UNL     1       7.602   8.566  17.426  0.00  0.00    +0.000 OA
ENDBRANCH  27  30
ENDBRANCH   1  27
TORSDOF 6
ENDMDL
MODEL 3
REMARK VINA RESULT:      -7.3      2.430      7.399
REMARK  Name = 
REMARK  9 active torsions:
REMARK  status: ('A' for Active; 'I' for Inactive)
REMARK    1  A    between atoms: C_1  and  O_2
REMARK    2  A    between atoms: O_2  and  C_3
REMARK    3  A    between atoms: C_3  and  C_5
REMARK    4  A    between atoms: N_7  and  C_8
REMARK    5  A    between atoms: C_13  and  O_14
REMARK    6  A    between atoms: O_14  and  C_15
REMARK    7  A    between atoms: N_19  and  C_20
REMARK    8  A    between atoms: C_25  and  O_26
REMARK    9  A    between atoms: O_26  and  C_27
REMARK                            x       y       z     vdW  Elec       q    Type
REMARK                         _______ _______ _______ _____ _____    ______ ____
ROOT
ATOM      1  C   UNL     1       2.405   4.829  19.957  0.00  0.00    +0.000 C 
ATOM      2  N   UNL     1       1.496   5.646  19.515  0.00  0.00    +0.000 NA
ATOM      3  N   UNL     1       2.142   6.751  19.055  0.00  0.00    +0.000 N 
ATOM      4  C   UNL     1       3.591   6.690  19.307  0.00  0.00    +0.000 C 
ATOM      5  C   UNL     1       4.376   6.679  18.009  0.00  0.00    +0.000 C 
ATOM      6  O   UNL     1       4.662   7.683  17.365  0.00  0.00    +0.000 OA
ATOM      7  N   UNL     1       4.701   5.379  17.716  0.00  0.00    +0.000 N 
ATOM      8  C   UNL     1       4.583   4.575  18.807  0.00  0.00    +0.000 C 
ATOM      9  O   UNL     1       5.021   3.442  18.978  0.00  0.00    +0.000 OA
ATOM     10  C   UNL     1       3.809   5.297  19.863  0.00  0.00    +0.000 C 
ENDROOT
BRANCH   3  11
ATOM     11  C   UNL     1       1.570   8.037  19.181  0.00  0.00    +0.000 A 
ATOM     12  C   UNL     1       1.518   8.796  17.985  0.00  0.00    +0.000 A 
ATOM     13  C   UNL     1       1.159  10.142  17.960  0.00  0.00    +0.000 A 
ATOM     14  C   UNL     1       0.796  10.771  19.141  0.00  0.00    +0.000 A 
ATOM     15  C   UNL     1       0.793  10.043  20.330  0.00  0.00    +0.000 A 
ATOM     16  C   UNL     1       1.182   8.689  20.372  0.00  0.00    +0.000 A 
BRANCH  16  17
ATOM     17  O   UNL     1       1.337   8.234  21.655  0.00  0.00    +0.000 OA
ATOM     18  C   UNL     1       1.061   9.146  22.708  0.00  0.00    +0.000 C 
ENDBRANCH  16  17
ENDBRANCH   3  11
BRANCH   7  19
ATOM     19  C   UNL     1       5.421   5.012  16.557  0.00  0.00    +0.000 A 
ATOM     20  C   UNL     1       4.671   4.575  15.450  0.00  0.00    +0.000 A 
ATOM     21  C   UNL     1       5.297   4.111  14.294  0.00  0.00    +0.000 A 
ATOM     22  C   UNL     1       6.682   4.062  14.239  0.00  0.00    +0.000 A 
ATOM     23  C   UNL     1       7.432   4.496  15.332  0.00  0.00    +0.000 A 
ATOM     24  C   UNL     1       6.823   4.978  16.505  0.00  0.00    +0.000 A 
BRANCH  24  25
ATOM     25  O   UNL     1       7.764   5.298  17.443  0.00  0.00    +0.000 OA
ATOM     26  C   UNL     1       7.815   6.578  18.042  0.00  0.00    +0.000 C 
ENDBRANCH  24  25
ENDBRANCH   7  19
BRANCH   1  27
ATOM     27  C   UNL     1       2.085   3.477  20.537  0.00  0.00    +0.000 C 
ATOM     28  O   UNL     1       2.698   2.997  21.476  0.00  0.00    +0.000 OA
BRANCH  27  30
ATOM     29  C   UNL     1       1.530   2.172  18.688  0.00  0.00    +0.000 C 
ATOM     30  O   UNL     1       1.089   2.917  19.826  0.00  0.00    +0.000 OA
ENDBRANCH  27  30
ENDBRANCH   1  27
TORSDOF 6
ENDMDL
MODEL 4
REMARK VINA RESULT:      -7.3      2.466      5.435
REMARK  Name = 
REMARK  9 active torsions:
REMARK  status: ('A' for Active; 'I' for Inactive)
REMARK    1  A    between atoms: C_1  and  O_2
REMARK    2  A    between atoms: O_2  and  C_3
REMARK    3  A    between atoms: C_3  and  C_5
REMARK    4  A    between atoms: N_7  and  C_8
REMARK    5  A    between atoms: C_13  and  O_14
REMARK    6  A    between atoms: O_14  and  C_15
REMARK    7  A    between atoms: N_19  and  C_20
REMARK    8  A    between atoms: C_25  and  O_26
REMARK    9  A    between atoms: O_26  and  C_27
REMARK                            x       y       z     vdW  Elec       q    Type
REMARK                         _______ _______ _______ _____ _____    ______ ____
ROOT
ATOM      1  C   UNL     1       3.108   3.817  19.617  0.00  0.00    +0.000 C 
ATOM      2  N   UNL     1       4.359   4.020  19.329  0.00  0.00    +0.000 NA
ATOM      3  N   UNL     1       4.401   5.030  18.419  0.00  0.00    +0.000 N 
ATOM      4  C   UNL     1       3.055   5.459  18.006  0.00  0.00    +0.000 C 
ATOM      5  C   UNL     1       2.792   6.900  18.395  0.00  0.00    +0.000 C 
ATOM      6  O   UNL     1       3.160   7.871  17.742  0.00  0.00    +0.000 OA
ATOM      7  N   UNL     1       2.080   6.905  19.567  0.00  0.00    +0.000 N 
ATOM      8  C   UNL     1       1.507   5.695  19.810  0.00  0.00    +0.000 C 
ATOM      9  O   UNL     1       0.618   5.412  20.606  0.00  0.00    +0.000 OA
ATOM     10  C   UNL     1       2.126   4.674  18.910  0.00  0.00    +0.000 C 
ENDROOT
BRANCH   3  11
ATOM     11  C   UNL     1       5.372   5.049  17.392  0.00  0.00    +0.000 A 
ATOM     12  C   UNL     1       4.856   5.089  16.072  0.00  0.00    +0.000 A 
ATOM     13  C   UNL     1       5.657   4.928  14.944  0.00  0.00    +0.000 A 
ATOM     14  C   UNL     1       7.024   4.761  15.098  0.00  0.00    +0.000 A 
ATOM     15  C   UNL     1       7.572   4.761  16.380  0.00  0.00    +0.000 A 
ATOM     16  C   UNL     1       6.768   4.893  17.531  0.00  0.00    +0.000 A 
BRANCH  16  17
ATOM     17  O   UNL     1       7.464   4.629  18.681  0.00  0.00    +0.000 OA
ATOM     18  C   UNL     1       7.871   5.740  19.467  0.00  0.00    +0.000 C 
ENDBRANCH  16  17
ENDBRANCH   3  11
BRANCH   7  19
ATOM     19  C   UNL     1       1.684   8.095  20.218  0.00  0.00    +0.000 A 
ATOM     20  C   UNL     1       1.867   8.152  21.613  0.00  0.00    +0.000 A 
ATOM     21  C   UNL     1       1.428   9.249  22.352  0.00  0.00    +0.000 A 
ATOM     22  C   UNL     1       0.783  10.294  21.708  0.00  0.00    +0.000 A 
ATOM     23  C   UNL     1       0.601  10.245  20.326  0.00  0.00    +0.000 A 
ATOM     24  C   UNL     1       1.045   9.155  19.557  0.00  0.00    +0.000 A 
BRANCH  24  25
ATOM     25  O   UNL     1       0.711   9.321  18.243  0.00  0.00    +0.000 OA
ATOM     26  C   UNL     1      -0.463  10.004  17.852  0.00  0.00    +0.000 C 
ENDBRANCH  24  25
ENDBRANCH   7  19
BRANCH   1  27
ATOM     27  C   UNL     1       2.649   2.780  20.607  0.00  0.00    +0.000 C 
ATOM     28  O   UNL     1       3.219   2.575  21.665  0.00  0.00    +0.000 OA
BRANCH  27  30
ATOM     29  C   UNL     1       1.790   1.605  18.786  0.00  0.00    +0.000 C 
ATOM     30  O   UNL     1       1.584   2.129  20.101  0.00  0.00    +0.000 OA
ENDBRANCH  27  30
ENDBRANCH   1  27
TORSDOF 6
ENDMDL
MODEL 5
REMARK VINA RESULT:      -7.2      2.337      7.436
REMARK  Name = 
REMARK  9 active torsions:
REMARK  status: ('A' for Active; 'I' for Inactive)
REMARK    1  A    between atoms: C_1  and  O_2
REMARK    2  A    between atoms: O_2  and  C_3
REMARK    3  A    between atoms: C_3  and  C_5
REMARK    4  A    between atoms: N_7  and  C_8
REMARK    5  A    between atoms: C_13  and  O_14
REMARK    6  A    between atoms: O_14  and  C_15
REMARK    7  A    between atoms: N_19  and  C_20
REMARK    8  A    between atoms: C_25  and  O_26
REMARK    9  A    between atoms: O_26  and  C_27
REMARK                            x       y       z     vdW  Elec       q    Type
REMARK                         _______ _______ _______ _____ _____    ______ ____
ROOT
ATOM      1  C   UNL     1       2.043   4.824  19.183  0.00  0.00    +0.000 C 
ATOM      2  N   UNL     1       1.303   5.819  18.791  0.00  0.00    +0.000 NA
ATOM      3  N   UNL     1       2.137   6.865  18.547  0.00  0.00    +0.000 N 
ATOM      4  C   UNL     1       3.532   6.556  18.904  0.00  0.00    +0.000 C 
ATOM      5  C   UNL     1       4.433   6.597  17.685  0.00  0.00    +0.000 C 
ATOM      6  O   UNL     1       4.918   7.622  17.217  0.00  0.00    +0.000 OA
ATOM      7  N   UNL     1       4.605   5.313  17.236  0.00  0.00    +0.000 N 
ATOM      8  C   UNL     1       4.270   4.399  18.188  0.00  0.00    +0.000 C 
ATOM      9  O   UNL     1       4.528   3.201  18.229  0.00  0.00    +0.000 OA
ATOM     10  C   UNL     1       3.500   5.086  19.270  0.00  0.00    +0.000 C 
ENDROOT
BRANCH   3  11
ATOM     11  C   UNL     1       1.737   8.195  18.811  0.00  0.00    +0.000 A 
ATOM     12  C   UNL     1       1.915   9.103  17.737  0.00  0.00    +0.000 A 
ATOM     13  C   UNL     1       1.749  10.480  17.878  0.00  0.00    +0.000 A 
ATOM     14  C   UNL     1       1.354  10.995  19.102  0.00  0.00    +0.000 A 
ATOM     15  C   UNL     1       1.127  10.126  20.168  0.00  0.00    +0.000 A 
ATOM     16  C   UNL     1       1.320   8.735  20.046  0.00  0.00    +0.000 A 
BRANCH  16  17
ATOM     17  O   UNL     1       1.278   8.098  21.258  0.00  0.00    +0.000 OA
ATOM     18  C   UNL     1       1.011   8.893  22.405  0.00  0.00    +0.000 C 
ENDBRANCH  16  17
ENDBRANCH   3  11
BRANCH   7  19
ATOM     19  C   UNL     1       5.381   4.996  16.098  0.00  0.00    +0.000 A 
ATOM     20  C   UNL     1       4.707   4.425  15.003  0.00  0.00    +0.000 A 
ATOM     21  C   UNL     1       5.402   4.000  13.871  0.00  0.00    +0.000 A 
ATOM     22  C   UNL     1       6.782   4.126  13.830  0.00  0.00    +0.000 A 
ATOM     23  C   UNL     1       7.456   4.694  14.910  0.00  0.00    +0.000 A 
ATOM     24  C   UNL     1       6.777   5.139  16.058  0.00  0.00    +0.000 A 
BRANCH  24  25
ATOM     25  O   UNL     1       7.657   5.612  16.990  0.00  0.00    +0.000 OA
ATOM     26  C   UNL     1       7.833   4.974  18.240  0.00  0.00    +0.000 C 
ENDBRANCH  24  25
ENDBRANCH   7  19
BRANCH   1  27
ATOM     27  C   UNL     1       1.484   3.471  19.535  0.00  0.00    +0.000 C 
ATOM     28  O   UNL     1       1.371   2.569  18.723  0.00  0.00    +0.000 OA
BRANCH  27  30
ATOM     29  C   UNL     1       1.913   2.647  21.673  0.00  0.00    +0.000 C 
ATOM     30  O   UNL     1       1.108   3.473  20.828  0.00  0.00    +0.000 OA
ENDBRANCH  27  30
ENDBRANCH   1  27
TORSDOF 6
ENDMDL
MODEL 6
REMARK VINA RESULT:      -7.2      2.189      7.340
REMARK  Name = 
REMARK  9 active torsions:
REMARK  status: ('A' for Active; 'I' for Inactive)
REMARK    1  A    between atoms: C_1  and  O_2
REMARK    2  A    between atoms: O_2  and  C_3
REMARK    3  A    between atoms: C_3  and  C_5
REMARK    4  A    between atoms: N_7  and  C_8
REMARK    5  A    between atoms: C_13  and  O_14
REMARK    6  A    between atoms: O_14  and  C_15
REMARK    7  A    between atoms: N_19  and  C_20
REMARK    8  A    between atoms: C_25  and  O_26
REMARK    9  A    between atoms: O_26  and  C_27
REMARK                            x       y       z     vdW  Elec       q    Type
REMARK                         _______ _______ _______ _____ _____    ______ ____
ROOT
ATOM      1  C   UNL     1       2.079   4.028  19.276  0.00  0.00    +0.000 C 
ATOM      2  N   UNL     1       1.361   5.105  19.154  0.00  0.00    +0.000 NA
ATOM      3  N   UNL     1       2.221   6.159  19.139  0.00  0.00    +0.000 N 
ATOM      4  C   UNL     1       3.613   5.740  19.369  0.00  0.00    +0.000 C 
ATOM      5  C   UNL     1       4.485   6.047  18.167  0.00  0.00    +0.000 C 
ATOM      6  O   UNL     1       4.990   7.142  17.940  0.00  0.00    +0.000 OA
ATOM      7  N   UNL     1       4.606   4.903  17.422  0.00  0.00    +0.000 N 
ATOM      8  C   UNL     1       4.266   3.798  18.140  0.00  0.00    +0.000 C 
ATOM      9  O   UNL     1       4.489   2.619  17.888  0.00  0.00    +0.000 OA
ATOM     10  C   UNL     1       3.544   4.226  19.378  0.00  0.00    +0.000 C 
ENDROOT
BRANCH   3  11
ATOM     11  C   UNL     1       1.868   7.397  19.722  0.00  0.00    +0.000 A 
ATOM     12  C   UNL     1       1.383   7.323  21.052  0.00  0.00    +0.000 A 
ATOM     13  C   UNL     1       0.821   8.414  21.712  0.00  0.00    +0.000 A 
ATOM     14  C   UNL     1       0.763   9.641  21.070  0.00  0.00    +0.000 A 
ATOM     15  C   UNL     1       1.271   9.761  19.778  0.00  0.00    +0.000 A 
ATOM     16  C   UNL     1       1.815   8.658  19.089  0.00  0.00    +0.000 A 
BRANCH  16  17
ATOM     17  O   UNL     1       2.034   8.931  17.765  0.00  0.00    +0.000 OA
ATOM     18  C   UNL     1       2.385  10.264  17.422  0.00  0.00    +0.000 C 
ENDBRANCH  16  17
ENDBRANCH   3  11
BRANCH   7  19
ATOM     19  C   UNL     1       5.344   4.846  16.218  0.00  0.00    +0.000 A 
ATOM     20  C   UNL     1       4.656   4.424  15.065  0.00  0.00    +0.000 A 
ATOM     21  C   UNL     1       5.320   4.255  13.851  0.00  0.00    +0.000 A 
ATOM     22  C   UNL     1       6.685   4.489  13.780  0.00  0.00    +0.000 A 
ATOM     23  C   UNL     1       7.373   4.911  14.918  0.00  0.00    +0.000 A 
ATOM     24  C   UNL     1       6.723   5.099  16.151  0.00  0.00    +0.000 A 
BRANCH  24  25
ATOM     25  O   UNL     1       7.615   5.468  17.117  0.00  0.00    +0.000 OA
ATOM     26  C   UNL     1       7.876   4.652  18.242  0.00  0.00    +0.000 C 
ENDBRANCH  24  25
ENDBRANCH   7  19
BRANCH   1  27
ATOM     27  C   UNL     1       1.487   2.644  19.316  0.00  0.00    +0.000 C 
ATOM     28  O   UNL     1       0.695   2.238  18.482  0.00  0.00    +0.000 OA
BRANCH  27  30
ATOM     29  C   UNL     1       1.447   2.545  21.644  0.00  0.00    +0.000 C 
ATOM     30  O   UNL     1       1.934   2.005  20.413  0.00  0.00    +0.000 OA
ENDBRANCH  27  30
ENDBRANCH   1  27
TORSDOF 6
ENDMDL
MODEL 7
REMARK VINA RESULT:      -7.2      2.361      7.373
REMARK  Name = 
REMARK  9 active torsions:
REMARK  status: ('A' for Active; 'I' for Inactive)
REMARK    1  A    between atoms: C_1  and  O_2
REMARK    2  A    between atoms: O_2  and  C_3
REMARK    3  A    between atoms: C_3  and  C_5
REMARK    4  A    between atoms: N_7  and  C_8
REMARK    5  A    between atoms: C_13  and  O_14
REMARK    6  A    between atoms: O_14  and  C_15
REMARK    7  A    between atoms: N_19  and  C_20
REMARK    8  A    between atoms: C_25  and  O_26
REMARK    9  A    between atoms: O_26  and  C_27
REMARK                            x       y       z     vdW  Elec       q    Type
REMARK                         _______ _______ _______ _____ _____    ______ ____
ROOT
ATOM      1  C   UNL     1       2.114   4.111  20.486  0.00  0.00    +0.000 C 
ATOM      2  N   UNL     1       1.262   5.040  20.170  0.00  0.00    +0.000 NA
ATOM      3  N   UNL     1       1.979   6.163  19.895  0.00  0.00    +0.000 N 
ATOM      4  C   UNL     1       3.417   5.976  20.147  0.00  0.00    +0.000 C 
ATOM      5  C   UNL     1       4.223   6.122  18.871  0.00  0.00    +0.000 C 
ATOM      6  O   UNL     1       4.578   7.196  18.396  0.00  0.00    +0.000 OA
ATOM      7  N   UNL     1       4.478   4.868  18.380  0.00  0.00    +0.000 N 
ATOM      8  C   UNL     1       4.294   3.910  19.329  0.00  0.00    +0.000 C 
ATOM      9  O   UNL     1       4.663   2.741  19.324  0.00  0.00    +0.000 OA
ATOM     10  C   UNL     1       3.544   4.503  20.479  0.00  0.00    +0.000 C 
ENDROOT
BRANCH   3  11
ATOM     11  C   UNL     1       1.480   7.445  20.218  0.00  0.00    +0.000 A 
ATOM     12  C   UNL     1       0.800   7.534  21.459  0.00  0.00    +0.000 A 
ATOM     13  C   UNL     1       0.089   8.667  21.850  0.00  0.00    +0.000 A 
ATOM     14  C   UNL     1       0.069   9.777  21.020  0.00  0.00    +0.000 A 
ATOM     15  C   UNL     1       0.763   9.740  19.812  0.00  0.00    +0.000 A 
ATOM     16  C   UNL     1       1.461   8.590  19.392  0.00  0.00    +0.000 A 
BRANCH  16  17
ATOM     17  O   UNL     1       1.866   8.678  18.087  0.00  0.00    +0.000 OA
ATOM     18  C   UNL     1       2.201   9.967  17.592  0.00  0.00    +0.000 C 
ENDBRANCH  16  17
ENDBRANCH   3  11
BRANCH   7  19
ATOM     19  C   UNL     1       5.197   4.644  17.184  0.00  0.00    +0.000 A 
ATOM     20  C   UNL     1       4.443   4.455  16.010  0.00  0.00    +0.000 A 
ATOM     21  C   UNL     1       5.061   4.143  14.800  0.00  0.00    +0.000 A 
ATOM     22  C   UNL     1       6.440   3.999  14.754  0.00  0.00    +0.000 A 
ATOM     23  C   UNL     1       7.193   4.188  15.912  0.00  0.00    +0.000 A 
ATOM     24  C   UNL     1       6.593   4.514  17.142  0.00  0.00    +0.000 A 
BRANCH  24  25
ATOM     25  O   UNL     1       7.532   4.602  18.130  0.00  0.00    +0.000 OA
ATOM     26  C   UNL     1       7.838   5.829  18.762  0.00  0.00    +0.000 C 
ENDBRANCH  24  25
ENDBRANCH   7  19
BRANCH   1  27
ATOM     27  C   UNL     1       1.706   2.706  20.843  0.00  0.00    +0.000 C 
ATOM     28  O   UNL     1       1.497   2.348  21.990  0.00  0.00    +0.000 OA
BRANCH  27  30
ATOM     29  C   UNL     1       0.763   2.435  18.729  0.00  0.00    +0.000 C 
ATOM     30  O   UNL     1       1.673   1.959  19.724  0.00  0.00    +0.000 OA
ENDBRANCH  27  30
ENDBRANCH   1  27
TORSDOF 6
ENDMDL
MODEL 8
REMARK VINA RESULT:      -7.0      8.415     10.899
REMARK  Name = 
REMARK  9 active torsions:
REMARK  status: ('A' for Active; 'I' for Inactive)
REMARK    1  A    between atoms: C_1  and  O_2
REMARK    2  A    between atoms: O_2  and  C_3
REMARK    3  A    between atoms: C_3  and  C_5
REMARK    4  A    between atoms: N_7  and  C_8
REMARK    5  A    between atoms: C_13  and  O_14
REMARK    6  A    between atoms: O_14  and  C_15
REMARK    7  A    between atoms: N_19  and  C_20
REMARK    8  A    between atoms: C_25  and  O_26
REMARK    9  A    between atoms: O_26  and  C_27
REMARK                            x       y       z     vdW  Elec       q    Type
REMARK                         _______ _______ _______ _____ _____    ______ ____
ROOT
ATOM      1  C   UNL     1       1.045  10.767  20.934  0.00  0.00    +0.000 C 
ATOM      2  N   UNL     1       1.344  11.944  21.398  0.00  0.00    +0.000 NA
ATOM      3  N   UNL     1       1.277  12.814  20.354  0.00  0.00    +0.000 N 
ATOM      4  C   UNL     1       1.004  12.128  19.080  0.00  0.00    +0.000 C 
ATOM      5  C   UNL     1      -0.320  12.570  18.488  0.00  0.00    +0.000 C 
ATOM      6  O   UNL     1      -0.475  13.589  17.823  0.00  0.00    +0.000 OA
ATOM      7  N   UNL     1      -1.270  11.638  18.819  0.00  0.00    +0.000 N 
ATOM      8  C   UNL     1      -0.705  10.464  19.210  0.00  0.00    +0.000 C 
ATOM      9  O   UNL     1      -1.228   9.361  19.329  0.00  0.00    +0.000 OA
ATOM     10  C   UNL     1       0.748  10.690  19.484  0.00  0.00    +0.000 C 
ENDROOT
BRANCH   3  11
ATOM     11  C   UNL     1       2.159  13.913  20.260  0.00  0.00    +0.000 A 
ATOM     12  C   UNL     1       3.019  13.904  19.132  0.00  0.00    +0.000 A 
ATOM     13  C   UNL     1       4.071  14.805  18.978  0.00  0.00    +0.000 A 
ATOM     14  C   UNL     1       4.275  15.783  19.939  0.00  0.00    +0.000 A 
ATOM     15  C   UNL     1       3.421  15.849  21.039  0.00  0.00    +0.000 A 
ATOM     16  C   UNL     1       2.372  14.925  21.221  0.00  0.00    +0.000 A 
BRANCH  16  17
ATOM     17  O   UNL     1       1.812  15.016  22.468  0.00  0.00    +0.000 OA
ATOM     18  C   UNL     1       0.527  15.614  22.565  0.00  0.00    +0.000 C 
ENDBRANCH  16  17
ENDBRANCH   3  11
BRANCH   7  19
ATOM     19  C   UNL     1      -2.625  11.756  18.437  0.00  0.00    +0.000 A 
ATOM     20  C   UNL     1      -3.525  12.227  19.412  0.00  0.00    +0.000 A 
ATOM     21  C   UNL     1      -4.894  12.295  19.155  0.00  0.00    +0.000 A 
ATOM     22  C   UNL     1      -5.380  11.875  17.925  0.00  0.00    +0.000 A 
ATOM     23  C   UNL     1      -4.494  11.411  16.954  0.00  0.00    +0.000 A 
ATOM     24  C   UNL     1      -3.108  11.343  17.186  0.00  0.00    +0.000 A 
BRANCH  24  25
ATOM     25  O   UNL     1      -2.461  10.815  16.105  0.00  0.00    +0.000 OA
ATOM     26  C   UNL     1      -3.163  10.349  14.970  0.00  0.00    +0.000 C 
ENDBRANCH  24  25
ENDBRANCH   7  19
BRANCH   1  27
ATOM     27  C   UNL     1       0.996   9.532  21.794  0.00  0.00    +0.000 C 
ATOM     28  O   UNL     1       1.219   8.414  21.362  0.00  0.00    +0.000 OA
BRANCH  27  30
ATOM     29  C   UNL     1      -0.787   9.984  23.226  0.00  0.00    +0.000 C 
ATOM     30  O   UNL     1       0.627   9.879  23.042  0.00  0.00    +0.000 OA
ENDBRANCH  27  30
ENDBRANCH   1  27
TORSDOF 6
ENDMDL
MODEL 9
REMARK VINA RESULT:      -6.9      8.449     11.444
REMARK  Name = 
REMARK  9 active torsions:
REMARK  status: ('A' for Active; 'I' for Inactive)
REMARK    1  A    between atoms: C_1  and  O_2
REMARK    2  A    between atoms: O_2  and  C_3
REMARK    3  A    between atoms: C_3  and  C_5
REMARK    4  A    between atoms: N_7  and  C_8
REMARK    5  A    between atoms: C_13  and  O_14
REMARK    6  A    between atoms: O_14  and  C_15
REMARK    7  A    between atoms: N_19  and  C_20
REMARK    8  A    between atoms: C_25  and  O_26
REMARK    9  A    between atoms: O_26  and  C_27
REMARK                            x       y       z     vdW  Elec       q    Type
REMARK                         _______ _______ _______ _____ _____    ______ ____
ROOT
ATOM      1  C   UNL     1       0.024  10.940  20.467  0.00  0.00    +0.000 C 
ATOM      2  N   UNL     1      -0.704  10.692  19.420  0.00  0.00    +0.000 NA
ATOM      3  N   UNL     1      -1.303  11.860  19.064  0.00  0.00    +0.000 N 
ATOM      4  C   UNL     1      -1.015  12.943  20.019  0.00  0.00    +0.000 C 
ATOM      5  C   UNL     1      -0.245  14.069  19.358  0.00  0.00    +0.000 C 
ATOM      6  O   UNL     1      -0.760  14.966  18.698  0.00  0.00    +0.000 OA
ATOM      7  N   UNL     1       1.086  13.904  19.643  0.00  0.00    +0.000 N 
ATOM      8  C   UNL     1       1.272  13.066  20.699  0.00  0.00    +0.000 C 
ATOM      9  O   UNL     1       2.281  12.891  21.373  0.00  0.00    +0.000 OA
ATOM     10  C   UNL     1      -0.004  12.334  20.970  0.00  0.00    +0.000 C 
ENDROOT
BRANCH   3  11
ATOM     11  C   UNL     1      -2.608  11.877  18.522  0.00  0.00    +0.000 A 
ATOM     12  C   UNL     1      -3.633  12.251  19.427  0.00  0.00    +0.000 A 
ATOM     13  C   UNL     1      -4.988  12.145  19.117  0.00  0.00    +0.000 A 
ATOM     14  C   UNL     1      -5.366  11.695  17.862  0.00  0.00    +0.000 A 
ATOM     15  C   UNL     1      -4.383  11.360  16.932  0.00  0.00    +0.000 A 
ATOM     16  C   UNL     1      -3.010  11.435  17.243  0.00  0.00    +0.000 A 
BRANCH  16  17
ATOM     17  O   UNL     1      -2.229  10.842  16.287  0.00  0.00    +0.000 OA
ATOM     18  C   UNL     1      -2.889  10.279  15.161  0.00  0.00    +0.000 C 
ENDBRANCH  16  17
ENDBRANCH   3  11
BRANCH   7  19
ATOM     19  C   UNL     1       2.087  14.778  19.162  0.00  0.00    +0.000 A 
ATOM     20  C   UNL     1       2.888  14.310  18.103  0.00  0.00    +0.000 A 
ATOM     21  C   UNL     1       3.956  15.066  17.620  0.00  0.00    +0.000 A 
ATOM     22  C   UNL     1       4.246  16.290  18.204  0.00  0.00    +0.000 A 
ATOM     23  C   UNL     1       3.454  16.760  19.251  0.00  0.00    +0.000 A 
ATOM     24  C   UNL     1       2.366  16.022  19.748  0.00  0.00    +0.000 A 
BRANCH  24  25
ATOM     25  O   UNL     1       1.780  16.669  20.799  0.00  0.00    +0.000 OA
ATOM     26  C   UNL     1       0.884  17.746  20.605  0.00  0.00    +0.000 C 
ENDBRANCH  24  25
ENDBRANCH   7  19
BRANCH   1  27
ATOM     27  C   UNL     1       0.861   9.893  21.155  0.00  0.00    +0.000 C 
ATOM     28  O   UNL     1       1.377   8.962  20.560  0.00  0.00    +0.000 OA
BRANCH  27  30
ATOM     29  C   UNL     1      -0.173   9.509  23.208  0.00  0.00    +0.000 C 
ATOM     30  O   UNL     1       0.880  10.144  22.477  0.00  0.00    +0.000 OA
ENDBRANCH  27  30
ENDBRANCH   1  27
TORSDOF 6
ENDMDL
