MODEL 1
REMARK VINA RESULT:      -7.8      0.000      0.000
REMARK  Name = 
REMARK  6 active torsions:
REMARK  status: ('A' for Active; 'I' for Inactive)
REMARK    1  A    between atoms: C_1  and  C_2
REMARK    2  A    between atoms: C_2  and  N_3
REMARK    3  A    between atoms: C_6  and  C_7
REMARK    4  A    between atoms: C_7  and  N_8
REMARK    5  A    between atoms: N_11  and  C_12
REMARK    6  A    between atoms: C_22  and  C_23
REMARK                            x       y       z     vdW  Elec       q    Type
REMARK                         _______ _______ _______ _____ _____    ______ ____
ROOT
ATOM      1  N   UNL     1       1.461   7.895  21.306  0.00  0.00    +0.000 N 
ATOM      2  C   UNL     1       1.940   7.075  20.315  0.00  0.00    +0.000 C 
ATOM      3  O   UNL     1       2.235   7.497  19.207  0.00  0.00    +0.000 OA
ATOM      4  N   UNL     1       2.051   5.765  20.703  0.00  0.00    +0.000 N 
ATOM      5  H   UNL     1       1.749   7.656  22.243  0.00  0.00    +0.000 HD
ATOM      6  H   UNL     1       1.397   5.485  21.420  0.00  0.00    +0.000 HD
ENDROOT
BRANCH   4   7
ATOM      7  C   UNL     1       2.534   4.719  19.783  0.00  0.00    +0.000 C 
ATOM      8  C   UNL     1       4.068   4.830  19.576  0.00  0.00    +0.000 C 
ATOM      9  C   UNL     1       4.580   3.722  18.642  0.00  0.00    +0.000 C 
ATOM     10  C   UNL     1       4.268   2.352  19.261  0.00  0.00    +0.000 C 
ATOM     11  C   UNL     1       2.750   2.199  19.452  0.00  0.00    +0.000 C 
ATOM     12  C   UNL     1       2.048   2.317  18.090  0.00  0.00    +0.000 C 
ATOM     13  C   UNL     1       2.350   3.686  17.464  0.00  0.00    +0.000 C 
ATOM     14  C   UNL     1       3.870   3.836  17.282  0.00  0.00    +0.000 C 
ATOM     15  C   UNL     1       1.833   4.792  18.399  0.00  0.00    +0.000 C 
ATOM     16  C   UNL     1       2.245   3.316  20.387  0.00  0.00    +0.000 C 
ENDBRANCH   4   7
BRANCH   1  17
ATOM     17  C   UNL     1       1.406   9.304  20.974  0.00  0.00    +0.000 C 
BRANCH  17  21
ATOM     18  N   UNL     1      -1.228  11.434  22.352  0.00  0.00    +0.000 N 
ATOM     19  N   UNL     1      -1.076  10.604  23.400  0.00  0.00    +0.000 NA
ATOM     20  C   UNL     1      -0.139   9.748  22.996  0.00  0.00    +0.000 A 
ATOM     21  C   UNL     1       0.304  10.002  21.677  0.00  0.00    +0.000 A 
ATOM     22  C   UNL     1      -0.443  11.100  21.275  0.00  0.00    +0.000 A 
ATOM     23  C   UNL     1      -0.431  11.861  20.002  0.00  0.00    +0.000 C 
BRANCH  18  25
ATOM     24  C   UNL     1      -3.208  12.325  23.529  0.00  0.00    +0.000 C 
ATOM     25  C   UNL     1      -2.138  12.560  22.477  0.00  0.00    +0.000 C 
ENDBRANCH  18  25
ENDBRANCH  17  21
ENDBRANCH   1  17
TORSDOF 4
ENDMDL
MODEL 2
REMARK VINA RESULT:      -7.7      0.143      1.599
REMARK  Name = 
REMARK  6 active torsions:
REMARK  status: ('A' for Active; 'I' for Inactive)
REMARK    1  A    between atoms: C_1  and  C_2
REMARK    2  A    between atoms: C_2  and  N_3
REMARK    3  A    between atoms: C_6  and  C_7
REMARK    4  A    between atoms: C_7  and  N_8
REMARK    5  A    between atoms: N_11  and  C_12
REMARK    6  A    between atoms: C_22  and  C_23
REMARK                            x       y       z     vdW  Elec       q    Type
REMARK                         _______ _______ _______ _____ _____    ______ ____
ROOT
ATOM      1  N   UNL     1       1.418   7.936  21.324  0.00  0.00    +0.000 N 
ATOM      2  C   UNL     1       1.904   7.115  20.337  0.00  0.00    +0.000 C 
ATOM      3  O   UNL     1       2.192   7.533  19.225  0.00  0.00    +0.000 OA
ATOM      4  N   UNL     1       2.032   5.810  20.735  0.00  0.00    +0.000 N 
ATOM      5  H   UNL     1       1.711   7.708  22.262  0.00  0.00    +0.000 HD
ATOM      6  H   UNL     1       1.383   5.527  21.456  0.00  0.00    +0.000 HD
ENDROOT
BRANCH   4   7
ATOM      7  C   UNL     1       2.526   4.763  19.821  0.00  0.00    +0.000 C 
ATOM      8  C   UNL     1       1.799   4.836  18.452  0.00  0.00    +0.000 C 
ATOM      9  C   UNL     1       2.334   3.767  17.486  0.00  0.00    +0.000 C 
ATOM     10  C   UNL     1       3.835   3.995  17.257  0.00  0.00    +0.000 C 
ATOM     11  C   UNL     1       4.588   3.899  18.594  0.00  0.00    +0.000 C 
ATOM     12  C   UNL     1       4.370   2.506  19.206  0.00  0.00    +0.000 C 
ATOM     13  C   UNL     1       2.872   2.269  19.443  0.00  0.00    +0.000 C 
ATOM     14  C   UNL     1       2.123   2.374  18.104  0.00  0.00    +0.000 C 
ATOM     15  C   UNL     1       2.341   3.339  20.413  0.00  0.00    +0.000 C 
ATOM     16  C   UNL     1       4.044   4.972  19.557  0.00  0.00    +0.000 C 
ENDBRANCH   4   7
BRANCH   1  17
ATOM     17  C   UNL     1       1.345   9.342  20.982  0.00  0.00    +0.000 C 
BRANCH  17  21
ATOM     18  N   UNL     1      -1.388  11.412  22.256  0.00  0.00    +0.000 N 
ATOM     19  N   UNL     1      -1.177  10.663  23.354  0.00  0.00    +0.000 NA
ATOM     20  C   UNL     1      -0.199   9.835  22.993  0.00  0.00    +0.000 A 
ATOM     21  C   UNL     1       0.214  10.024  21.654  0.00  0.00    +0.000 A 
ATOM     22  C   UNL     1      -0.598  11.049  21.192  0.00  0.00    +0.000 A 
ATOM     23  C   UNL     1      -0.644  11.724  19.871  0.00  0.00    +0.000 C 
BRANCH  18  25
ATOM     24  C   UNL     1      -3.202  12.437  23.583  0.00  0.00    +0.000 C 
ATOM     25  C   UNL     1      -2.358  12.491  22.321  0.00  0.00    +0.000 C 
ENDBRANCH  18  25
ENDBRANCH  17  21
ENDBRANCH   1  17
TORSDOF 4
ENDMDL
MODEL 3
REMARK VINA RESULT:      -7.6      0.401      1.652
REMARK  Name = 
REMARK  6 active torsions:
REMARK  status: ('A' for Active; 'I' for Inactive)
REMARK    1  A    between atoms: C_1  and  C_2
REMARK    2  A    between atoms: C_2  and  N_3
REMARK    3  A    between atoms: C_6  and  C_7
REMARK    4  A    between atoms: C_7  and  N_8
REMARK    5  A    between atoms: N_11  and  C_12
REMARK    6  A    between atoms: C_22  and  C_23
REMARK                            x       y       z     vdW  Elec       q    Type
REMARK                         _______ _______ _______ _____ _____    ______ ____
ROOT
ATOM      1  N   UNL     1       1.353   7.899  21.207  0.00  0.00    +0.000 N 
ATOM      2  C   UNL     1       1.913   7.082  20.255  0.00  0.00    +0.000 C 
ATOM      3  O   UNL     1       2.286   7.505  19.172  0.00  0.00    +0.000 OA
ATOM      4  N   UNL     1       2.006   5.774  20.654  0.00  0.00    +0.000 N 
ATOM      5  H   UNL     1       1.572   7.664  22.163  0.00  0.00    +0.000 HD
ATOM      6  H   UNL     1       1.303   5.489  21.321  0.00  0.00    +0.000 HD
ENDROOT
BRANCH   4   7
ATOM      7  C   UNL     1       2.567   4.732  19.775  0.00  0.00    +0.000 C 
ATOM      8  C   UNL     1       2.328   3.318  20.370  0.00  0.00    +0.000 C 
ATOM      9  C   UNL     1       2.884   2.227  19.441  0.00  0.00    +0.000 C 
ATOM     10  C   UNL     1       2.177   2.311  18.080  0.00  0.00    +0.000 C 
ATOM     11  C   UNL     1       2.420   3.693  17.449  0.00  0.00    +0.000 C 
ATOM     12  C   UNL     1       3.930   3.909  17.256  0.00  0.00    +0.000 C 
ATOM     13  C   UNL     1       4.646   3.831  18.612  0.00  0.00    +0.000 C 
ATOM     14  C   UNL     1       4.393   2.450  19.241  0.00  0.00    +0.000 C 
ATOM     15  C   UNL     1       4.090   4.926  19.539  0.00  0.00    +0.000 C 
ATOM     16  C   UNL     1       1.863   4.780  18.389  0.00  0.00    +0.000 C 
ENDBRANCH   4   7
BRANCH   1  17
ATOM     17  C   UNL     1       1.309   9.307  20.868  0.00  0.00    +0.000 C 
BRANCH  17  21
ATOM     18  N   UNL     1      -1.120  11.533  22.455  0.00  0.00    +0.000 N 
ATOM     19  N   UNL     1      -0.999  10.632  23.447  0.00  0.00    +0.000 NA
ATOM     20  C   UNL     1      -0.140   9.737  22.962  0.00  0.00    +0.000 A 
ATOM     21  C   UNL     1       0.282  10.038  21.647  0.00  0.00    +0.000 A 
ATOM     22  C   UNL     1      -0.393  11.209  21.334  0.00  0.00    +0.000 A 
ATOM     23  C   UNL     1      -0.363  12.043  20.109  0.00  0.00    +0.000 C 
BRANCH  18  25
ATOM     24  C   UNL     1      -1.158  13.854  23.300  0.00  0.00    +0.000 C 
ATOM     25  C   UNL     1      -1.941  12.711  22.676  0.00  0.00    +0.000 C 
ENDBRANCH  18  25
ENDBRANCH  17  21
ENDBRANCH   1  17
TORSDOF 4
ENDMDL
MODEL 4
REMARK VINA RESULT:      -7.5      1.406      2.060
REMARK  Name = 
REMARK  6 active torsions:
REMARK  status: ('A' for Active; 'I' for Inactive)
REMARK    1  A    between atoms: C_1  and  C_2
REMARK    2  A    between atoms: C_2  and  N_3
REMARK    3  A    between atoms: C_6  and  C_7
REMARK    4  A    between atoms: C_7  and  N_8
REMARK    5  A    between atoms: N_11  and  C_12
REMARK    6  A    between atoms: C_22  and  C_23
REMARK                            x       y       z     vdW  Elec       q    Type
REMARK                         _______ _______ _______ _____ _____    ______ ____
ROOT
ATOM      1  N   UNL     1       1.175   7.701  21.245  0.00  0.00    +0.000 N 
ATOM      2  C   UNL     1       1.894   6.910  20.383  0.00  0.00    +0.000 C 
ATOM      3  O   UNL     1       2.699   7.374  19.590  0.00  0.00    +0.000 OA
ATOM      4  N   UNL     1       1.614   5.574  20.517  0.00  0.00    +0.000 N 
ATOM      5  H   UNL     1       0.992   7.299  22.152  0.00  0.00    +0.000 HD
ATOM      6  H   UNL     1       0.681   5.373  20.845  0.00  0.00    +0.000 HD
ENDROOT
BRANCH   4   7
ATOM      7  C   UNL     1       2.270   4.555  19.676  0.00  0.00    +0.000 C 
ATOM      8  C   UNL     1       3.815   4.671  19.769  0.00  0.00    +0.000 C 
ATOM      9  C   UNL     1       4.501   3.590  18.919  0.00  0.00    +0.000 C 
ATOM     10  C   UNL     1       4.082   2.202  19.427  0.00  0.00    +0.000 C 
ATOM     11  C   UNL     1       2.557   2.045  19.320  0.00  0.00    +0.000 C 
ATOM     12  C   UNL     1       2.127   2.203  17.853  0.00  0.00    +0.000 C 
ATOM     13  C   UNL     1       2.537   3.589  17.336  0.00  0.00    +0.000 C 
ATOM     14  C   UNL     1       4.063   3.744  17.452  0.00  0.00    +0.000 C 
ATOM     15  C   UNL     1       1.846   4.669  18.187  0.00  0.00    +0.000 C 
ATOM     16  C   UNL     1       1.877   3.135  20.173  0.00  0.00    +0.000 C 
ENDBRANCH   4   7
BRANCH   1  17
ATOM     17  C   UNL     1       1.495   9.113  21.204  0.00  0.00    +0.000 C 
BRANCH  17  21
ATOM     18  N   UNL     1      -0.907  11.090  19.281  0.00  0.00    +0.000 N 
ATOM     19  N   UNL     1      -1.331  11.409  20.517  0.00  0.00    +0.000 NA
ATOM     20  C   UNL     1      -0.530  10.712  21.320  0.00  0.00    +0.000 A 
ATOM     21  C   UNL     1       0.402   9.919  20.611  0.00  0.00    +0.000 A 
ATOM     22  C   UNL     1       0.116  10.171  19.278  0.00  0.00    +0.000 A 
ATOM     23  C   UNL     1       0.754   9.661  18.040  0.00  0.00    +0.000 C 
BRANCH  18  25
ATOM     24  C   UNL     1      -2.734  10.984  17.622  0.00  0.00    +0.000 C 
ATOM     25  C   UNL     1      -1.523  11.742  18.139  0.00  0.00    +0.000 C 
ENDBRANCH  18  25
ENDBRANCH  17  21
ENDBRANCH   1  17
TORSDOF 4
ENDMDL
MODEL 5
REMARK VINA RESULT:      -7.5      7.043      9.836
REMARK  Name = 
REMARK  6 active torsions:
REMARK  status: ('A' for Active; 'I' for Inactive)
REMARK    1  A    between atoms: C_1  and  C_2
REMARK    2  A    between atoms: C_2  and  N_3
REMARK    3  A    between atoms: C_6  and  C_7
REMARK    4  A    between atoms: C_7  and  N_8
REMARK    5  A    between atoms: N_11  and  C_12
REMARK    6  A    between atoms: C_22  and  C_23
REMARK                            x       y       z     vdW  Elec       q    Type
REMARK                         _______ _______ _______ _____ _____    ______ ____
ROOT
ATOM      1  N   UNL     1       7.497   8.061  17.351  0.00  0.00    +0.000 N 
ATOM      2  C   UNL     1       8.356   8.826  18.101  0.00  0.00    +0.000 C 
ATOM      3  O   UNL     1       9.036   8.352  18.998  0.00  0.00    +0.000 OA
ATOM      4  N   UNL     1       8.365  10.146  17.732  0.00  0.00    +0.000 N 
ATOM      5  H   UNL     1       7.412   8.328  16.382  0.00  0.00    +0.000 HD
ATOM      6  H   UNL     1       7.498  10.474  17.331  0.00  0.00    +0.000 HD
ENDROOT
BRANCH   4   7
ATOM      7  C   UNL     1       9.210  11.140  18.420  0.00  0.00    +0.000 C 
ATOM      8  C   UNL     1      10.646  11.146  17.832  0.00  0.00    +0.000 C 
ATOM      9  C   UNL     1      11.522  12.203  18.525  0.00  0.00    +0.000 C 
ATOM     10  C   UNL     1      10.901  13.592  18.317  0.00  0.00    +0.000 C 
ATOM     11  C   UNL     1       9.486  13.627  18.916  0.00  0.00    +0.000 C 
ATOM     12  C   UNL     1       9.559  13.320  20.420  0.00  0.00    +0.000 C 
ATOM     13  C   UNL     1      10.174  11.930  20.640  0.00  0.00    +0.000 C 
ATOM     14  C   UNL     1      11.586  11.899  20.032  0.00  0.00    +0.000 C 
ATOM     15  C   UNL     1       9.294  10.875  19.948  0.00  0.00    +0.000 C 
ATOM     16  C   UNL     1       8.616  12.563  18.218  0.00  0.00    +0.000 C 
ENDBRANCH   4   7
BRANCH   1  17
ATOM     17  C   UNL     1       7.513   6.643  17.644  0.00  0.00    +0.000 C 
BRANCH  17  21
ATOM     18  N   UNL     1       4.014   5.740  18.211  0.00  0.00    +0.000 N 
ATOM     19  N   UNL     1       4.535   5.239  19.346  0.00  0.00    +0.000 NA
ATOM     20  C   UNL     1       5.839   5.490  19.238  0.00  0.00    +0.000 A 
ATOM     21  C   UNL     1       6.174   6.134  18.024  0.00  0.00    +0.000 A 
ATOM     22  C   UNL     1       4.961   6.264  17.364  0.00  0.00    +0.000 A 
ATOM     23  C   UNL     1       4.636   6.875  16.052  0.00  0.00    +0.000 C 
BRANCH  18  25
ATOM     24  C   UNL     1       2.048   4.291  17.840  0.00  0.00    +0.000 C 
ATOM     25  C   UNL     1       2.574   5.704  18.027  0.00  0.00    +0.000 C 
ENDBRANCH  18  25
ENDBRANCH  17  21
ENDBRANCH   1  17
TORSDOF 4
ENDMDL
MODEL 6
REMARK VINA RESULT:      -7.4      1.401      2.540
REMARK  Name = 
REMARK  6 active torsions:
REMARK  status: ('A' for Active; 'I' for Inactive)
REMARK    1  A    between atoms: C_1  and  C_2
REMARK    2  A    between atoms: C_2  and  N_3
REMARK    3  A    between atoms: C_6  and  C_7
REMARK    4  A    between atoms: C_7  and  N_8
REMARK    5  A    between atoms: N_11  and  C_12
REMARK    6  A    between atoms: C_22  and  C_23
REMARK                            x       y       z     vdW  Elec       q    Type
REMARK                         _______ _______ _______ _____ _____    ______ ____
ROOT
ATOM      1  N   UNL     1       1.163   7.673  21.245  0.00  0.00    +0.000 N 
ATOM      2  C   UNL     1       1.890   6.873  20.399  0.00  0.00    +0.000 C 
ATOM      3  O   UNL     1       2.718   7.327  19.624  0.00  0.00    +0.000 OA
ATOM      4  N   UNL     1       1.591   5.541  20.526  0.00  0.00    +0.000 N 
ATOM      5  H   UNL     1       0.954   7.274  22.148  0.00  0.00    +0.000 HD
ATOM      6  H   UNL     1       0.648   5.352  20.834  0.00  0.00    +0.000 HD
ENDROOT
BRANCH   4   7
ATOM      7  C   UNL     1       2.251   4.514  19.700  0.00  0.00    +0.000 C 
ATOM      8  C   UNL     1       1.872   4.679  18.204  0.00  0.00    +0.000 C 
ATOM      9  C   UNL     1       2.584   3.629  17.335  0.00  0.00    +0.000 C 
ATOM     10  C   UNL     1       4.103   3.799  17.476  0.00  0.00    +0.000 C 
ATOM     11  C   UNL     1       4.516   3.612  18.945  0.00  0.00    +0.000 C 
ATOM     12  C   UNL     1       4.113   2.205  19.415  0.00  0.00    +0.000 C 
ATOM     13  C   UNL     1       2.594   2.026  19.283  0.00  0.00    +0.000 C 
ATOM     14  C   UNL     1       2.187   2.221  17.812  0.00  0.00    +0.000 C 
ATOM     15  C   UNL     1       1.885   3.075  20.155  0.00  0.00    +0.000 C 
ATOM     16  C   UNL     1       3.795   4.667  19.809  0.00  0.00    +0.000 C 
ENDBRANCH   4   7
BRANCH   1  17
ATOM     17  C   UNL     1       1.501   9.081  21.211  0.00  0.00    +0.000 C 
BRANCH  17  21
ATOM     18  N   UNL     1      -0.860  11.104  19.286  0.00  0.00    +0.000 N 
ATOM     19  N   UNL     1      -1.301  11.407  20.521  0.00  0.00    +0.000 NA
ATOM     20  C   UNL     1      -0.515  10.691  21.325  0.00  0.00    +0.000 A 
ATOM     21  C   UNL     1       0.422   9.903  20.616  0.00  0.00    +0.000 A 
ATOM     22  C   UNL     1       0.157  10.180  19.283  0.00  0.00    +0.000 A 
ATOM     23  C   UNL     1       0.808   9.685  18.046  0.00  0.00    +0.000 C 
BRANCH  18  25
ATOM     24  C   UNL     1      -2.675  11.047  17.611  0.00  0.00    +0.000 C 
ATOM     25  C   UNL     1      -1.457  11.779  18.147  0.00  0.00    +0.000 C 
ENDBRANCH  18  25
ENDBRANCH  17  21
ENDBRANCH   1  17
TORSDOF 4
ENDMDL
MODEL 7
REMARK VINA RESULT:      -7.4      7.051      9.841
REMARK  Name = 
REMARK  6 active torsions:
REMARK  status: ('A' for Active; 'I' for Inactive)
REMARK    1  A    between atoms: C_1  and  C_2
REMARK    2  A    between atoms: C_2  and  N_3
REMARK    3  A    between atoms: C_6  and  C_7
REMARK    4  A    between atoms: C_7  and  N_8
REMARK    5  A    between atoms: N_11  and  C_12
REMARK    6  A    between atoms: C_22  and  C_23
REMARK                            x       y       z     vdW  Elec       q    Type
REMARK                         _______ _______ _______ _____ _____    ______ ____
ROOT
ATOM      1  N   UNL     1       7.479   8.100  17.395  0.00  0.00    +0.000 N 
ATOM      2  C   UNL     1       8.360   8.872  18.111  0.00  0.00    +0.000 C 
ATOM      3  O   UNL     1       9.083   8.402  18.977  0.00  0.00    +0.000 OA
ATOM      4  N   UNL     1       8.339  10.193  17.748  0.00  0.00    +0.000 N 
ATOM      5  H   UNL     1       7.351   8.369  16.431  0.00  0.00    +0.000 HD
ATOM      6  H   UNL     1       7.453  10.513  17.385  0.00  0.00    +0.000 HD
ENDROOT
BRANCH   4   7
ATOM      7  C   UNL     1       9.201  11.194  18.404  0.00  0.00    +0.000 C 
ATOM      8  C   UNL     1       8.607  12.620  18.255  0.00  0.00    +0.000 C 
ATOM      9  C   UNL     1       9.487  13.661  18.965  0.00  0.00    +0.000 C 
ATOM     10  C   UNL     1       9.571  13.320  20.460  0.00  0.00    +0.000 C 
ATOM     11  C   UNL     1      10.184  11.922  20.643  0.00  0.00    +0.000 C 
ATOM     12  C   UNL     1      11.594  11.897  20.033  0.00  0.00    +0.000 C 
ATOM     13  C   UNL     1      11.521  12.233  18.536  0.00  0.00    +0.000 C 
ATOM     14  C   UNL     1      10.901  13.629  18.359  0.00  0.00    +0.000 C 
ATOM     15  C   UNL     1      10.643  11.187  17.828  0.00  0.00    +0.000 C 
ATOM     16  C   UNL     1       9.297  10.885  19.926  0.00  0.00    +0.000 C 
ENDBRANCH   4   7
BRANCH   1  17
ATOM     17  C   UNL     1       7.523   6.681  17.681  0.00  0.00    +0.000 C 
BRANCH  17  21
ATOM     18  N   UNL     1       4.039   5.680  18.165  0.00  0.00    +0.000 N 
ATOM     19  N   UNL     1       4.540   5.224  19.328  0.00  0.00    +0.000 NA
ATOM     20  C   UNL     1       5.838   5.514  19.252  0.00  0.00    +0.000 A 
ATOM     21  C   UNL     1       6.190   6.138  18.033  0.00  0.00    +0.000 A 
ATOM     22  C   UNL     1       4.994   6.214  17.334  0.00  0.00    +0.000 A 
ATOM     23  C   UNL     1       4.691   6.782  15.998  0.00  0.00    +0.000 C 
BRANCH  18  25
ATOM     24  C   UNL     1       2.130   4.160  17.784  0.00  0.00    +0.000 C 
ATOM     25  C   UNL     1       2.606   5.594  17.939  0.00  0.00    +0.000 C 
ENDBRANCH  18  25
ENDBRANCH  17  21
ENDBRANCH   1  17
TORSDOF 4
ENDMDL
MODEL 8
REMARK VINA RESULT:      -7.4      1.396      2.515
REMARK  Name = 
REMARK  6 active torsions:
REMARK  status: ('A' for Active; 'I' for Inactive)
REMARK    1  A    between atoms: C_1  and  C_2
REMARK    2  A    between atoms: C_2  and  N_3
REMARK    3  A    between atoms: C_6  and  C_7
REMARK    4  A    between atoms: C_7  and  N_8
REMARK    5  A    between atoms: N_11  and  C_12
REMARK    6  A    between atoms: C_22  and  C_23
REMARK                            x       y       z     vdW  Elec       q    Type
REMARK                         _______ _______ _______ _____ _____    ______ ____
ROOT
ATOM      1  N   UNL     1       1.287   7.973  21.282  0.00  0.00    +0.000 N 
ATOM      2  C   UNL     1       1.931   7.139  20.401  0.00  0.00    +0.000 C 
ATOM      3  O   UNL     1       2.616   7.565  19.483  0.00  0.00    +0.000 OA
ATOM      4  N   UNL     1       1.725   5.810  20.667  0.00  0.00    +0.000 N 
ATOM      5  H   UNL     1       1.229   7.639  22.232  0.00  0.00    +0.000 HD
ATOM      6  H   UNL     1       0.846   5.606  21.121  0.00  0.00    +0.000 HD
ENDROOT
BRANCH   4   7
ATOM      7  C   UNL     1       2.318   4.749  19.832  0.00  0.00    +0.000 C 
ATOM      8  C   UNL     1       1.983   3.345  20.402  0.00  0.00    +0.000 C 
ATOM      9  C   UNL     1       2.573   2.236  19.516  0.00  0.00    +0.000 C 
ATOM     10  C   UNL     1       1.981   2.345  18.103  0.00  0.00    +0.000 C 
ATOM     11  C   UNL     1       2.322   3.717  17.499  0.00  0.00    +0.000 C 
ATOM     12  C   UNL     1       3.849   3.881  17.428  0.00  0.00    +0.000 C 
ATOM     13  C   UNL     1       4.451   3.777  18.837  0.00  0.00    +0.000 C 
ATOM     14  C   UNL     1       4.100   2.406  19.439  0.00  0.00    +0.000 C 
ATOM     15  C   UNL     1       3.861   4.891  19.719  0.00  0.00    +0.000 C 
ATOM     16  C   UNL     1       1.729   4.823  18.395  0.00  0.00    +0.000 C 
ENDBRANCH   4   7
BRANCH   1  17
ATOM     17  C   UNL     1       1.541   9.387  21.096  0.00  0.00    +0.000 C 
BRANCH  17  21
ATOM     18  N   UNL     1      -1.116  11.133  19.289  0.00  0.00    +0.000 N 
ATOM     19  N   UNL     1      -1.456  11.495  20.539  0.00  0.00    +0.000 NA
ATOM     20  C   UNL     1      -0.554  10.883  21.305  0.00  0.00    +0.000 A 
ATOM     21  C   UNL     1       0.360  10.103  20.559  0.00  0.00    +0.000 A 
ATOM     22  C   UNL     1      -0.047  10.270  19.244  0.00  0.00    +0.000 A 
ATOM     23  C   UNL     1       0.515   9.729  17.983  0.00  0.00    +0.000 C 
BRANCH  18  25
ATOM     24  C   UNL     1      -3.353  11.441  18.287  0.00  0.00    +0.000 C 
ATOM     25  C   UNL     1      -1.859  11.692  18.173  0.00  0.00    +0.000 C 
ENDBRANCH  18  25
ENDBRANCH  17  21
ENDBRANCH   1  17
TORSDOF 4
ENDMDL
MODEL 9
REMARK VINA RESULT:      -7.3      7.162     10.010
REMARK  Name = 
REMARK  6 active torsions:
REMARK  status: ('A' for Active; 'I' for Inactive)
REMARK    1  A    between atoms: C_1  and  C_2
REMARK    2  A    between atoms: C_2  and  N_3
REMARK    3  A    between atoms: C_6  and  C_7
REMARK    4  A    between atoms: C_7  and  N_8
REMARK    5  A    between atoms: N_11  and  C_12
REMARK    6  A    between atoms: C_22  and  C_23
REMARK                            x       y       z     vdW  Elec       q    Type
REMARK                         _______ _______ _______ _____ _____    ______ ____
ROOT
ATOM      1  N   UNL     1       7.332   8.439  17.257  0.00  0.00    +0.000 N 
ATOM      2  C   UNL     1       8.258   9.096  18.029  0.00  0.00    +0.000 C 
ATOM      3  O   UNL     1       8.909   8.525  18.891  0.00  0.00    +0.000 OA
ATOM      4  N   UNL     1       8.368  10.428  17.725  0.00  0.00    +0.000 N 
ATOM      5  H   UNL     1       7.258   8.760  16.303  0.00  0.00    +0.000 HD
ATOM      6  H   UNL     1       7.526  10.843  17.353  0.00  0.00    +0.000 HD
ENDROOT
BRANCH   4   7
ATOM      7  C   UNL     1       9.298  11.316  18.447  0.00  0.00    +0.000 C 
ATOM      8  C   UNL     1      10.705  11.292  17.793  0.00  0.00    +0.000 C 
ATOM      9  C   UNL     1      11.669  12.241  18.524  0.00  0.00    +0.000 C 
ATOM     10  C   UNL     1      11.121  13.674  18.455  0.00  0.00    +0.000 C 
ATOM     11  C   UNL     1       9.737  13.737  19.121  0.00  0.00    +0.000 C 
ATOM     12  C   UNL     1       9.857  13.306  20.592  0.00  0.00    +0.000 C 
ATOM     13  C   UNL     1      10.400  11.872  20.673  0.00  0.00    +0.000 C 
ATOM     14  C   UNL     1      11.781  11.814  19.998  0.00  0.00    +0.000 C 
ATOM     15  C   UNL     1       9.432  10.925  19.944  0.00  0.00    +0.000 C 
ATOM     16  C   UNL     1       8.778  12.780  18.384  0.00  0.00    +0.000 C 
ENDBRANCH   4   7
BRANCH   1  17
ATOM     17  C   UNL     1       7.238   7.011  17.480  0.00  0.00    +0.000 C 
BRANCH  17  21
ATOM     18  N   UNL     1       4.007   5.440  18.162  0.00  0.00    +0.000 N 
ATOM     19  N   UNL     1       3.575   6.454  17.390  0.00  0.00    +0.000 NA
ATOM     20  C   UNL     1       4.687   7.127  17.095  0.00  0.00    +0.000 A 
ATOM     21  C   UNL     1       5.840   6.568  17.693  0.00  0.00    +0.000 A 
ATOM     22  C   UNL     1       5.359   5.478  18.402  0.00  0.00    +0.000 A 
ATOM     23  C   UNL     1       6.072   4.470  19.225  0.00  0.00    +0.000 C 
BRANCH  18  25
ATOM     24  C   UNL     1       1.779   4.446  17.775  0.00  0.00    +0.000 C 
ATOM     25  C   UNL     1       3.048   4.446  18.611  0.00  0.00    +0.000 C 
ENDBRANCH  18  25
ENDBRANCH  17  21
ENDBRANCH   1  17
TORSDOF 4
ENDMDL
