MODEL 1
REMARK VINA RESULT:      -9.0      0.000      0.000
REMARK  Name = 
REMARK  4 active torsions:
REMARK  status: ('A' for Active; 'I' for Inactive)
REMARK    1  A    between atoms: C_2  and  C_20
REMARK    2  A    between atoms: N_3  and  C_4
REMARK    3  A    between atoms: C_4  and  C_5
REMARK    4  A    between atoms: C_5  and  C_6
REMARK                            x       y       z     vdW  Elec       q    Type
REMARK                         _______ _______ _______ _____ _____    ______ ____
ROOT
ATOM      1  C   UNL     1       3.263   5.586  18.639  0.00  0.00    +0.000 C 
ATOM      2  C   UNL     1       2.825   4.487  17.608  0.00  0.00    +0.000 C 
ATOM      3  C   UNL     1       1.421   3.911  17.838  0.00  0.00    +0.000 C 
ATOM      4  C   UNL     1       1.274   3.371  19.245  0.00  0.00    +0.000 C 
ATOM      5  F   UNL     1       2.172   2.372  19.443  0.00  0.00    +0.000 F 
ATOM      6  F   UNL     1       0.047   2.830  19.417  0.00  0.00    +0.000 F 
ATOM      7  C   UNL     1       1.495   4.466  20.263  0.00  0.00    +0.000 C 
ATOM      8  C   UNL     1       2.859   5.109  20.074  0.00  0.00    +0.000 C 
ENDROOT
BRANCH   1   9
ATOM      9  C   UNL     1       4.804   5.781  18.591  0.00  0.00    +0.000 A 
ATOM     10  C   UNL     1       5.440   6.561  17.608  0.00  0.00    +0.000 A 
ATOM     11  C   UNL     1       6.805   6.823  17.666  0.00  0.00    +0.000 A 
ATOM     12  C   UNL     1       7.527   6.255  18.691  0.00  0.00    +0.000 A 
ATOM     13  F   UNL     1       8.839   6.524  18.769  0.00  0.00    +0.000 F 
ATOM     14  N   UNL     1       6.990   5.446  19.625  0.00  0.00    +0.000 NA
ATOM     15  C   UNL     1       5.653   5.228  19.554  0.00  0.00    +0.000 A 
ENDBRANCH   1   9
BRANCH   1  16
ATOM     16  C   UNL     1       2.554   6.917  18.218  0.00  0.00    +0.000 C 
BRANCH  16  19
ATOM     17  O   UNL     1       0.974   9.192  17.897  0.00  0.00    +0.000 OA
ATOM     18  C   UNL     1       1.240   8.836  19.042  0.00  0.00    +0.000 C 
ATOM     19  N   UNL     1       2.053   7.747  19.299  0.00  0.00    +0.000 N 
ATOM     20  H   UNL     1       2.232   7.472  20.260  0.00  0.00    +0.000 HD
BRANCH  18  21
ATOM     21  C   UNL     1       0.678   9.567  20.212  0.00  0.00    +0.000 A 
ATOM     22  C   UNL     1       0.154   8.810  21.270  0.00  0.00    +0.000 A 
ATOM     23  F   UNL     1       0.084   7.473  21.203  0.00  0.00    +0.000 F 
ATOM     24  C   UNL     1      -0.341   9.415  22.429  0.00  0.00    +0.000 A 
ATOM     25  C   UNL     1      -0.325  10.800  22.556  0.00  0.00    +0.000 A 
ATOM     26  C   UNL     1       0.188  11.573  21.514  0.00  0.00    +0.000 A 
ATOM     27  C   UNL     1       0.690  10.965  20.353  0.00  0.00    +0.000 A 
ATOM     28 CL   UNL     1       1.341  12.047  19.167  0.00  0.00    +0.000 Cl
ENDBRANCH  18  21
ENDBRANCH  16  19
ENDBRANCH   1  16
TORSDOF 4
ENDMDL
MODEL 2
REMARK VINA RESULT:      -9.0      3.010      6.835
REMARK  Name = 
REMARK  4 active torsions:
REMARK  status: ('A' for Active; 'I' for Inactive)
REMARK    1  A    between atoms: C_2  and  C_20
REMARK    2  A    between atoms: N_3  and  C_4
REMARK    3  A    between atoms: C_4  and  C_5
REMARK    4  A    between atoms: C_5  and  C_6
REMARK                            x       y       z     vdW  Elec       q    Type
REMARK                         _______ _______ _______ _____ _____    ______ ____
ROOT
ATOM      1  C   UNL     1       2.398   5.702  19.766  0.00  0.00    +0.000 C 
ATOM      2  C   UNL     1       2.001   4.797  20.985  0.00  0.00    +0.000 C 
ATOM      3  C   UNL     1       2.180   3.290  20.752  0.00  0.00    +0.000 C 
ATOM      4  C   UNL     1       1.432   2.832  19.518  0.00  0.00    +0.000 C 
ATOM      5  F   UNL     1       0.106   3.075  19.677  0.00  0.00    +0.000 F 
ATOM      6  F   UNL     1       1.566   1.497  19.352  0.00  0.00    +0.000 F 
ATOM      7  C   UNL     1       1.939   3.552  18.289  0.00  0.00    +0.000 C 
ATOM      8  C   UNL     1       1.824   5.057  18.460  0.00  0.00    +0.000 C 
ENDROOT
BRANCH   1   9
ATOM      9  C   UNL     1       1.787   7.122  19.933  0.00  0.00    +0.000 A 
ATOM     10  C   UNL     1       1.151   7.539  21.116  0.00  0.00    +0.000 A 
ATOM     11  C   UNL     1       0.730   8.854  21.284  0.00  0.00    +0.000 A 
ATOM     12  C   UNL     1       0.912   9.728  20.235  0.00  0.00    +0.000 A 
ATOM     13  F   UNL     1       0.532  11.004  20.399  0.00  0.00    +0.000 F 
ATOM     14  N   UNL     1       1.454   9.374  19.055  0.00  0.00    +0.000 NA
ATOM     15  C   UNL     1       1.875   8.091  18.929  0.00  0.00    +0.000 A 
ENDBRANCH   1   9
BRANCH   1  16
ATOM     16  C   UNL     1       3.960   5.802  19.760  0.00  0.00    +0.000 C 
BRANCH  16  19
ATOM     17  O   UNL     1       5.961   4.012  19.006  0.00  0.00    +0.000 OA
ATOM     18  C   UNL     1       5.557   4.809  18.163  0.00  0.00    +0.000 C 
ATOM     19  N   UNL     1       4.600   5.763  18.457  0.00  0.00    +0.000 N 
ATOM     20  H   UNL     1       4.278   6.390  17.726  0.00  0.00    +0.000 HD
BRANCH  18  21
ATOM     21  C   UNL     1       6.083   4.766  16.769  0.00  0.00    +0.000 A 
ATOM     22  C   UNL     1       5.591   3.771  15.911  0.00  0.00    +0.000 A 
ATOM     23  F   UNL     1       4.737   2.834  16.347  0.00  0.00    +0.000 F 
ATOM     24  C   UNL     1       5.988   3.696  14.573  0.00  0.00    +0.000 A 
ATOM     25  C   UNL     1       6.893   4.619  14.060  0.00  0.00    +0.000 A 
ATOM     26  C   UNL     1       7.398   5.615  14.896  0.00  0.00    +0.000 A 
ATOM     27  C   UNL     1       6.995   5.693  16.237  0.00  0.00    +0.000 A 
ATOM     28 CL   UNL     1       7.664   7.012  17.141  0.00  0.00    +0.000 Cl
ENDBRANCH  18  21
ENDBRANCH  16  19
ENDBRANCH   1  16
TORSDOF 4
ENDMDL
MODEL 3
REMARK VINA RESULT:      -9.0      1.655      1.981
REMARK  Name = 
REMARK  4 active torsions:
REMARK  status: ('A' for Active; 'I' for Inactive)
REMARK    1  A    between atoms: C_2  and  C_20
REMARK    2  A    between atoms: N_3  and  C_4
REMARK    3  A    between atoms: C_4  and  C_5
REMARK    4  A    between atoms: C_5  and  C_6
REMARK                            x       y       z     vdW  Elec       q    Type
REMARK                         _______ _______ _______ _____ _____    ______ ____
ROOT
ATOM      1  C   UNL     1       3.540   4.779  18.997  0.00  0.00    +0.000 C 
ATOM      2  C   UNL     1       2.376   4.809  17.946  0.00  0.00    +0.000 C 
ATOM      3  C   UNL     1       1.225   3.834  18.231  0.00  0.00    +0.000 C 
ATOM      4  C   UNL     1       1.732   2.416  18.382  0.00  0.00    +0.000 C 
ATOM      5  F   UNL     1       2.334   2.025  17.229  0.00  0.00    +0.000 F 
ATOM      6  F   UNL     1       0.702   1.565  18.591  0.00  0.00    +0.000 F 
ATOM      7  C   UNL     1       2.713   2.319  19.528  0.00  0.00    +0.000 C 
ATOM      8  C   UNL     1       3.869   3.285  19.330  0.00  0.00    +0.000 C 
ENDROOT
BRANCH   1   9
ATOM      9  C   UNL     1       4.811   5.452  18.408  0.00  0.00    +0.000 A 
ATOM     10  C   UNL     1       4.786   6.215  17.226  0.00  0.00    +0.000 A 
ATOM     11  C   UNL     1       5.909   6.912  16.793  0.00  0.00    +0.000 A 
ATOM     12  C   UNL     1       7.065   6.794  17.532  0.00  0.00    +0.000 A 
ATOM     13  F   UNL     1       8.145   7.484  17.136  0.00  0.00    +0.000 F 
ATOM     14  N   UNL     1       7.172   6.028  18.635  0.00  0.00    +0.000 NA
ATOM     15  C   UNL     1       6.053   5.379  19.044  0.00  0.00    +0.000 A 
ENDBRANCH   1   9
BRANCH   1  16
ATOM     16  C   UNL     1       3.051   5.587  20.246  0.00  0.00    +0.000 C 
BRANCH  16  19
ATOM     17  O   UNL     1       0.679   6.743  21.148  0.00  0.00    +0.000 OA
ATOM     18  C   UNL     1       1.464   7.455  20.527  0.00  0.00    +0.000 C 
ATOM     19  N   UNL     1       2.644   6.959  20.002  0.00  0.00    +0.000 N 
ATOM     20  H   UNL     1       3.275   7.585  19.513  0.00  0.00    +0.000 HD
BRANCH  18  21
ATOM     21  C   UNL     1       1.175   8.904  20.325  0.00  0.00    +0.000 A 
ATOM     22  C   UNL     1       0.890   9.680  21.457  0.00  0.00    +0.000 A 
ATOM     23  F   UNL     1       0.800   9.130  22.677  0.00  0.00    +0.000 F 
ATOM     24  C   UNL     1       0.664  11.056  21.364  0.00  0.00    +0.000 A 
ATOM     25  C   UNL     1       0.715  11.690  20.126  0.00  0.00    +0.000 A 
ATOM     26  C   UNL     1       0.993  10.936  18.986  0.00  0.00    +0.000 A 
ATOM     27  C   UNL     1       1.225   9.556  19.082  0.00  0.00    +0.000 A 
ATOM     28 CL   UNL     1       1.609   8.759  17.592  0.00  0.00    +0.000 Cl
ENDBRANCH  18  21
ENDBRANCH  16  19
ENDBRANCH   1  16
TORSDOF 4
ENDMDL
MODEL 4
REMARK VINA RESULT:      -9.0      1.840      2.225
REMARK  Name = 
REMARK  4 active torsions:
REMARK  status: ('A' for Active; 'I' for Inactive)
REMARK    1  A    between atoms: C_2  and  C_20
REMARK    2  A    between atoms: N_3  and  C_4
REMARK    3  A    between atoms: C_4  and  C_5
REMARK    4  A    between atoms: C_5  and  C_6
REMARK                            x       y       z     vdW  Elec       q    Type
REMARK                         _______ _______ _______ _____ _____    ______ ____
ROOT
ATOM      1  C   UNL     1       3.514   4.779  18.999  0.00  0.00    +0.000 C 
ATOM      2  C   UNL     1       2.353   4.804  17.943  0.00  0.00    +0.000 C 
ATOM      3  C   UNL     1       1.201   3.830  18.230  0.00  0.00    +0.000 C 
ATOM      4  C   UNL     1       1.708   2.412  18.389  0.00  0.00    +0.000 C 
ATOM      5  F   UNL     1       2.313   2.017  17.240  0.00  0.00    +0.000 F 
ATOM      6  F   UNL     1       0.677   1.563  18.598  0.00  0.00    +0.000 F 
ATOM      7  C   UNL     1       2.685   2.321  19.538  0.00  0.00    +0.000 C 
ATOM      8  C   UNL     1       3.842   3.286  19.340  0.00  0.00    +0.000 C 
ENDROOT
BRANCH   1   9
ATOM      9  C   UNL     1       4.787   5.449  18.411  0.00  0.00    +0.000 A 
ATOM     10  C   UNL     1       4.765   6.209  17.227  0.00  0.00    +0.000 A 
ATOM     11  C   UNL     1       5.890   6.904  16.795  0.00  0.00    +0.000 A 
ATOM     12  C   UNL     1       7.045   6.786  17.537  0.00  0.00    +0.000 A 
ATOM     13  F   UNL     1       8.126   7.474  17.142  0.00  0.00    +0.000 F 
ATOM     14  N   UNL     1       7.148   6.022  18.642  0.00  0.00    +0.000 NA
ATOM     15  C   UNL     1       6.028   5.375  19.050  0.00  0.00    +0.000 A 
ENDBRANCH   1   9
BRANCH   1  16
ATOM     16  C   UNL     1       3.020   5.593  20.242  0.00  0.00    +0.000 C 
BRANCH  16  19
ATOM     17  O   UNL     1       0.636   6.778  21.070  0.00  0.00    +0.000 OA
ATOM     18  C   UNL     1       1.454   7.483  20.483  0.00  0.00    +0.000 C 
ATOM     19  N   UNL     1       2.643   6.973  19.996  0.00  0.00    +0.000 N 
ATOM     20  H   UNL     1       3.301   7.593  19.534  0.00  0.00    +0.000 HD
BRANCH  18  21
ATOM     21  C   UNL     1       1.194   8.937  20.283  0.00  0.00    +0.000 A 
ATOM     22  C   UNL     1       1.234   9.438  18.974  0.00  0.00    +0.000 A 
ATOM     23  F   UNL     1       1.575   8.656  17.939  0.00  0.00    +0.000 F 
ATOM     24  C   UNL     1       0.947  10.776  18.692  0.00  0.00    +0.000 A 
ATOM     25  C   UNL     1       0.612  11.651  19.721  0.00  0.00    +0.000 A 
ATOM     26  C   UNL     1       0.570  11.175  21.032  0.00  0.00    +0.000 A 
ATOM     27  C   UNL     1       0.853   9.830  21.313  0.00  0.00    +0.000 A 
ATOM     28 CL   UNL     1       0.711   9.371  22.977  0.00  0.00    +0.000 Cl
ENDBRANCH  18  21
ENDBRANCH  16  19
ENDBRANCH   1  16
TORSDOF 4
ENDMDL
MODEL 5
REMARK VINA RESULT:      -8.8      1.488      1.805
REMARK  Name = 
REMARK  4 active torsions:
REMARK  status: ('A' for Active; 'I' for Inactive)
REMARK    1  A    between atoms: C_2  and  C_20
REMARK    2  A    between atoms: N_3  and  C_4
REMARK    3  A    between atoms: C_4  and  C_5
REMARK    4  A    between atoms: C_5  and  C_6
REMARK                            x       y       z     vdW  Elec       q    Type
REMARK                         _______ _______ _______ _____ _____    ______ ____
ROOT
ATOM      1  C   UNL     1       3.198   5.460  18.598  0.00  0.00    +0.000 C 
ATOM      2  C   UNL     1       2.818   4.219  17.717  0.00  0.00    +0.000 C 
ATOM      3  C   UNL     1       1.425   3.636  17.993  0.00  0.00    +0.000 C 
ATOM      4  C   UNL     1       1.257   3.287  19.457  0.00  0.00    +0.000 C 
ATOM      5  F   UNL     1       2.177   2.353  19.808  0.00  0.00    +0.000 F 
ATOM      6  F   UNL     1       0.041   2.737  19.674  0.00  0.00    +0.000 F 
ATOM      7  C   UNL     1       1.421   4.516  20.321  0.00  0.00    +0.000 C 
ATOM      8  C   UNL     1       2.771   5.170  20.076  0.00  0.00    +0.000 C 
ENDROOT
BRANCH   1   9
ATOM      9  C   UNL     1       4.735   5.694  18.558  0.00  0.00    +0.000 A 
ATOM     10  C   UNL     1       5.357   6.478  17.569  0.00  0.00    +0.000 A 
ATOM     11  C   UNL     1       6.714   6.776  17.632  0.00  0.00    +0.000 A 
ATOM     12  C   UNL     1       7.443   6.240  18.670  0.00  0.00    +0.000 A 
ATOM     13  F   UNL     1       8.747   6.545  18.753  0.00  0.00    +0.000 F 
ATOM     14  N   UNL     1       6.920   5.431  19.611  0.00  0.00    +0.000 NA
ATOM     15  C   UNL     1       5.590   5.176  19.534  0.00  0.00    +0.000 A 
ENDBRANCH   1   9
BRANCH   1  16
ATOM     16  C   UNL     1       2.464   6.699  17.985  0.00  0.00    +0.000 C 
BRANCH  16  19
ATOM     17  O   UNL     1       0.929   8.947  17.377  0.00  0.00    +0.000 OA
ATOM     18  C   UNL     1       1.392   8.858  18.511  0.00  0.00    +0.000 C 
ATOM     19  N   UNL     1       2.202   7.803  18.890  0.00  0.00    +0.000 N 
ATOM     20  H   UNL     1       2.548   7.756  19.844  0.00  0.00    +0.000 HD
BRANCH  18  21
ATOM     21  C   UNL     1       1.083   9.893  19.538  0.00  0.00    +0.000 A 
ATOM     22  C   UNL     1       1.407  11.226  19.244  0.00  0.00    +0.000 A 
ATOM     23  F   UNL     1       2.048  11.556  18.114  0.00  0.00    +0.000 F 
ATOM     24  C   UNL     1       1.099  12.266  20.126  0.00  0.00    +0.000 A 
ATOM     25  C   UNL     1       0.459  11.994  21.331  0.00  0.00    +0.000 A 
ATOM     26  C   UNL     1       0.131  10.675  21.645  0.00  0.00    +0.000 A 
ATOM     27  C   UNL     1       0.435   9.633  20.757  0.00  0.00    +0.000 A 
ATOM     28 CL   UNL     1      -0.078   8.055  21.255  0.00  0.00    +0.000 Cl
ENDBRANCH  18  21
ENDBRANCH  16  19
ENDBRANCH   1  16
TORSDOF 4
ENDMDL
MODEL 6
REMARK VINA RESULT:      -8.8      2.462      2.994
REMARK  Name = 
REMARK  4 active torsions:
REMARK  status: ('A' for Active; 'I' for Inactive)
REMARK    1  A    between atoms: C_2  and  C_20
REMARK    2  A    between atoms: N_3  and  C_4
REMARK    3  A    between atoms: C_4  and  C_5
REMARK    4  A    between atoms: C_5  and  C_6
REMARK                            x       y       z     vdW  Elec       q    Type
REMARK                         _______ _______ _______ _____ _____    ______ ____
ROOT
ATOM      1  C   UNL     1       4.023   4.263  18.145  0.00  0.00    +0.000 C 
ATOM      2  C   UNL     1       2.597   4.423  17.511  0.00  0.00    +0.000 C 
ATOM      3  C   UNL     1       1.447   3.867  18.364  0.00  0.00    +0.000 C 
ATOM      4  C   UNL     1       1.681   2.414  18.719  0.00  0.00    +0.000 C 
ATOM      5  F   UNL     1       1.753   1.675  17.582  0.00  0.00    +0.000 F 
ATOM      6  F   UNL     1       0.641   1.929  19.434  0.00  0.00    +0.000 F 
ATOM      7  C   UNL     1       2.960   2.257  19.511  0.00  0.00    +0.000 C 
ATOM      8  C   UNL     1       4.143   2.820  18.740  0.00  0.00    +0.000 C 
ENDROOT
BRANCH   1   9
ATOM      9  C   UNL     1       5.117   4.446  17.055  0.00  0.00    +0.000 A 
ATOM     10  C   UNL     1       4.849   4.303  15.681  0.00  0.00    +0.000 A 
ATOM     11  C   UNL     1       5.813   4.600  14.723  0.00  0.00    +0.000 A 
ATOM     12  C   UNL     1       7.058   4.994  15.163  0.00  0.00    +0.000 A 
ATOM     13  F   UNL     1       7.984   5.308  14.245  0.00  0.00    +0.000 F 
ATOM     14  N   UNL     1       7.396   5.088  16.463  0.00  0.00    +0.000 NA
ATOM     15  C   UNL     1       6.428   4.812  17.372  0.00  0.00    +0.000 A 
ENDBRANCH   1   9
BRANCH   1  16
ATOM     16  C   UNL     1       4.171   5.382  19.229  0.00  0.00    +0.000 C 
BRANCH  16  19
ATOM     17  O   UNL     1       1.941   6.296  20.630  0.00  0.00    +0.000 OA
ATOM     18  C   UNL     1       2.395   7.015  19.744  0.00  0.00    +0.000 C 
ATOM     19  N   UNL     1       3.471   6.626  18.966  0.00  0.00    +0.000 N 
ATOM     20  H   UNL     1       3.829   7.258  18.257  0.00  0.00    +0.000 HD
BRANCH  18  21
ATOM     21  C   UNL     1       1.803   8.357  19.480  0.00  0.00    +0.000 A 
ATOM     22  C   UNL     1       1.822   8.835  18.161  0.00  0.00    +0.000 A 
ATOM     23  F   UNL     1       2.423   8.149  17.179  0.00  0.00    +0.000 F 
ATOM     24  C   UNL     1       1.237  10.057  17.817  0.00  0.00    +0.000 A 
ATOM     25  C   UNL     1       0.619  10.835  18.791  0.00  0.00    +0.000 A 
ATOM     26  C   UNL     1       0.592  10.381  20.110  0.00  0.00    +0.000 A 
ATOM     27  C   UNL     1       1.174   9.151  20.453  0.00  0.00    +0.000 A 
ATOM     28 CL   UNL     1       1.019   8.693  22.117  0.00  0.00    +0.000 Cl
ENDBRANCH  18  21
ENDBRANCH  16  19
ENDBRANCH   1  16
TORSDOF 4
ENDMDL
MODEL 7
REMARK VINA RESULT:      -8.7      1.650      1.853
REMARK  Name = 
REMARK  4 active torsions:
REMARK  status: ('A' for Active; 'I' for Inactive)
REMARK    1  A    between atoms: C_2  and  C_20
REMARK    2  A    between atoms: N_3  and  C_4
REMARK    3  A    between atoms: C_4  and  C_5
REMARK    4  A    between atoms: C_5  and  C_6
REMARK                            x       y       z     vdW  Elec       q    Type
REMARK                         _______ _______ _______ _____ _____    ______ ____
ROOT
ATOM      1  C   UNL     1       3.367   5.455  18.095  0.00  0.00    +0.000 C 
ATOM      2  C   UNL     1       2.282   4.378  17.741  0.00  0.00    +0.000 C 
ATOM      3  C   UNL     1       1.210   4.165  18.820  0.00  0.00    +0.000 C 
ATOM      4  C   UNL     1       1.836   3.830  20.157  0.00  0.00    +0.000 C 
ATOM      5  F   UNL     1       2.552   2.682  20.047  0.00  0.00    +0.000 F 
ATOM      6  F   UNL     1       0.879   3.606  21.084  0.00  0.00    +0.000 F 
ATOM      7  C   UNL     1       2.739   4.951  20.619  0.00  0.00    +0.000 C 
ATOM      8  C   UNL     1       3.811   5.243  19.581  0.00  0.00    +0.000 C 
ENDROOT
BRANCH   1   9
ATOM      9  C   UNL     1       4.608   5.287  17.173  0.00  0.00    +0.000 A 
ATOM     10  C   UNL     1       4.889   4.089  16.490  0.00  0.00    +0.000 A 
ATOM     11  C   UNL     1       5.931   4.008  15.573  0.00  0.00    +0.000 A 
ATOM     12  C   UNL     1       6.714   5.126  15.388  0.00  0.00    +0.000 A 
ATOM     13  F   UNL     1       7.705   5.065  14.486  0.00  0.00    +0.000 F 
ATOM     14  N   UNL     1       6.538   6.281  16.058  0.00  0.00    +0.000 NA
ATOM     15  C   UNL     1       5.499   6.335  16.930  0.00  0.00    +0.000 A 
ENDBRANCH   1   9
BRANCH   1  16
ATOM     16  C   UNL     1       2.718   6.857  17.847  0.00  0.00    +0.000 C 
BRANCH  16  19
ATOM     17  O   UNL     1       1.270   9.240  17.815  0.00  0.00    +0.000 OA
ATOM     18  C   UNL     1       1.475   8.709  18.903  0.00  0.00    +0.000 C 
ATOM     19  N   UNL     1       2.221   7.550  19.022  0.00  0.00    +0.000 N 
ATOM     20  H   UNL     1       2.351   7.131  19.938  0.00  0.00    +0.000 HD
BRANCH  18  21
ATOM     21  C   UNL     1       0.909   9.296  20.151  0.00  0.00    +0.000 A 
ATOM     22  C   UNL     1       0.513   8.417  21.169  0.00  0.00    +0.000 A 
ATOM     23  F   UNL     1       0.563   7.087  21.002  0.00  0.00    +0.000 F 
ATOM     24  C   UNL     1       0.025   8.885  22.392  0.00  0.00    +0.000 A 
ATOM     25  C   UNL     1      -0.080  10.252  22.625  0.00  0.00    +0.000 A 
ATOM     26  C   UNL     1       0.304  11.145  21.624  0.00  0.00    +0.000 A 
ATOM     27  C   UNL     1       0.799  10.674  20.399  0.00  0.00    +0.000 A 
ATOM     28 CL   UNL     1       1.286  11.897  19.272  0.00  0.00    +0.000 Cl
ENDBRANCH  18  21
ENDBRANCH  16  19
ENDBRANCH   1  16
TORSDOF 4
ENDMDL
MODEL 8
REMARK VINA RESULT:      -8.5      1.625      4.211
REMARK  Name = 
REMARK  4 active torsions:
REMARK  status: ('A' for Active; 'I' for Inactive)
REMARK    1  A    between atoms: C_2  and  C_20
REMARK    2  A    between atoms: N_3  and  C_4
REMARK    3  A    between atoms: C_4  and  C_5
REMARK    4  A    between atoms: C_5  and  C_6
REMARK                            x       y       z     vdW  Elec       q    Type
REMARK                         _______ _______ _______ _____ _____    ______ ____
ROOT
ATOM      1  C   UNL     1       3.784   5.569  18.083  0.00  0.00    +0.000 C 
ATOM      2  C   UNL     1       5.180   5.852  18.742  0.00  0.00    +0.000 C 
ATOM      3  C   UNL     1       6.296   6.219  17.754  0.00  0.00    +0.000 C 
ATOM      4  C   UNL     1       6.449   5.161  16.682  0.00  0.00    +0.000 C 
ATOM      5  F   UNL     1       6.775   3.976  17.258  0.00  0.00    +0.000 F 
ATOM      6  F   UNL     1       7.462   5.479  15.845  0.00  0.00    +0.000 F 
ATOM      7  C   UNL     1       5.168   5.010  15.894  0.00  0.00    +0.000 C 
ATOM      8  C   UNL     1       4.005   4.678  16.815  0.00  0.00    +0.000 C 
ENDROOT
BRANCH   1   9
ATOM      9  C   UNL     1       2.867   4.805  19.079  0.00  0.00    +0.000 A 
ATOM     10  C   UNL     1       1.704   4.127  18.671  0.00  0.00    +0.000 A 
ATOM     11  C   UNL     1       0.975   3.345  19.561  0.00  0.00    +0.000 A 
ATOM     12  C   UNL     1       1.401   3.291  20.869  0.00  0.00    +0.000 A 
ATOM     13  F   UNL     1       0.719   2.517  21.727  0.00  0.00    +0.000 F 
ATOM     14  N   UNL     1       2.468   3.967  21.336  0.00  0.00    +0.000 NA
ATOM     15  C   UNL     1       3.170   4.704  20.440  0.00  0.00    +0.000 A 
ENDBRANCH   1   9
BRANCH   1  16
ATOM     16  C   UNL     1       3.147   6.959  17.747  0.00  0.00    +0.000 C 
BRANCH  16  19
ATOM     17  O   UNL     1       1.519   9.212  17.520  0.00  0.00    +0.000 OA
ATOM     18  C   UNL     1       1.731   8.768  18.646  0.00  0.00    +0.000 C 
ATOM     19  N   UNL     1       2.562   7.683  18.860  0.00  0.00    +0.000 N 
ATOM     20  H   UNL     1       2.695   7.334  19.805  0.00  0.00    +0.000 HD
BRANCH  18  21
ATOM     21  C   UNL     1       1.082   9.386  19.838  0.00  0.00    +0.000 A 
ATOM     22  C   UNL     1       0.794   8.557  20.932  0.00  0.00    +0.000 A 
ATOM     23  F   UNL     1       1.018   7.236  20.884  0.00  0.00    +0.000 F 
ATOM     24  C   UNL     1       0.239   9.065  22.109  0.00  0.00    +0.000 A 
ATOM     25  C   UNL     1      -0.045  10.422  22.219  0.00  0.00    +0.000 A 
ATOM     26  C   UNL     1       0.229  11.265  21.141  0.00  0.00    +0.000 A 
ATOM     27  C   UNL     1       0.792  10.755  19.962  0.00  0.00    +0.000 A 
ATOM     28 CL   UNL     1       1.126  11.925  18.728  0.00  0.00    +0.000 Cl
ENDBRANCH  18  21
ENDBRANCH  16  19
ENDBRANCH   1  16
TORSDOF 4
ENDMDL
MODEL 9
REMARK VINA RESULT:      -8.5      1.740      2.142
REMARK  Name = 
REMARK  4 active torsions:
REMARK  status: ('A' for Active; 'I' for Inactive)
REMARK    1  A    between atoms: C_2  and  C_20
REMARK    2  A    between atoms: N_3  and  C_4
REMARK    3  A    between atoms: C_4  and  C_5
REMARK    4  A    between atoms: C_5  and  C_6
REMARK                            x       y       z     vdW  Elec       q    Type
REMARK                         _______ _______ _______ _____ _____    ______ ____
ROOT
ATOM      1  C   UNL     1       3.293   4.958  19.094  0.00  0.00    +0.000 C 
ATOM      2  C   UNL     1       2.253   4.885  17.921  0.00  0.00    +0.000 C 
ATOM      3  C   UNL     1       1.099   3.898  18.145  0.00  0.00    +0.000 C 
ATOM      4  C   UNL     1       1.616   2.508  18.449  0.00  0.00    +0.000 C 
ATOM      5  F   UNL     1       2.351   2.059  17.399  0.00  0.00    +0.000 F 
ATOM      6  F   UNL     1       0.588   1.644  18.602  0.00  0.00    +0.000 F 
ATOM      7  C   UNL     1       2.465   2.515  19.700  0.00  0.00    +0.000 C 
ATOM      8  C   UNL     1       3.615   3.500  19.564  0.00  0.00    +0.000 C 
ENDROOT
BRANCH   1   9
ATOM      9  C   UNL     1       4.607   5.627  18.603  0.00  0.00    +0.000 A 
ATOM     10  C   UNL     1       5.861   5.350  19.179  0.00  0.00    +0.000 A 
ATOM     11  C   UNL     1       7.034   5.863  18.636  0.00  0.00    +0.000 A 
ATOM     12  C   UNL     1       6.928   6.692  17.542  0.00  0.00    +0.000 A 
ATOM     13  F   UNL     1       8.057   7.169  16.996  0.00  0.00    +0.000 F 
ATOM     14  N   UNL     1       5.755   7.048  16.984  0.00  0.00    +0.000 NA
ATOM     15  C   UNL     1       4.630   6.514  17.523  0.00  0.00    +0.000 A 
ENDBRANCH   1   9
BRANCH   1  16
ATOM     16  C   UNL     1       2.650   5.833  20.222  0.00  0.00    +0.000 C 
BRANCH  16  19
ATOM     17  O   UNL     1       1.902   7.999  21.811  0.00  0.00    +0.000 OA
ATOM     18  C   UNL     1       1.553   8.004  20.633  0.00  0.00    +0.000 C 
ATOM     19  N   UNL     1       1.838   6.952  19.781  0.00  0.00    +0.000 N 
ATOM     20  H   UNL     1       1.549   7.004  18.809  0.00  0.00    +0.000 HD
BRANCH  18  21
ATOM     21  C   UNL     1       0.808   9.166  20.069  0.00  0.00    +0.000 A 
ATOM     22  C   UNL     1      -0.208   9.735  20.850  0.00  0.00    +0.000 A 
ATOM     23  F   UNL     1      -0.559   9.208  22.032  0.00  0.00    +0.000 F 
ATOM     24  C   UNL     1      -0.916  10.862  20.422  0.00  0.00    +0.000 A 
ATOM     25  C   UNL     1      -0.624  11.446  19.194  0.00  0.00    +0.000 A 
ATOM     26  C   UNL     1       0.381  10.892  18.399  0.00  0.00    +0.000 A 
ATOM     27  C   UNL     1       1.095   9.766  18.832  0.00  0.00    +0.000 A 
ATOM     28 CL   UNL     1       2.347   9.221  17.765  0.00  0.00    +0.000 Cl
ENDBRANCH  18  21
ENDBRANCH  16  19
ENDBRANCH   1  16
TORSDOF 4
ENDMDL
