MODEL 1
REMARK VINA RESULT:      -6.8      0.000      0.000
REMARK  Name = 
REMARK  4 active torsions:
REMARK  status: ('A' for Active; 'I' for Inactive)
REMARK    1  A    between atoms: C_1  and  C_2
REMARK    2  A    between atoms: C_2  and  N_13
REMARK    3  A    between atoms: C_3  and  C_4
REMARK    4  A    between atoms: C_4  and  C_6
REMARK                            x       y       z     vdW  Elec       q    Type
REMARK                         _______ _______ _______ _____ _____    ______ ____
ROOT
ATOM      1  C   UNL     1       3.210   6.744  18.101  0.00  0.00    +0.000 C 
ATOM      2  C   UNL     1       3.482   5.395  18.742  0.00  0.00    +0.000 C 
ATOM      3  C   UNL     1       4.703   4.810  18.688  0.00  0.00    +0.000 C 
ENDROOT
BRANCH   2   4
ATOM      4  N   UNL     1       2.402   4.812  19.445  0.00  0.00    +0.000 N 
ATOM      5  C   UNL     1       2.134   5.033  20.874  0.00  0.00    +0.000 C 
ATOM      6  C   UNL     1       2.190   3.698  21.615  0.00  0.00    +0.000 C 
ATOM      7  C   UNL     1       1.200   2.702  21.013  0.00  0.00    +0.000 C 
ATOM      8  C   UNL     1       1.386   2.581  19.501  0.00  0.00    +0.000 C 
ATOM      9  C   UNL     1       1.382   3.949  18.815  0.00  0.00    +0.000 C 
ENDBRANCH   2   4
BRANCH   3  10
ATOM     10  C   UNL     1       5.929   5.315  18.009  0.00  0.00    +0.000 C 
ATOM     11  O   UNL     1       6.715   6.100  18.528  0.00  0.00    +0.000 OA
BRANCH  10  12
ATOM     12  C   UNL     1       6.160   4.869  16.604  0.00  0.00    +0.000 A 
ATOM     13  C   UNL     1       5.275   3.942  16.038  0.00  0.00    +0.000 A 
ATOM     14  C   UNL     1       5.415   3.553  14.703  0.00  0.00    +0.000 A 
ATOM     15  C   UNL     1       6.437   4.101  13.930  0.00  0.00    +0.000 A 
ATOM     16 BR   UNL     1       6.596   3.625  12.108  0.00  0.00    +0.000 Br
ATOM     17  C   UNL     1       7.329   5.019  14.483  0.00  0.00    +0.000 A 
ATOM     18  C   UNL     1       7.192   5.405  15.821  0.00  0.00    +0.000 A 
ENDBRANCH  10  12
ENDBRANCH   3  10
TORSDOF 3
ENDMDL
MODEL 2
REMARK VINA RESULT:      -6.7      0.508      1.244
REMARK  Name = 
REMARK  4 active torsions:
REMARK  status: ('A' for Active; 'I' for Inactive)
REMARK    1  A    between atoms: C_1  and  C_2
REMARK    2  A    between atoms: C_2  and  N_13
REMARK    3  A    between atoms: C_3  and  C_4
REMARK    4  A    between atoms: C_4  and  C_6
REMARK                            x       y       z     vdW  Elec       q    Type
REMARK                         _______ _______ _______ _____ _____    ______ ____
ROOT
ATOM      1  C   UNL     1       3.778   6.442  17.883  0.00  0.00    +0.000 C 
ATOM      2  C   UNL     1       3.803   5.106  18.603  0.00  0.00    +0.000 C 
ATOM      3  C   UNL     1       4.923   4.347  18.664  0.00  0.00    +0.000 C 
ENDROOT
BRANCH   2   4
ATOM      4  N   UNL     1       2.605   4.728  19.251  0.00  0.00    +0.000 N 
ATOM      5  C   UNL     1       2.262   5.101  20.632  0.00  0.00    +0.000 C 
ATOM      6  C   UNL     1       2.082   3.838  21.472  0.00  0.00    +0.000 C 
ATOM      7  C   UNL     1       1.016   2.929  20.863  0.00  0.00    +0.000 C 
ATOM      8  C   UNL     1       1.297   2.657  19.386  0.00  0.00    +0.000 C 
ATOM      9  C   UNL     1       1.529   3.951  18.602  0.00  0.00    +0.000 C 
ENDBRANCH   2   4
BRANCH   3  10
ATOM     10  C   UNL     1       6.252   4.627  18.053  0.00  0.00    +0.000 C 
ATOM     11  O   UNL     1       7.239   4.961  18.702  0.00  0.00    +0.000 OA
BRANCH  10  12
ATOM     12  C   UNL     1       6.349   4.546  16.567  0.00  0.00    +0.000 A 
ATOM     13  C   UNL     1       7.342   5.290  15.915  0.00  0.00    +0.000 A 
ATOM     14  C   UNL     1       7.511   5.186  14.532  0.00  0.00    +0.000 A 
ATOM     15  C   UNL     1       6.691   4.329  13.800  0.00  0.00    +0.000 A 
ATOM     16 BR   UNL     1       6.953   4.139  11.938  0.00  0.00    +0.000 Br
ATOM     17  C   UNL     1       5.694   3.589  14.435  0.00  0.00    +0.000 A 
ATOM     18  C   UNL     1       5.522   3.696  15.819  0.00  0.00    +0.000 A 
ENDBRANCH  10  12
ENDBRANCH   3  10
TORSDOF 3
ENDMDL
MODEL 3
REMARK VINA RESULT:      -6.6      2.762      3.560
REMARK  Name = 
REMARK  4 active torsions:
REMARK  status: ('A' for Active; 'I' for Inactive)
REMARK    1  A    between atoms: C_1  and  C_2
REMARK    2  A    between atoms: C_2  and  N_13
REMARK    3  A    between atoms: C_3  and  C_4
REMARK    4  A    between atoms: C_4  and  C_6
REMARK                            x       y       z     vdW  Elec       q    Type
REMARK                         _______ _______ _______ _____ _____    ______ ____
ROOT
ATOM      1  C   UNL     1       3.037   5.308  17.903  0.00  0.00    +0.000 C 
ATOM      2  C   UNL     1       3.604   3.923  18.159  0.00  0.00    +0.000 C 
ATOM      3  C   UNL     1       4.738   3.492  17.556  0.00  0.00    +0.000 C 
ENDROOT
BRANCH   2   4
ATOM      4  N   UNL     1       2.910   3.133  19.104  0.00  0.00    +0.000 N 
ATOM      5  C   UNL     1       1.536   2.642  18.918  0.00  0.00    +0.000 C 
ATOM      6  C   UNL     1       0.645   3.190  20.031  0.00  0.00    +0.000 C 
ATOM      7  C   UNL     1       1.191   2.800  21.404  0.00  0.00    +0.000 C 
ATOM      8  C   UNL     1       2.664   3.182  21.543  0.00  0.00    +0.000 C 
ATOM      9  C   UNL     1       3.501   2.661  20.373  0.00  0.00    +0.000 C 
ENDBRANCH   2   4
BRANCH   3  10
ATOM     10  C   UNL     1       5.579   4.219  16.564  0.00  0.00    +0.000 C 
ATOM     11  O   UNL     1       5.657   3.902  15.381  0.00  0.00    +0.000 OA
BRANCH  10  12
ATOM     12  C   UNL     1       6.403   5.353  17.072  0.00  0.00    +0.000 A 
ATOM     13  C   UNL     1       6.200   6.629  16.527  0.00  0.00    +0.000 A 
ATOM     14  C   UNL     1       6.901   7.730  17.025  0.00  0.00    +0.000 A 
ATOM     15  C   UNL     1       7.799   7.558  18.077  0.00  0.00    +0.000 A 
ATOM     16 BR   UNL     1       8.705   9.053  18.795  0.00  0.00    +0.000 Br
ATOM     17  C   UNL     1       8.015   6.293  18.623  0.00  0.00    +0.000 A 
ATOM     18  C   UNL     1       7.317   5.189  18.122  0.00  0.00    +0.000 A 
ENDBRANCH  10  12
ENDBRANCH   3  10
TORSDOF 3
ENDMDL
MODEL 4
REMARK VINA RESULT:      -6.6      3.817      6.696
REMARK  Name = 
REMARK  4 active torsions:
REMARK  status: ('A' for Active; 'I' for Inactive)
REMARK    1  A    between atoms: C_1  and  C_2
REMARK    2  A    between atoms: C_2  and  N_13
REMARK    3  A    between atoms: C_3  and  C_4
REMARK    4  A    between atoms: C_4  and  C_6
REMARK                            x       y       z     vdW  Elec       q    Type
REMARK                         _______ _______ _______ _____ _____    ______ ____
ROOT
ATOM      1  C   UNL     1       2.462   4.263  17.565  0.00  0.00    +0.000 C 
ATOM      2  C   UNL     1       3.737   4.876  18.116  0.00  0.00    +0.000 C 
ATOM      3  C   UNL     1       3.734   5.664  19.218  0.00  0.00    +0.000 C 
ENDROOT
BRANCH   2   4
ATOM      4  N   UNL     1       4.932   4.531  17.444  0.00  0.00    +0.000 N 
ATOM      5  C   UNL     1       6.274   4.938  17.888  0.00  0.00    +0.000 C 
ATOM      6  C   UNL     1       6.939   5.778  16.799  0.00  0.00    +0.000 C 
ATOM      7  C   UNL     1       7.002   5.005  15.482  0.00  0.00    +0.000 C 
ATOM      8  C   UNL     1       5.629   4.459  15.094  0.00  0.00    +0.000 C 
ATOM      9  C   UNL     1       4.981   3.677  16.240  0.00  0.00    +0.000 C 
ENDBRANCH   2   4
BRANCH   3  10
ATOM     10  C   UNL     1       2.563   6.089  20.034  0.00  0.00    +0.000 C 
ATOM     11  O   UNL     1       1.993   5.354  20.835  0.00  0.00    +0.000 OA
BRANCH  10  12
ATOM     12  C   UNL     1       2.040   7.467  19.807  0.00  0.00    +0.000 A 
ATOM     13  C   UNL     1       2.194   8.044  18.539  0.00  0.00    +0.000 A 
ATOM     14  C   UNL     1       1.655   9.304  18.265  0.00  0.00    +0.000 A 
ATOM     15  C   UNL     1       0.953   9.984  19.259  0.00  0.00    +0.000 A 
ATOM     16 BR   UNL     1       0.171  11.663  18.877  0.00  0.00    +0.000 Br
ATOM     17  C   UNL     1       0.800   9.425  20.526  0.00  0.00    +0.000 A 
ATOM     18  C   UNL     1       1.342   8.165  20.803  0.00  0.00    +0.000 A 
ENDBRANCH  10  12
ENDBRANCH   3  10
TORSDOF 3
ENDMDL
MODEL 5
REMARK VINA RESULT:      -6.5      2.939      3.790
REMARK  Name = 
REMARK  4 active torsions:
REMARK  status: ('A' for Active; 'I' for Inactive)
REMARK    1  A    between atoms: C_1  and  C_2
REMARK    2  A    between atoms: C_2  and  N_13
REMARK    3  A    between atoms: C_3  and  C_4
REMARK    4  A    between atoms: C_4  and  C_6
REMARK                            x       y       z     vdW  Elec       q    Type
REMARK                         _______ _______ _______ _____ _____    ______ ____
ROOT
ATOM      1  C   UNL     1       3.003   3.771  16.765  0.00  0.00    +0.000 C 
ATOM      2  C   UNL     1       3.794   3.415  18.011  0.00  0.00    +0.000 C 
ATOM      3  C   UNL     1       5.111   3.705  18.131  0.00  0.00    +0.000 C 
ENDROOT
BRANCH   2   4
ATOM      4  N   UNL     1       3.061   2.812  19.060  0.00  0.00    +0.000 N 
ATOM      5  C   UNL     1       1.717   2.236  18.902  0.00  0.00    +0.000 C 
ATOM      6  C   UNL     1       0.738   2.967  19.818  0.00  0.00    +0.000 C 
ATOM      7  C   UNL     1       1.202   2.898  21.272  0.00  0.00    +0.000 C 
ATOM      8  C   UNL     1       2.651   3.364  21.414  0.00  0.00    +0.000 C 
ATOM      9  C   UNL     1       3.579   2.643  20.433  0.00  0.00    +0.000 C 
ENDBRANCH   2   4
BRANCH   3  10
ATOM     10  C   UNL     1       5.999   4.354  17.125  0.00  0.00    +0.000 C 
ATOM     11  O   UNL     1       6.278   3.847  16.042  0.00  0.00    +0.000 OA
BRANCH  10  12
ATOM     12  C   UNL     1       6.612   5.660  17.500  0.00  0.00    +0.000 A 
ATOM     13  C   UNL     1       7.631   5.673  18.462  0.00  0.00    +0.000 A 
ATOM     14  C   UNL     1       8.280   6.866  18.790  0.00  0.00    +0.000 A 
ATOM     15  C   UNL     1       7.915   8.048  18.147  0.00  0.00    +0.000 A 
ATOM     16 BR   UNL     1       8.829   9.655  18.543  0.00  0.00    +0.000 Br
ATOM     17  C   UNL     1       6.897   8.050  17.194  0.00  0.00    +0.000 A 
ATOM     18  C   UNL     1       6.245   6.857  16.869  0.00  0.00    +0.000 A 
ENDBRANCH  10  12
ENDBRANCH   3  10
TORSDOF 3
ENDMDL
MODEL 6
REMARK VINA RESULT:      -6.5      3.799      6.651
REMARK  Name = 
REMARK  4 active torsions:
REMARK  status: ('A' for Active; 'I' for Inactive)
REMARK    1  A    between atoms: C_1  and  C_2
REMARK    2  A    between atoms: C_2  and  N_13
REMARK    3  A    between atoms: C_3  and  C_4
REMARK    4  A    between atoms: C_4  and  C_6
REMARK                            x       y       z     vdW  Elec       q    Type
REMARK                         _______ _______ _______ _____ _____    ______ ____
ROOT
ATOM      1  C   UNL     1       2.552   4.084  17.574  0.00  0.00    +0.000 C 
ATOM      2  C   UNL     1       3.805   4.814  18.026  0.00  0.00    +0.000 C 
ATOM      3  C   UNL     1       3.789   5.690  19.059  0.00  0.00    +0.000 C 
ENDROOT
BRANCH   2   4
ATOM      4  N   UNL     1       4.997   4.484  17.342  0.00  0.00    +0.000 N 
ATOM      5  C   UNL     1       6.342   4.868  17.796  0.00  0.00    +0.000 C 
ATOM      6  C   UNL     1       7.010   5.738  16.734  0.00  0.00    +0.000 C 
ATOM      7  C   UNL     1       7.067   5.007  15.393  0.00  0.00    +0.000 C 
ATOM      8  C   UNL     1       5.690   4.482  14.989  0.00  0.00    +0.000 C 
ATOM      9  C   UNL     1       5.039   3.669  16.111  0.00  0.00    +0.000 C 
ENDBRANCH   2   4
BRANCH   3  10
ATOM     10  C   UNL     1       2.620   6.114  19.880  0.00  0.00    +0.000 C 
ATOM     11  O   UNL     1       2.095   5.401  20.729  0.00  0.00    +0.000 OA
BRANCH  10  12
ATOM     12  C   UNL     1       2.042   7.459  19.596  0.00  0.00    +0.000 A 
ATOM     13  C   UNL     1       1.385   8.140  20.631  0.00  0.00    +0.000 A 
ATOM     14  C   UNL     1       0.892   9.432  20.425  0.00  0.00    +0.000 A 
ATOM     15  C   UNL     1       1.065  10.046  19.187  0.00  0.00    +0.000 A 
ATOM     16 BR   UNL     1       0.453  11.815  18.921  0.00  0.00    +0.000 Br
ATOM     17  C   UNL     1       1.709   9.377  18.148  0.00  0.00    +0.000 A 
ATOM     18  C   UNL     1       2.200   8.083  18.351  0.00  0.00    +0.000 A 
ENDBRANCH  10  12
ENDBRANCH   3  10
TORSDOF 3
ENDMDL
MODEL 7
REMARK VINA RESULT:      -6.5      0.849      1.204
REMARK  Name = 
REMARK  4 active torsions:
REMARK  status: ('A' for Active; 'I' for Inactive)
REMARK    1  A    between atoms: C_1  and  C_2
REMARK    2  A    between atoms: C_2  and  N_13
REMARK    3  A    between atoms: C_3  and  C_4
REMARK    4  A    between atoms: C_4  and  C_6
REMARK                            x       y       z     vdW  Elec       q    Type
REMARK                         _______ _______ _______ _____ _____    ______ ____
ROOT
ATOM      1  C   UNL     1       3.110   6.444  18.139  0.00  0.00    +0.000 C 
ATOM      2  C   UNL     1       3.922   5.348  18.804  0.00  0.00    +0.000 C 
ATOM      3  C   UNL     1       5.219   5.124  18.485  0.00  0.00    +0.000 C 
ENDROOT
BRANCH   2   4
ATOM      4  N   UNL     1       3.261   4.611  19.814  0.00  0.00    +0.000 N 
ATOM      5  C   UNL     1       3.573   3.214  20.153  0.00  0.00    +0.000 C 
ATOM      6  C   UNL     1       2.334   2.347  19.935  0.00  0.00    +0.000 C 
ATOM      7  C   UNL     1       1.157   2.867  20.759  0.00  0.00    +0.000 C 
ATOM      8  C   UNL     1       0.924   4.357  20.512  0.00  0.00    +0.000 C 
ATOM      9  C   UNL     1       2.208   5.172  20.685  0.00  0.00    +0.000 C 
ENDBRANCH   2   4
BRANCH   3  10
ATOM     10  C   UNL     1       6.045   5.832  17.467  0.00  0.00    +0.000 C 
ATOM     11  O   UNL     1       6.554   6.932  17.654  0.00  0.00    +0.000 OA
BRANCH  10  12
ATOM     12  C   UNL     1       6.199   5.172  16.138  0.00  0.00    +0.000 A 
ATOM     13  C   UNL     1       5.147   4.381  15.654  0.00  0.00    +0.000 A 
ATOM     14  C   UNL     1       5.223   3.804  14.384  0.00  0.00    +0.000 A 
ATOM     15  C   UNL     1       6.348   4.025  13.592  0.00  0.00    +0.000 A 
ATOM     16 BR   UNL     1       6.431   3.296  11.850  0.00  0.00    +0.000 Br
ATOM     17  C   UNL     1       7.404   4.803  14.065  0.00  0.00    +0.000 A 
ATOM     18  C   UNL     1       7.331   5.379  15.338  0.00  0.00    +0.000 A 
ENDBRANCH  10  12
ENDBRANCH   3  10
TORSDOF 3
ENDMDL
MODEL 8
REMARK VINA RESULT:      -6.4      0.928      1.699
REMARK  Name = 
REMARK  4 active torsions:
REMARK  status: ('A' for Active; 'I' for Inactive)
REMARK    1  A    between atoms: C_1  and  C_2
REMARK    2  A    between atoms: C_2  and  N_13
REMARK    3  A    between atoms: C_3  and  C_4
REMARK    4  A    between atoms: C_4  and  C_6
REMARK                            x       y       z     vdW  Elec       q    Type
REMARK                         _______ _______ _______ _____ _____    ______ ____
ROOT
ATOM      1  C   UNL     1       3.005   6.289  17.948  0.00  0.00    +0.000 C 
ATOM      2  C   UNL     1       3.901   5.294  18.663  0.00  0.00    +0.000 C 
ATOM      3  C   UNL     1       5.217   5.173  18.365  0.00  0.00    +0.000 C 
ENDROOT
BRANCH   2   4
ATOM      4  N   UNL     1       3.295   4.543  19.696  0.00  0.00    +0.000 N 
ATOM      5  C   UNL     1       3.591   3.128  19.968  0.00  0.00    +0.000 C 
ATOM      6  C   UNL     1       2.315   2.302  19.817  0.00  0.00    +0.000 C 
ATOM      7  C   UNL     1       1.217   2.826  20.741  0.00  0.00    +0.000 C 
ATOM      8  C   UNL     1       1.009   4.329  20.559  0.00  0.00    +0.000 C 
ATOM      9  C   UNL     1       2.326   5.103  20.660  0.00  0.00    +0.000 C 
ENDBRANCH   2   4
BRANCH   3  10
ATOM     10  C   UNL     1       5.990   5.909  17.325  0.00  0.00    +0.000 C 
ATOM     11  O   UNL     1       6.506   7.006  17.516  0.00  0.00    +0.000 OA
BRANCH  10  12
ATOM     12  C   UNL     1       6.079   5.285  15.974  0.00  0.00    +0.000 A 
ATOM     13  C   UNL     1       7.264   5.434  15.241  0.00  0.00    +0.000 A 
ATOM     14  C   UNL     1       7.413   4.805  14.002  0.00  0.00    +0.000 A 
ATOM     15  C   UNL     1       6.379   4.018  13.500  0.00  0.00    +0.000 A 
ATOM     16 BR   UNL     1       6.598   3.116  11.852  0.00  0.00    +0.000 Br
ATOM     17  C   UNL     1       5.192   3.868  14.215  0.00  0.00    +0.000 A 
ATOM     18  C   UNL     1       5.040   4.500  15.454  0.00  0.00    +0.000 A 
ENDBRANCH  10  12
ENDBRANCH   3  10
TORSDOF 3
ENDMDL
MODEL 9
REMARK VINA RESULT:      -6.4      2.740      3.415
REMARK  Name = 
REMARK  4 active torsions:
REMARK  status: ('A' for Active; 'I' for Inactive)
REMARK    1  A    between atoms: C_1  and  C_2
REMARK    2  A    between atoms: C_2  and  N_13
REMARK    3  A    between atoms: C_3  and  C_4
REMARK    4  A    between atoms: C_4  and  C_6
REMARK                            x       y       z     vdW  Elec       q    Type
REMARK                         _______ _______ _______ _____ _____    ______ ____
ROOT
ATOM      1  C   UNL     1       3.203   6.226  17.573  0.00  0.00    +0.000 C 
ATOM      2  C   UNL     1       3.450   4.925  18.316  0.00  0.00    +0.000 C 
ATOM      3  C   UNL     1       4.587   4.209  18.146  0.00  0.00    +0.000 C 
ENDROOT
BRANCH   2   4
ATOM      4  N   UNL     1       2.449   4.533  19.234  0.00  0.00    +0.000 N 
ATOM      5  C   UNL     1       2.433   4.924  20.652  0.00  0.00    +0.000 C 
ATOM      6  C   UNL     1       2.488   3.673  21.527  0.00  0.00    +0.000 C 
ATOM      7  C   UNL     1       1.329   2.732  21.198  0.00  0.00    +0.000 C 
ATOM      8  C   UNL     1       1.260   2.439  19.700  0.00  0.00    +0.000 C 
ATOM      9  C   UNL     1       1.269   3.724  18.868  0.00  0.00    +0.000 C 
ENDBRANCH   2   4
BRANCH   3  10
ATOM     10  C   UNL     1       5.729   4.509  17.237  0.00  0.00    +0.000 C 
ATOM     11  O   UNL     1       6.013   3.825  16.258  0.00  0.00    +0.000 OA
BRANCH  10  12
ATOM     12  C   UNL     1       6.591   5.675  17.589  0.00  0.00    +0.000 A 
ATOM     13  C   UNL     1       6.425   6.872  16.879  0.00  0.00    +0.000 A 
ATOM     14  C   UNL     1       7.162   8.007  17.225  0.00  0.00    +0.000 A 
ATOM     15  C   UNL     1       8.059   7.948  18.289  0.00  0.00    +0.000 A 
ATOM     16 BR   UNL     1       9.016   9.497  18.800  0.00  0.00    +0.000 Br
ATOM     17  C   UNL     1       8.239   6.761  18.998  0.00  0.00    +0.000 A 
ATOM     18  C   UNL     1       7.505   5.623  18.650  0.00  0.00    +0.000 A 
ENDBRANCH  10  12
ENDBRANCH   3  10
TORSDOF 3
ENDMDL
