MODEL 1
REMARK VINA RESULT:      -8.8      0.000      0.000
REMARK  Name = 
REMARK  9 active torsions:
REMARK  status: ('A' for Active; 'I' for Inactive)
REMARK    1  A    between atoms: N_1  and  C_2
REMARK    2  A    between atoms: C_2  and  C_3
REMARK    3  A    between atoms: C_2  and  C_25
REMARK    4  A    between atoms: C_3  and  C_4
REMARK    5  A    between atoms: C_10  and  C_11
REMARK    6  A    between atoms: N_13  and  C_14
REMARK    7  A    between atoms: C_14  and  C_15
REMARK    8  A    between atoms: C_18  and  C_19
REMARK    9  A    between atoms: C_25  and  C_26
REMARK                            x       y       z     vdW  Elec       q    Type
REMARK                         _______ _______ _______ _____ _____    ______ ____
ROOT
ATOM      1  C   UNL     1       4.037   5.303  18.069  0.00  0.00    +0.000 C 
ATOM      2  O   UNL     1       3.925   6.482  18.375  0.00  0.00    +0.000 OA
ATOM      3  N   UNL     1       3.073   4.362  18.417  0.00  0.00    +0.000 N 
ATOM      4  C   UNL     1       3.025   2.945  18.070  0.00  0.00    +0.000 C 
ATOM      5  C   UNL     1       1.554   2.585  18.124  0.00  0.00    +0.000 C 
ATOM      6  C   UNL     1       0.963   3.542  19.151  0.00  0.00    +0.000 C 
ATOM      7  C   UNL     1       1.895   4.766  19.196  0.00  0.00    +0.000 C 
ENDROOT
BRANCH   7   8
ATOM      8  C   UNL     1       2.108   5.173  20.687  0.00  0.00    +0.000 C 
ATOM      9  O   UNL     1       2.601   4.380  21.488  0.00  0.00    +0.000 OA
ATOM     10  N   UNL     1       1.942   6.469  21.114  0.00  0.00    +0.000 N 
ATOM     11  H   UNL     1       2.239   6.614  22.071  0.00  0.00    +0.000 HD
BRANCH  10  12
ATOM     12  C   UNL     1       1.609   7.617  20.325  0.00  0.00    +0.000 C 
BRANCH  12  13
ATOM     13  C   UNL     1       1.014   8.774  21.060  0.00  0.00    +0.000 A 
ATOM     14  C   UNL     1       0.871   9.997  20.390  0.00  0.00    +0.000 A 
ATOM     15  C   UNL     1       0.059  10.995  20.919  0.00  0.00    +0.000 A 
ATOM     16  C   UNL     1      -0.576  10.809  22.151  0.00  0.00    +0.000 A 
ATOM     17  C   UNL     1      -0.350   9.616  22.859  0.00  0.00    +0.000 A 
ATOM     18  C   UNL     1       0.377   8.580  22.284  0.00  0.00    +0.000 A 
BRANCH  16  19
ATOM     19  C   UNL     1      -1.575  11.837  22.622  0.00  0.00    +0.000 C 
ATOM     20  F   UNL     1      -2.437  11.346  23.552  0.00  0.00    +0.000 F 
ATOM     21  F   UNL     1      -0.973  12.907  23.214  0.00  0.00    +0.000 F 
ATOM     22  F   UNL     1      -2.342  12.351  21.621  0.00  0.00    +0.000 F 
ENDBRANCH  16  19
ENDBRANCH  12  13
ENDBRANCH  10  12
ENDBRANCH   7   8
BRANCH   1  23
ATOM     23  C   UNL     1       5.286   4.764  17.365  0.00  0.00    +0.000 C 
BRANCH  23  24
ATOM     24  C   UNL     1       6.104   5.794  16.562  0.00  0.00    +0.000 C 
BRANCH  24  25
ATOM     25  N   UNL     1       5.184   6.625  15.766  0.00  0.00    +0.000 NA
ATOM     26  H   UNL     1       5.279   7.607  16.000  0.00  0.00    +0.000 HD
ATOM     27  H   UNL     1       4.219   6.360  15.967  0.00  0.00    +0.000 HD
ENDBRANCH  24  25
BRANCH  24  28
ATOM     28  C   UNL     1       7.227   5.245  15.651  0.00  0.00    +0.000 C 
BRANCH  28  29
ATOM     29  C   UNL     1       6.863   4.757  14.268  0.00  0.00    +0.000 A 
ATOM     30  C   UNL     1       5.803   3.868  14.132  0.00  0.00    +0.000 A 
ATOM     31  C   UNL     1       5.605   3.218  12.916  0.00  0.00    +0.000 A 
ATOM     32  C   UNL     1       6.331   3.547  11.781  0.00  0.00    +0.000 A 
ATOM     33  C   UNL     1       7.342   4.486  11.883  0.00  0.00    +0.000 A 
ATOM     34  C   UNL     1       7.632   5.044  13.128  0.00  0.00    +0.000 A 
ATOM     35  F   UNL     1       8.706   5.837  13.220  0.00  0.00    +0.000 F 
ENDBRANCH  28  29
ENDBRANCH  24  28
ENDBRANCH  23  24
ENDBRANCH   1  23
TORSDOF 9
ENDMDL
MODEL 2
REMARK VINA RESULT:      -8.5      5.438     10.383
REMARK  Name = 
REMARK  9 active torsions:
REMARK  status: ('A' for Active; 'I' for Inactive)
REMARK    1  A    between atoms: N_1  and  C_2
REMARK    2  A    between atoms: C_2  and  C_3
REMARK    3  A    between atoms: C_2  and  C_25
REMARK    4  A    between atoms: C_3  and  C_4
REMARK    5  A    between atoms: C_10  and  C_11
REMARK    6  A    between atoms: N_13  and  C_14
REMARK    7  A    between atoms: C_14  and  C_15
REMARK    8  A    between atoms: C_18  and  C_19
REMARK    9  A    between atoms: C_25  and  C_26
REMARK                            x       y       z     vdW  Elec       q    Type
REMARK                         _______ _______ _______ _____ _____    ______ ____
ROOT
ATOM      1  C   UNL     1       1.130  12.679  20.307  0.00  0.00    +0.000 C 
ATOM      2  O   UNL     1       1.988  12.562  19.443  0.00  0.00    +0.000 OA
ATOM      3  N   UNL     1       0.472  11.575  20.839  0.00  0.00    +0.000 N 
ATOM      4  C   UNL     1      -0.515  11.540  21.914  0.00  0.00    +0.000 C 
ATOM      5  C   UNL     1      -0.402  10.145  22.496  0.00  0.00    +0.000 C 
ATOM      6  C   UNL     1       0.066   9.281  21.332  0.00  0.00    +0.000 C 
ATOM      7  C   UNL     1       0.777  10.225  20.345  0.00  0.00    +0.000 C 
ENDROOT
BRANCH   7   8
ATOM      8  C   UNL     1       0.332   9.857  18.897  0.00  0.00    +0.000 C 
ATOM      9  O   UNL     1      -0.635  10.416  18.378  0.00  0.00    +0.000 OA
ATOM     10  N   UNL     1       1.099   9.058  18.083  0.00  0.00    +0.000 N 
ATOM     11  H   UNL     1       0.756   9.010  17.132  0.00  0.00    +0.000 HD
BRANCH  10  12
ATOM     12  C   UNL     1       2.380   8.486  18.373  0.00  0.00    +0.000 C 
BRANCH  12  13
ATOM     13  C   UNL     1       2.382   7.057  18.809  0.00  0.00    +0.000 A 
ATOM     14  C   UNL     1       2.131   6.764  20.158  0.00  0.00    +0.000 A 
ATOM     15  C   UNL     1       1.823   5.464  20.547  0.00  0.00    +0.000 A 
ATOM     16  C   UNL     1       1.816   4.430  19.606  0.00  0.00    +0.000 A 
ATOM     17  C   UNL     1       2.160   4.718  18.274  0.00  0.00    +0.000 A 
ATOM     18  C   UNL     1       2.367   6.031  17.867  0.00  0.00    +0.000 A 
BRANCH  16  19
ATOM     19  C   UNL     1       1.322   3.066  20.023  0.00  0.00    +0.000 C 
ATOM     20  F   UNL     1       0.866   3.039  21.303  0.00  0.00    +0.000 F 
ATOM     21  F   UNL     1       0.278   2.640  19.256  0.00  0.00    +0.000 F 
ATOM     22  F   UNL     1       2.268   2.091  19.932  0.00  0.00    +0.000 F 
ENDBRANCH  16  19
ENDBRANCH  12  13
ENDBRANCH  10  12
ENDBRANCH   7   8
BRANCH   1  23
ATOM     23  C   UNL     1       0.656  14.050  20.798  0.00  0.00    +0.000 C 
BRANCH  23  24
ATOM     24  C   UNL     1      -0.490  14.695  19.994  0.00  0.00    +0.000 C 
BRANCH  24  25
ATOM     25  N   UNL     1      -0.500  14.130  18.633  0.00  0.00    +0.000 NA
ATOM     26  H   UNL     1       0.277  13.494  18.493  0.00  0.00    +0.000 HD
ATOM     27  H   UNL     1      -0.402  14.879  17.947  0.00  0.00    +0.000 HD
ENDBRANCH  24  25
BRANCH  24  28
ATOM     28  C   UNL     1      -0.513  16.239  19.915  0.00  0.00    +0.000 C 
BRANCH  28  29
ATOM     29  C   UNL     1       0.007  16.908  18.664  0.00  0.00    +0.000 A 
ATOM     30  C   UNL     1       1.360  16.797  18.361  0.00  0.00    +0.000 A 
ATOM     31  C   UNL     1       1.907  17.599  17.363  0.00  0.00    +0.000 A 
ATOM     32  C   UNL     1       1.117  18.390  16.541  0.00  0.00    +0.000 A 
ATOM     33  C   UNL     1      -0.244  18.453  16.782  0.00  0.00    +0.000 A 
ATOM     34  C   UNL     1      -0.778  17.755  17.865  0.00  0.00    +0.000 A 
ATOM     35  F   UNL     1      -2.070  17.952  18.156  0.00  0.00    +0.000 F 
ENDBRANCH  28  29
ENDBRANCH  24  28
ENDBRANCH  23  24
ENDBRANCH   1  23
TORSDOF 9
ENDMDL
MODEL 3
REMARK VINA RESULT:      -8.5      1.571      2.121
REMARK  Name = 
REMARK  9 active torsions:
REMARK  status: ('A' for Active; 'I' for Inactive)
REMARK    1  A    between atoms: N_1  and  C_2
REMARK    2  A    between atoms: C_2  and  C_3
REMARK    3  A    between atoms: C_2  and  C_25
REMARK    4  A    between atoms: C_3  and  C_4
REMARK    5  A    between atoms: C_10  and  C_11
REMARK    6  A    between atoms: N_13  and  C_14
REMARK    7  A    between atoms: C_14  and  C_15
REMARK    8  A    between atoms: C_18  and  C_19
REMARK    9  A    between atoms: C_25  and  C_26
REMARK                            x       y       z     vdW  Elec       q    Type
REMARK                         _______ _______ _______ _____ _____    ______ ____
ROOT
ATOM      1  C   UNL     1       4.719   4.993  18.255  0.00  0.00    +0.000 C 
ATOM      2  O   UNL     1       4.626   6.210  18.335  0.00  0.00    +0.000 OA
ATOM      3  N   UNL     1       3.623   4.160  18.456  0.00  0.00    +0.000 N 
ATOM      4  C   UNL     1       3.554   2.708  18.329  0.00  0.00    +0.000 C 
ATOM      5  C   UNL     1       2.100   2.416  18.020  0.00  0.00    +0.000 C 
ATOM      6  C   UNL     1       1.332   3.553  18.681  0.00  0.00    +0.000 C 
ATOM      7  C   UNL     1       2.315   4.732  18.801  0.00  0.00    +0.000 C 
ENDROOT
BRANCH   7   8
ATOM      8  C   UNL     1       2.147   5.378  20.211  0.00  0.00    +0.000 C 
ATOM      9  O   UNL     1       2.285   4.700  21.230  0.00  0.00    +0.000 OA
ATOM     10  N   UNL     1       2.037   6.738  20.377  0.00  0.00    +0.000 N 
ATOM     11  H   UNL     1       2.066   7.024  21.348  0.00  0.00    +0.000 HD
BRANCH  10  12
ATOM     12  C   UNL     1       2.094   7.752  19.367  0.00  0.00    +0.000 C 
BRANCH  12  13
ATOM     13  C   UNL     1       1.356   9.018  19.661  0.00  0.00    +0.000 A 
ATOM     14  C   UNL     1       1.320  10.019  18.680  0.00  0.00    +0.000 A 
ATOM     15  C   UNL     1       0.408  11.066  18.781  0.00  0.00    +0.000 A 
ATOM     16  C   UNL     1      -0.439  11.159  19.890  0.00  0.00    +0.000 A 
ATOM     17  C   UNL     1      -0.330  10.201  20.912  0.00  0.00    +0.000 A 
ATOM     18  C   UNL     1       0.506   9.101  20.762  0.00  0.00    +0.000 A 
BRANCH  16  19
ATOM     19  C   UNL     1      -1.525  12.207  19.895  0.00  0.00    +0.000 C 
ATOM     20  F   UNL     1      -1.300  13.202  18.996  0.00  0.00    +0.000 F 
ATOM     21  F   UNL     1      -2.743  11.690  19.567  0.00  0.00    +0.000 F 
ATOM     22  F   UNL     1      -1.693  12.812  21.103  0.00  0.00    +0.000 F 
ENDBRANCH  16  19
ENDBRANCH  12  13
ENDBRANCH  10  12
ENDBRANCH   7   8
BRANCH   1  23
ATOM     23  C   UNL     1       6.063   4.297  18.022  0.00  0.00    +0.000 C 
BRANCH  23  24
ATOM     24  C   UNL     1       7.138   5.132  17.298  0.00  0.00    +0.000 C 
BRANCH  24  25
ATOM     25  N   UNL     1       7.685   6.128  18.236  0.00  0.00    +0.000 NA
ATOM     26  H   UNL     1       7.708   7.052  17.820  0.00  0.00    +0.000 HD
ATOM     27  H   UNL     1       8.646   5.883  18.478  0.00  0.00    +0.000 HD
ENDBRANCH  24  25
BRANCH  24  28
ATOM     28  C   UNL     1       6.720   5.831  15.984  0.00  0.00    +0.000 C 
BRANCH  28  29
ATOM     29  C   UNL     1       6.706   5.023  14.707  0.00  0.00    +0.000 A 
ATOM     30  C   UNL     1       7.687   5.267  13.752  0.00  0.00    +0.000 A 
ATOM     31  C   UNL     1       7.555   4.720  12.478  0.00  0.00    +0.000 A 
ATOM     32  C   UNL     1       6.562   3.802  12.173  0.00  0.00    +0.000 A 
ATOM     33  C   UNL     1       5.620   3.490  13.137  0.00  0.00    +0.000 A 
ATOM     34  C   UNL     1       5.670   4.136  14.373  0.00  0.00    +0.000 A 
ATOM     35  F   UNL     1       4.663   3.920  15.229  0.00  0.00    +0.000 F 
ENDBRANCH  28  29
ENDBRANCH  24  28
ENDBRANCH  23  24
ENDBRANCH   1  23
TORSDOF 9
ENDMDL
MODEL 4
REMARK VINA RESULT:      -8.5      1.009      1.251
REMARK  Name = 
REMARK  9 active torsions:
REMARK  status: ('A' for Active; 'I' for Inactive)
REMARK    1  A    between atoms: N_1  and  C_2
REMARK    2  A    between atoms: C_2  and  C_3
REMARK    3  A    between atoms: C_2  and  C_25
REMARK    4  A    between atoms: C_3  and  C_4
REMARK    5  A    between atoms: C_10  and  C_11
REMARK    6  A    between atoms: N_13  and  C_14
REMARK    7  A    between atoms: C_14  and  C_15
REMARK    8  A    between atoms: C_18  and  C_19
REMARK    9  A    between atoms: C_25  and  C_26
REMARK                            x       y       z     vdW  Elec       q    Type
REMARK                         _______ _______ _______ _____ _____    ______ ____
ROOT
ATOM      1  C   UNL     1       4.053   6.584  16.957  0.00  0.00    +0.000 C 
ATOM      2  O   UNL     1       3.666   7.663  17.383  0.00  0.00    +0.000 OA
ATOM      3  N   UNL     1       3.471   5.386  17.359  0.00  0.00    +0.000 N 
ATOM      4  C   UNL     1       3.767   4.035  16.894  0.00  0.00    +0.000 C 
ATOM      5  C   UNL     1       2.491   3.255  17.138  0.00  0.00    +0.000 C 
ATOM      6  C   UNL     1       1.840   3.949  18.328  0.00  0.00    +0.000 C 
ATOM      7  C   UNL     1       2.380   5.390  18.343  0.00  0.00    +0.000 C 
ENDROOT
BRANCH   7   8
ATOM      8  C   UNL     1       2.723   5.777  19.815  0.00  0.00    +0.000 C 
ATOM      9  O   UNL     1       3.465   5.065  20.492  0.00  0.00    +0.000 OA
ATOM     10  N   UNL     1       2.383   7.000  20.341  0.00  0.00    +0.000 N 
ATOM     11  H   UNL     1       2.780   7.164  21.257  0.00  0.00    +0.000 HD
BRANCH  10  12
ATOM     12  C   UNL     1       1.733   8.090  19.677  0.00  0.00    +0.000 C 
BRANCH  12  13
ATOM     13  C   UNL     1       1.115   9.126  20.558  0.00  0.00    +0.000 A 
ATOM     14  C   UNL     1       0.549  10.264  19.966  0.00  0.00    +0.000 A 
ATOM     15  C   UNL     1      -0.294  11.092  20.702  0.00  0.00    +0.000 A 
ATOM     16  C   UNL     1      -0.538  10.827  22.053  0.00  0.00    +0.000 A 
ATOM     17  C   UNL     1       0.109   9.737  22.661  0.00  0.00    +0.000 A 
ATOM     18  C   UNL     1       0.867   8.853  21.902  0.00  0.00    +0.000 A 
BRANCH  16  19
ATOM     19  C   UNL     1      -1.578  11.642  22.782  0.00  0.00    +0.000 C 
ATOM     20  F   UNL     1      -2.537  12.134  21.953  0.00  0.00    +0.000 F 
ATOM     21  F   UNL     1      -2.247  10.907  23.715  0.00  0.00    +0.000 F 
ATOM     22  F   UNL     1      -1.064  12.710  23.452  0.00  0.00    +0.000 F 
ENDBRANCH  16  19
ENDBRANCH  12  13
ENDBRANCH  10  12
ENDBRANCH   7   8
BRANCH   1  23
ATOM     23  C   UNL     1       5.261   6.469  16.023  0.00  0.00    +0.000 C 
BRANCH  23  24
ATOM     24  C   UNL     1       6.549   5.902  16.653  0.00  0.00    +0.000 C 
BRANCH  24  25
ATOM     25  N   UNL     1       7.500   7.005  16.877  0.00  0.00    +0.000 NA
ATOM     26  H   UNL     1       8.445   6.657  16.996  0.00  0.00    +0.000 HD
ATOM     27  H   UNL     1       7.254   7.505  17.731  0.00  0.00    +0.000 HD
ENDBRANCH  24  25
BRANCH  24  28
ATOM     28  C   UNL     1       7.255   4.752  15.898  0.00  0.00    +0.000 C 
BRANCH  28  29
ATOM     29  C   UNL     1       6.938   4.544  14.435  0.00  0.00    +0.000 A 
ATOM     30  C   UNL     1       5.909   3.673  14.093  0.00  0.00    +0.000 A 
ATOM     31  C   UNL     1       5.760   3.277  12.766  0.00  0.00    +0.000 A 
ATOM     32  C   UNL     1       6.499   3.849  11.741  0.00  0.00    +0.000 A 
ATOM     33  C   UNL     1       7.477   4.774  12.059  0.00  0.00    +0.000 A 
ATOM     34  C   UNL     1       7.721   5.077  13.398  0.00  0.00    +0.000 A 
ATOM     35  F   UNL     1       8.767   5.864  13.678  0.00  0.00    +0.000 F 
ENDBRANCH  28  29
ENDBRANCH  24  28
ENDBRANCH  23  24
ENDBRANCH   1  23
TORSDOF 9
ENDMDL
MODEL 5
REMARK VINA RESULT:      -8.4      2.195      3.280
REMARK  Name = 
REMARK  9 active torsions:
REMARK  status: ('A' for Active; 'I' for Inactive)
REMARK    1  A    between atoms: N_1  and  C_2
REMARK    2  A    between atoms: C_2  and  C_3
REMARK    3  A    between atoms: C_2  and  C_25
REMARK    4  A    between atoms: C_3  and  C_4
REMARK    5  A    between atoms: C_10  and  C_11
REMARK    6  A    between atoms: N_13  and  C_14
REMARK    7  A    between atoms: C_14  and  C_15
REMARK    8  A    between atoms: C_18  and  C_19
REMARK    9  A    between atoms: C_25  and  C_26
REMARK                            x       y       z     vdW  Elec       q    Type
REMARK                         _______ _______ _______ _____ _____    ______ ____
ROOT
ATOM      1  C   UNL     1       3.441   4.492  17.484  0.00  0.00    +0.000 C 
ATOM      2  O   UNL     1       3.545   5.708  17.566  0.00  0.00    +0.000 OA
ATOM      3  N   UNL     1       2.516   3.783  18.244  0.00  0.00    +0.000 N 
ATOM      4  C   UNL     1       2.223   2.354  18.211  0.00  0.00    +0.000 C 
ATOM      5  C   UNL     1       0.794   2.242  18.704  0.00  0.00    +0.000 C 
ATOM      6  C   UNL     1       0.615   3.435  19.634  0.00  0.00    +0.000 C 
ATOM      7  C   UNL     1       1.650   4.488  19.198  0.00  0.00    +0.000 C 
ENDROOT
BRANCH   7   8
ATOM      8  C   UNL     1       2.308   5.097  20.474  0.00  0.00    +0.000 C 
ATOM      9  O   UNL     1       2.889   4.374  21.284  0.00  0.00    +0.000 OA
ATOM     10  N   UNL     1       2.438   6.454  20.646  0.00  0.00    +0.000 N 
ATOM     11  H   UNL     1       2.997   6.702  21.452  0.00  0.00    +0.000 HD
BRANCH  10  12
ATOM     12  C   UNL     1       2.060   7.493  19.735  0.00  0.00    +0.000 C 
BRANCH  12  13
ATOM     13  C   UNL     1       1.053   8.477  20.236  0.00  0.00    +0.000 A 
ATOM     14  C   UNL     1       0.544   8.318  21.533  0.00  0.00    +0.000 A 
ATOM     15  C   UNL     1      -0.148   9.358  22.146  0.00  0.00    +0.000 A 
ATOM     16  C   UNL     1      -0.390  10.549  21.455  0.00  0.00    +0.000 A 
ATOM     17  C   UNL     1       0.044  10.662  20.122  0.00  0.00    +0.000 A 
ATOM     18  C   UNL     1       0.823   9.665  19.547  0.00  0.00    +0.000 A 
BRANCH  16  19
ATOM     19  C   UNL     1      -0.997  11.715  22.195  0.00  0.00    +0.000 C 
ATOM     20  F   UNL     1      -1.348  11.403  23.471  0.00  0.00    +0.000 F 
ATOM     21  F   UNL     1      -0.132  12.764  22.302  0.00  0.00    +0.000 F 
ATOM     22  F   UNL     1      -2.114  12.217  21.601  0.00  0.00    +0.000 F 
ENDBRANCH  16  19
ENDBRANCH  12  13
ENDBRANCH  10  12
ENDBRANCH   7   8
BRANCH   1  23
ATOM     23  C   UNL     1       4.382   3.655  16.611  0.00  0.00    +0.000 C 
BRANCH  23  24
ATOM     24  C   UNL     1       5.743   4.297  16.280  0.00  0.00    +0.000 C 
BRANCH  24  25
ATOM     25  N   UNL     1       6.396   3.517  15.214  0.00  0.00    +0.000 NA
ATOM     26  H   UNL     1       6.380   2.525  15.421  0.00  0.00    +0.000 HD
ATOM     27  H   UNL     1       7.375   3.792  15.135  0.00  0.00    +0.000 HD
ENDBRANCH  24  25
BRANCH  24  28
ATOM     28  C   UNL     1       6.730   4.499  17.453  0.00  0.00    +0.000 C 
BRANCH  28  29
ATOM     29  C   UNL     1       7.155   5.906  17.808  0.00  0.00    +0.000 A 
ATOM     30  C   UNL     1       6.764   6.950  16.978  0.00  0.00    +0.000 A 
ATOM     31  C   UNL     1       7.340   8.207  17.140  0.00  0.00    +0.000 A 
ATOM     32  C   UNL     1       8.173   8.501  18.209  0.00  0.00    +0.000 A 
ATOM     33  C   UNL     1       8.513   7.489  19.089  0.00  0.00    +0.000 A 
ATOM     34  C   UNL     1       8.044   6.196  18.856  0.00  0.00    +0.000 A 
ATOM     35  F   UNL     1       8.507   5.215  19.640  0.00  0.00    +0.000 F 
ENDBRANCH  28  29
ENDBRANCH  24  28
ENDBRANCH  23  24
ENDBRANCH   1  23
TORSDOF 9
ENDMDL
MODEL 6
REMARK VINA RESULT:      -8.4      1.386      1.717
REMARK  Name = 
REMARK  9 active torsions:
REMARK  status: ('A' for Active; 'I' for Inactive)
REMARK    1  A    between atoms: N_1  and  C_2
REMARK    2  A    between atoms: C_2  and  C_3
REMARK    3  A    between atoms: C_2  and  C_25
REMARK    4  A    between atoms: C_3  and  C_4
REMARK    5  A    between atoms: C_10  and  C_11
REMARK    6  A    between atoms: N_13  and  C_14
REMARK    7  A    between atoms: C_14  and  C_15
REMARK    8  A    between atoms: C_18  and  C_19
REMARK    9  A    between atoms: C_25  and  C_26
REMARK                            x       y       z     vdW  Elec       q    Type
REMARK                         _______ _______ _______ _____ _____    ______ ____
ROOT
ATOM      1  C   UNL     1       4.763   4.927  17.988  0.00  0.00    +0.000 C 
ATOM      2  O   UNL     1       4.701   6.148  18.043  0.00  0.00    +0.000 OA
ATOM      3  N   UNL     1       3.655   4.125  18.241  0.00  0.00    +0.000 N 
ATOM      4  C   UNL     1       3.548   2.673  18.148  0.00  0.00    +0.000 C 
ATOM      5  C   UNL     1       2.078   2.410  17.891  0.00  0.00    +0.000 C 
ATOM      6  C   UNL     1       1.359   3.579  18.550  0.00  0.00    +0.000 C 
ATOM      7  C   UNL     1       2.372   4.737  18.613  0.00  0.00    +0.000 C 
ENDROOT
BRANCH   7   8
ATOM      8  C   UNL     1       2.263   5.416  20.013  0.00  0.00    +0.000 C 
ATOM      9  O   UNL     1       2.412   4.757  21.042  0.00  0.00    +0.000 OA
ATOM     10  N   UNL     1       2.196   6.782  20.153  0.00  0.00    +0.000 N 
ATOM     11  H   UNL     1       2.262   7.088  21.115  0.00  0.00    +0.000 HD
BRANCH  10  12
ATOM     12  C   UNL     1       2.252   7.772  19.120  0.00  0.00    +0.000 C 
BRANCH  12  13
ATOM     13  C   UNL     1       1.405   8.987  19.324  0.00  0.00    +0.000 A 
ATOM     14  C   UNL     1       0.888   9.644  18.198  0.00  0.00    +0.000 A 
ATOM     15  C   UNL     1      -0.136  10.576  18.341  0.00  0.00    +0.000 A 
ATOM     16  C   UNL     1      -0.618  10.906  19.611  0.00  0.00    +0.000 A 
ATOM     17  C   UNL     1      -0.027  10.310  20.739  0.00  0.00    +0.000 A 
ATOM     18  C   UNL     1       0.922   9.306  20.591  0.00  0.00    +0.000 A 
BRANCH  16  19
ATOM     19  C   UNL     1      -1.833  11.794  19.725  0.00  0.00    +0.000 C 
ATOM     20  F   UNL     1      -2.261  11.939  21.007  0.00  0.00    +0.000 F 
ATOM     21  F   UNL     1      -1.590  13.059  19.277  0.00  0.00    +0.000 F 
ATOM     22  F   UNL     1      -2.903  11.348  19.011  0.00  0.00    +0.000 F 
ENDBRANCH  16  19
ENDBRANCH  12  13
ENDBRANCH  10  12
ENDBRANCH   7   8
BRANCH   1  23
ATOM     23  C   UNL     1       6.083   4.195  17.729  0.00  0.00    +0.000 C 
BRANCH  23  24
ATOM     24  C   UNL     1       7.140   4.975  16.923  0.00  0.00    +0.000 C 
BRANCH  24  25
ATOM     25  N   UNL     1       7.865   5.881  17.831  0.00  0.00    +0.000 NA
ATOM     26  H   UNL     1       8.518   6.467  17.324  0.00  0.00    +0.000 HD
ATOM     27  H   UNL     1       8.407   5.336  18.502  0.00  0.00    +0.000 HD
ENDBRANCH  24  25
BRANCH  24  28
ATOM     28  C   UNL     1       6.644   5.764  15.689  0.00  0.00    +0.000 C 
BRANCH  28  29
ATOM     29  C   UNL     1       6.447   5.022  14.387  0.00  0.00    +0.000 A 
ATOM     30  C   UNL     1       5.316   4.228  14.236  0.00  0.00    +0.000 A 
ATOM     31  C   UNL     1       5.234   3.350  13.158  0.00  0.00    +0.000 A 
ATOM     32  C   UNL     1       6.169   3.356  12.134  0.00  0.00    +0.000 A 
ATOM     33  C   UNL     1       7.264   4.196  12.232  0.00  0.00    +0.000 A 
ATOM     34  C   UNL     1       7.420   4.982  13.374  0.00  0.00    +0.000 A 
ATOM     35  F   UNL     1       8.560   5.672  13.504  0.00  0.00    +0.000 F 
ENDBRANCH  28  29
ENDBRANCH  24  28
ENDBRANCH  23  24
ENDBRANCH   1  23
TORSDOF 9
ENDMDL
MODEL 7
REMARK VINA RESULT:      -8.3      1.222      1.682
REMARK  Name = 
REMARK  9 active torsions:
REMARK  status: ('A' for Active; 'I' for Inactive)
REMARK    1  A    between atoms: N_1  and  C_2
REMARK    2  A    between atoms: C_2  and  C_3
REMARK    3  A    between atoms: C_2  and  C_25
REMARK    4  A    between atoms: C_3  and  C_4
REMARK    5  A    between atoms: C_10  and  C_11
REMARK    6  A    between atoms: N_13  and  C_14
REMARK    7  A    between atoms: C_14  and  C_15
REMARK    8  A    between atoms: C_18  and  C_19
REMARK    9  A    between atoms: C_25  and  C_26
REMARK                            x       y       z     vdW  Elec       q    Type
REMARK                         _______ _______ _______ _____ _____    ______ ____
ROOT
ATOM      1  C   UNL     1       4.695   5.195  17.919  0.00  0.00    +0.000 C 
ATOM      2  O   UNL     1       4.570   6.404  18.054  0.00  0.00    +0.000 OA
ATOM      3  N   UNL     1       3.650   4.316  18.185  0.00  0.00    +0.000 N 
ATOM      4  C   UNL     1       3.617   2.868  18.008  0.00  0.00    +0.000 C 
ATOM      5  C   UNL     1       2.151   2.535  17.820  0.00  0.00    +0.000 C 
ATOM      6  C   UNL     1       1.410   3.620  18.592  0.00  0.00    +0.000 C 
ATOM      7  C   UNL     1       2.361   4.829  18.668  0.00  0.00    +0.000 C 
ENDROOT
BRANCH   7   8
ATOM      8  C   UNL     1       2.301   5.416  20.112  0.00  0.00    +0.000 C 
ATOM      9  O   UNL     1       2.513   4.698  21.089  0.00  0.00    +0.000 OA
ATOM     10  N   UNL     1       2.209   6.769  20.341  0.00  0.00    +0.000 N 
ATOM     11  H   UNL     1       2.312   7.016  21.317  0.00  0.00    +0.000 HD
BRANCH  10  12
ATOM     12  C   UNL     1       2.194   7.823  19.371  0.00  0.00    +0.000 C 
BRANCH  12  13
ATOM     13  C   UNL     1       1.110   8.841  19.520  0.00  0.00    +0.000 A 
ATOM     14  C   UNL     1       0.580   9.079  20.796  0.00  0.00    +0.000 A 
ATOM     15  C   UNL     1      -0.196  10.210  21.032  0.00  0.00    +0.000 A 
ATOM     16  C   UNL     1      -0.500  11.087  19.987  0.00  0.00    +0.000 A 
ATOM     17  C   UNL     1      -0.042  10.789  18.692  0.00  0.00    +0.000 A 
ATOM     18  C   UNL     1       0.817   9.718  18.477  0.00  0.00    +0.000 A 
BRANCH  16  19
ATOM     19  C   UNL     1      -1.204  12.385  20.302  0.00  0.00    +0.000 C 
ATOM     20  F   UNL     1      -2.547  12.234  20.448  0.00  0.00    +0.000 F 
ATOM     21  F   UNL     1      -0.771  12.934  21.473  0.00  0.00    +0.000 F 
ATOM     22  F   UNL     1      -1.025  13.346  19.355  0.00  0.00    +0.000 F 
ENDBRANCH  16  19
ENDBRANCH  12  13
ENDBRANCH  10  12
ENDBRANCH   7   8
BRANCH   1  23
ATOM     23  C   UNL     1       6.035   4.556  17.538  0.00  0.00    +0.000 C 
BRANCH  23  24
ATOM     24  C   UNL     1       6.723   5.131  16.285  0.00  0.00    +0.000 C 
BRANCH  24  25
ATOM     25  N   UNL     1       7.479   6.339  16.663  0.00  0.00    +0.000 NA
ATOM     26  H   UNL     1       7.404   6.524  17.656  0.00  0.00    +0.000 HD
ATOM     27  H   UNL     1       7.097   7.151  16.176  0.00  0.00    +0.000 HD
ENDBRANCH  24  25
BRANCH  24  28
ATOM     28  C   UNL     1       5.823   5.442  15.067  0.00  0.00    +0.000 C 
BRANCH  28  29
ATOM     29  C   UNL     1       6.074   4.701  13.774  0.00  0.00    +0.000 A 
ATOM     30  C   UNL     1       5.135   3.771  13.344  0.00  0.00    +0.000 A 
ATOM     31  C   UNL     1       5.454   2.906  12.300  0.00  0.00    +0.000 A 
ATOM     32  C   UNL     1       6.618   3.047  11.560  0.00  0.00    +0.000 A 
ATOM     33  C   UNL     1       7.531   4.018  11.928  0.00  0.00    +0.000 A 
ATOM     34  C   UNL     1       7.278   4.800  13.055  0.00  0.00    +0.000 A 
ATOM     35  F   UNL     1       8.244   5.630  13.469  0.00  0.00    +0.000 F 
ENDBRANCH  28  29
ENDBRANCH  24  28
ENDBRANCH  23  24
ENDBRANCH   1  23
TORSDOF 9
ENDMDL
MODEL 8
REMARK VINA RESULT:      -8.2      1.094      1.445
REMARK  Name = 
REMARK  9 active torsions:
REMARK  status: ('A' for Active; 'I' for Inactive)
REMARK    1  A    between atoms: N_1  and  C_2
REMARK    2  A    between atoms: C_2  and  C_3
REMARK    3  A    between atoms: C_2  and  C_25
REMARK    4  A    between atoms: C_3  and  C_4
REMARK    5  A    between atoms: C_10  and  C_11
REMARK    6  A    between atoms: N_13  and  C_14
REMARK    7  A    between atoms: C_14  and  C_15
REMARK    8  A    between atoms: C_18  and  C_19
REMARK    9  A    between atoms: C_25  and  C_26
REMARK                            x       y       z     vdW  Elec       q    Type
REMARK                         _______ _______ _______ _____ _____    ______ ____
ROOT
ATOM      1  C   UNL     1       4.866   5.322  18.688  0.00  0.00    +0.000 C 
ATOM      2  O   UNL     1       4.686   6.490  19.005  0.00  0.00    +0.000 OA
ATOM      3  N   UNL     1       3.811   4.422  18.575  0.00  0.00    +0.000 N 
ATOM      4  C   UNL     1       3.851   3.029  18.144  0.00  0.00    +0.000 C 
ATOM      5  C   UNL     1       2.462   2.752  17.604  0.00  0.00    +0.000 C 
ATOM      6  C   UNL     1       1.553   3.691  18.386  0.00  0.00    +0.000 C 
ATOM      7  C   UNL     1       2.438   4.856  18.867  0.00  0.00    +0.000 C 
ENDROOT
BRANCH   7   8
ATOM      8  C   UNL     1       2.071   5.179  20.348  0.00  0.00    +0.000 C 
ATOM      9  O   UNL     1       2.142   4.308  21.215  0.00  0.00    +0.000 OA
ATOM     10  N   UNL     1       1.850   6.467  20.776  0.00  0.00    +0.000 N 
ATOM     11  H   UNL     1       1.752   6.542  21.780  0.00  0.00    +0.000 HD
BRANCH  10  12
ATOM     12  C   UNL     1       1.949   7.674  20.011  0.00  0.00    +0.000 C 
BRANCH  12  13
ATOM     13  C   UNL     1       0.945   8.736  20.321  0.00  0.00    +0.000 A 
ATOM     14  C   UNL     1       0.260   8.679  21.543  0.00  0.00    +0.000 A 
ATOM     15  C   UNL     1      -0.444   9.787  22.005  0.00  0.00    +0.000 A 
ATOM     16  C   UNL     1      -0.520  10.947  21.228  0.00  0.00    +0.000 A 
ATOM     17  C   UNL     1       0.092  10.961  19.963  0.00  0.00    +0.000 A 
ATOM     18  C   UNL     1       0.879   9.894  19.548  0.00  0.00    +0.000 A 
BRANCH  16  19
ATOM     19  C   UNL     1      -1.149  12.184  21.821  0.00  0.00    +0.000 C 
ATOM     20  F   UNL     1      -2.506  12.111  21.876  0.00  0.00    +0.000 F 
ATOM     21  F   UNL     1      -0.745  12.403  23.105  0.00  0.00    +0.000 F 
ATOM     22  F   UNL     1      -0.854  13.326  21.141  0.00  0.00    +0.000 F 
ENDBRANCH  16  19
ENDBRANCH  12  13
ENDBRANCH  10  12
ENDBRANCH   7   8
BRANCH   1  23
ATOM     23  C   UNL     1       6.270   4.745  18.483  0.00  0.00    +0.000 C 
BRANCH  23  24
ATOM     24  C   UNL     1       6.634   4.354  17.037  0.00  0.00    +0.000 C 
BRANCH  24  25
ATOM     25  N   UNL     1       8.091   4.149  16.947  0.00  0.00    +0.000 NA
ATOM     26  H   UNL     1       8.582   5.032  16.866  0.00  0.00    +0.000 HD
ATOM     27  H   UNL     1       8.311   3.605  16.112  0.00  0.00    +0.000 HD
ENDBRANCH  24  25
BRANCH  24  28
ATOM     28  C   UNL     1       6.173   5.309  15.912  0.00  0.00    +0.000 C 
BRANCH  28  29
ATOM     29  C   UNL     1       6.183   4.806  14.487  0.00  0.00    +0.000 A 
ATOM     30  C   UNL     1       5.123   4.021  14.049  0.00  0.00    +0.000 A 
ATOM     31  C   UNL     1       5.225   3.347  12.834  0.00  0.00    +0.000 A 
ATOM     32  C   UNL     1       6.282   3.561  11.962  0.00  0.00    +0.000 A 
ATOM     33  C   UNL     1       7.310   4.400  12.352  0.00  0.00    +0.000 A 
ATOM     34  C   UNL     1       7.278   4.974  13.623  0.00  0.00    +0.000 A 
ATOM     35  F   UNL     1       8.355   5.662  14.023  0.00  0.00    +0.000 F 
ENDBRANCH  28  29
ENDBRANCH  24  28
ENDBRANCH  23  24
ENDBRANCH   1  23
TORSDOF 9
ENDMDL
MODEL 9
REMARK VINA RESULT:      -8.2      1.801      2.859
REMARK  Name = 
REMARK  9 active torsions:
REMARK  status: ('A' for Active; 'I' for Inactive)
REMARK    1  A    between atoms: N_1  and  C_2
REMARK    2  A    between atoms: C_2  and  C_3
REMARK    3  A    between atoms: C_2  and  C_25
REMARK    4  A    between atoms: C_3  and  C_4
REMARK    5  A    between atoms: C_10  and  C_11
REMARK    6  A    between atoms: N_13  and  C_14
REMARK    7  A    between atoms: C_14  and  C_15
REMARK    8  A    between atoms: C_18  and  C_19
REMARK    9  A    between atoms: C_25  and  C_26
REMARK                            x       y       z     vdW  Elec       q    Type
REMARK                         _______ _______ _______ _____ _____    ______ ____
ROOT
ATOM      1  C   UNL     1       3.499   4.795  17.533  0.00  0.00    +0.000 C 
ATOM      2  O   UNL     1       3.501   6.007  17.704  0.00  0.00    +0.000 OA
ATOM      3  N   UNL     1       2.613   3.962  18.209  0.00  0.00    +0.000 N 
ATOM      4  C   UNL     1       2.438   2.520  18.066  0.00  0.00    +0.000 C 
ATOM      5  C   UNL     1       1.010   2.260  18.501  0.00  0.00    +0.000 C 
ATOM      6  C   UNL     1       0.709   3.364  19.506  0.00  0.00    +0.000 C 
ATOM      7  C   UNL     1       1.666   4.525  19.180  0.00  0.00    +0.000 C 
ENDROOT
BRANCH   7   8
ATOM      8  C   UNL     1       2.236   5.089  20.518  0.00  0.00    +0.000 C 
ATOM      9  O   UNL     1       2.900   4.372  21.267  0.00  0.00    +0.000 OA
ATOM     10  N   UNL     1       2.192   6.430  20.816  0.00  0.00    +0.000 N 
ATOM     11  H   UNL     1       2.713   6.670  21.651  0.00  0.00    +0.000 HD
BRANCH  10  12
ATOM     12  C   UNL     1       1.691   7.494  19.999  0.00  0.00    +0.000 C 
BRANCH  12  13
ATOM     13  C   UNL     1       1.139   8.679  20.723  0.00  0.00    +0.000 A 
ATOM     14  C   UNL     1       0.690   9.777  19.975  0.00  0.00    +0.000 A 
ATOM     15  C   UNL     1      -0.099  10.756  20.572  0.00  0.00    +0.000 A 
ATOM     16  C   UNL     1      -0.404  10.682  21.935  0.00  0.00    +0.000 A 
ATOM     17  C   UNL     1       0.129   9.627  22.695  0.00  0.00    +0.000 A 
ATOM     18  C   UNL     1       0.830   8.597  22.079  0.00  0.00    +0.000 A 
BRANCH  16  19
ATOM     19  C   UNL     1      -1.391  11.663  22.518  0.00  0.00    +0.000 C 
ATOM     20  F   UNL     1      -0.794  12.780  23.012  0.00  0.00    +0.000 F 
ATOM     21  F   UNL     1      -2.284  12.108  21.590  0.00  0.00    +0.000 F 
ATOM     22  F   UNL     1      -2.139  11.147  23.532  0.00  0.00    +0.000 F 
ENDBRANCH  16  19
ENDBRANCH  12  13
ENDBRANCH  10  12
ENDBRANCH   7   8
BRANCH   1  23
ATOM     23  C   UNL     1       4.528   4.102  16.635  0.00  0.00    +0.000 C 
BRANCH  23  24
ATOM     24  C   UNL     1       4.954   4.879  15.374  0.00  0.00    +0.000 C 
BRANCH  24  25
ATOM     25  N   UNL     1       5.385   3.920  14.342  0.00  0.00    +0.000 NA
ATOM     26  H   UNL     1       4.743   3.139  14.274  0.00  0.00    +0.000 HD
ATOM     27  H   UNL     1       6.299   3.538  14.586  0.00  0.00    +0.000 HD
ENDBRANCH  24  25
BRANCH  24  28
ATOM     28  C   UNL     1       6.034   5.971  15.551  0.00  0.00    +0.000 C 
BRANCH  28  29
ATOM     29  C   UNL     1       6.926   5.916  16.770  0.00  0.00    +0.000 A 
ATOM     30  C   UNL     1       7.350   4.675  17.231  0.00  0.00    +0.000 A 
ATOM     31  C   UNL     1       7.960   4.579  18.479  0.00  0.00    +0.000 A 
ATOM     32  C   UNL     1       8.311   5.703  19.213  0.00  0.00    +0.000 A 
ATOM     33  C   UNL     1       7.962   6.951  18.732  0.00  0.00    +0.000 A 
ATOM     34  C   UNL     1       7.233   7.046  17.546  0.00  0.00    +0.000 A 
ATOM     35  F   UNL     1       6.788   8.256  17.184  0.00  0.00    +0.000 F 
ENDBRANCH  28  29
ENDBRANCH  24  28
ENDBRANCH  23  24
ENDBRANCH   1  23
TORSDOF 9
ENDMDL
