MODEL 1
REMARK VINA RESULT:      -8.1      0.000      0.000
REMARK  Name = 
REMARK  7 active torsions:
REMARK  status: ('A' for Active; 'I' for Inactive)
REMARK    1  A    between atoms: C_1  and  C_2
REMARK    2  A    between atoms: C_2  and  O_3
REMARK    3  A    between atoms: O_3  and  C_4
REMARK    4  A    between atoms: C_4  and  C_5
REMARK    5  A    between atoms: C_5  and  N_6
REMARK    6  A    between atoms: C_8  and  C_9
REMARK    7  A    between atoms: C_16  and  N_17
REMARK                            x       y       z     vdW  Elec       q    Type
REMARK                         _______ _______ _______ _____ _____    ______ ____
ROOT
ATOM      1  C   UNL     1       2.444   7.243  18.751  0.00  0.00    +0.000 A 
ATOM      2  C   UNL     1       2.067   7.390  20.072  0.00  0.00    +0.000 A 
ATOM      3  C   UNL     1       1.363   8.538  20.440  0.00  0.00    +0.000 A 
ATOM      4  C   UNL     1       1.058   9.497  19.486  0.00  0.00    +0.000 A 
ATOM      5  N   UNL     1       0.480  10.717  19.787  0.00  0.00    +0.000 N 
ATOM      6  C   UNL     1      -0.455  11.222  18.785  0.00  0.00    +0.000 C 
ATOM      7  C   UNL     1      -0.573  12.741  18.844  0.00  0.00    +0.000 C 
ATOM      8  C   UNL     1      -0.713  13.308  20.260  0.00  0.00    +0.000 C 
ATOM      9  C   UNL     1       0.393  12.741  21.152  0.00  0.00    +0.000 C 
ATOM     10  C   UNL     1       0.412  11.217  21.153  0.00  0.00    +0.000 C 
ATOM     11  N   UNL     1       1.395   9.262  18.198  0.00  0.00    +0.000 NA
ATOM     12  N   UNL     1       2.089   8.147  17.824  0.00  0.00    +0.000 NA
ENDROOT
BRANCH   8  13
ATOM     13  N   UNL     1      -2.040  13.117  20.849  0.00  0.00    +0.000 N 
ATOM     14  C   UNL     1      -3.227  12.666  20.117  0.00  0.00    +0.000 C 
ATOM     15  C   UNL     1      -4.447  12.793  21.038  0.00  0.00    +0.000 C 
ATOM     16  C   UNL     1      -3.841  13.370  22.267  0.00  0.00    +0.000 A 
ATOM     17  C   UNL     1      -4.508  13.714  23.435  0.00  0.00    +0.000 A 
ATOM     18  C   UNL     1      -3.758  14.245  24.477  0.00  0.00    +0.000 A 
ATOM     19  C   UNL     1      -2.377  14.417  24.320  0.00  0.00    +0.000 A 
ATOM     20  F   UNL     1      -1.671  14.928  25.336  0.00  0.00    +0.000 F 
ATOM     21  C   UNL     1      -1.719  14.070  23.135  0.00  0.00    +0.000 A 
ATOM     22  C   UNL     1      -2.459  13.537  22.096  0.00  0.00    +0.000 A 
ENDBRANCH   8  13
BRANCH   1  25
ATOM     23  N   UNL     1       4.666   4.935  17.118  0.00  0.00    +0.000 N 
ATOM     24  C   UNL     1       4.149   6.194  17.229  0.00  0.00    +0.000 A 
ATOM     25  C   UNL     1       3.243   6.146  18.262  0.00  0.00    +0.000 A 
ATOM     26  C   UNL     1       3.261   4.796  18.678  0.00  0.00    +0.000 A 
ATOM     27  N   UNL     1       4.139   4.061  17.993  0.00  0.00    +0.000 NA
BRANCH  23  28
ATOM     28  C   UNL     1       5.699   4.516  16.199  0.00  0.00    +0.000 C 
BRANCH  28  29
ATOM     29  C   UNL     1       7.085   4.788  16.762  0.00  0.00    +0.000 C 
BRANCH  29  30
ATOM     30  O   UNL     1       7.530   6.076  16.330  0.00  0.00    +0.000 OA
BRANCH  30  32
ATOM     31  C   UNL     1       7.765   6.204  18.696  0.00  0.00    +0.000 C 
ATOM     32  C   UNL     1       7.570   6.995  17.418  0.00  0.00    +0.000 C 
ENDBRANCH  30  32
ENDBRANCH  29  30
ENDBRANCH  28  29
ENDBRANCH  23  28
ENDBRANCH   1  25
TORSDOF 6
ENDMDL
MODEL 2
REMARK VINA RESULT:      -8.0      1.477      2.423
REMARK  Name = 
REMARK  7 active torsions:
REMARK  status: ('A' for Active; 'I' for Inactive)
REMARK    1  A    between atoms: C_1  and  C_2
REMARK    2  A    between atoms: C_2  and  O_3
REMARK    3  A    between atoms: O_3  and  C_4
REMARK    4  A    between atoms: C_4  and  C_5
REMARK    5  A    between atoms: C_5  and  N_6
REMARK    6  A    between atoms: C_8  and  C_9
REMARK    7  A    between atoms: C_16  and  N_17
REMARK                            x       y       z     vdW  Elec       q    Type
REMARK                         _______ _______ _______ _____ _____    ______ ____
ROOT
ATOM      1  C   UNL     1       2.583   7.322  18.663  0.00  0.00    +0.000 A 
ATOM      2  C   UNL     1       2.325   8.409  17.851  0.00  0.00    +0.000 A 
ATOM      3  C   UNL     1       1.564   9.459  18.367  0.00  0.00    +0.000 A 
ATOM      4  C   UNL     1       1.087   9.394  19.667  0.00  0.00    +0.000 A 
ATOM      5  N   UNL     1       0.223  10.326  20.211  0.00  0.00    +0.000 N 
ATOM      6  C   UNL     1       0.431  10.610  21.629  0.00  0.00    +0.000 C 
ATOM      7  C   UNL     1      -0.843  11.121  22.292  0.00  0.00    +0.000 C 
ATOM      8  C   UNL     1      -1.591  12.184  21.483  0.00  0.00    +0.000 C 
ATOM      9  C   UNL     1      -1.799  11.689  20.050  0.00  0.00    +0.000 C 
ATOM     10  C   UNL     1      -0.489  11.288  19.381  0.00  0.00    +0.000 C 
ATOM     11  N   UNL     1       1.432   8.335  20.433  0.00  0.00    +0.000 NA
ATOM     12  N   UNL     1       2.170   7.297  19.941  0.00  0.00    +0.000 NA
ENDROOT
BRANCH   8  13
ATOM     13  N   UNL     1      -0.966  13.508  21.517  0.00  0.00    +0.000 N 
ATOM     14  C   UNL     1      -0.082  14.046  20.479  0.00  0.00    +0.000 C 
ATOM     15  C   UNL     1       0.520  15.363  20.984  0.00  0.00    +0.000 C 
ATOM     16  C   UNL     1      -0.061  15.459  22.349  0.00  0.00    +0.000 A 
ATOM     17  C   UNL     1       0.170  16.465  23.277  0.00  0.00    +0.000 A 
ATOM     18  C   UNL     1      -0.469  16.372  24.506  0.00  0.00    +0.000 A 
ATOM     19  C   UNL     1      -1.312  15.285  24.769  0.00  0.00    +0.000 A 
ATOM     20  F   UNL     1      -1.922  15.213  25.958  0.00  0.00    +0.000 F 
ATOM     21  C   UNL     1      -1.532  14.275  23.825  0.00  0.00    +0.000 A 
ATOM     22  C   UNL     1      -0.901  14.364  22.598  0.00  0.00    +0.000 A 
ENDBRANCH   8  13
BRANCH   1  25
ATOM     23  N   UNL     1       4.672   4.781  17.210  0.00  0.00    +0.000 N 
ATOM     24  C   UNL     1       4.319   6.095  17.320  0.00  0.00    +0.000 A 
ATOM     25  C   UNL     1       3.285   6.141  18.224  0.00  0.00    +0.000 A 
ATOM     26  C   UNL     1       3.066   4.788  18.568  0.00  0.00    +0.000 A 
ATOM     27  N   UNL     1       3.920   3.961  17.963  0.00  0.00    +0.000 NA
BRANCH  23  28
ATOM     28  C   UNL     1       5.754   4.252  16.410  0.00  0.00    +0.000 C 
BRANCH  28  29
ATOM     29  C   UNL     1       7.087   4.860  16.811  0.00  0.00    +0.000 C 
BRANCH  29  30
ATOM     30  O   UNL     1       7.444   4.407  18.119  0.00  0.00    +0.000 OA
BRANCH  30  32
ATOM     31  C   UNL     1       7.834   6.754  18.201  0.00  0.00    +0.000 C 
ATOM     32  C   UNL     1       7.587   5.503  19.019  0.00  0.00    +0.000 C 
ENDBRANCH  30  32
ENDBRANCH  29  30
ENDBRANCH  28  29
ENDBRANCH  23  28
ENDBRANCH   1  25
TORSDOF 6
ENDMDL
MODEL 3
REMARK VINA RESULT:      -8.0      4.569     11.547
REMARK  Name = 
REMARK  7 active torsions:
REMARK  status: ('A' for Active; 'I' for Inactive)
REMARK    1  A    between atoms: C_1  and  C_2
REMARK    2  A    between atoms: C_2  and  O_3
REMARK    3  A    between atoms: O_3  and  C_4
REMARK    4  A    between atoms: C_4  and  C_5
REMARK    5  A    between atoms: C_5  and  N_6
REMARK    6  A    between atoms: C_8  and  C_9
REMARK    7  A    between atoms: C_16  and  N_17
REMARK                            x       y       z     vdW  Elec       q    Type
REMARK                         _______ _______ _______ _____ _____    ______ ____
ROOT
ATOM      1  C   UNL     1      -0.063  10.623  21.821  0.00  0.00    +0.000 A 
ATOM      2  C   UNL     1       0.544   9.633  22.567  0.00  0.00    +0.000 A 
ATOM      3  C   UNL     1       1.175   8.585  21.896  0.00  0.00    +0.000 A 
ATOM      4  C   UNL     1       1.179   8.556  20.509  0.00  0.00    +0.000 A 
ATOM      5  N   UNL     1       1.666   7.493  19.769  0.00  0.00    +0.000 N 
ATOM      6  C   UNL     1       2.325   7.861  18.519  0.00  0.00    +0.000 C 
ATOM      7  C   UNL     1       2.284   6.722  17.506  0.00  0.00    +0.000 C 
ATOM      8  C   UNL     1       2.633   5.349  18.087  0.00  0.00    +0.000 C 
ATOM      9  C   UNL     1       1.792   5.092  19.340  0.00  0.00    +0.000 C 
ATOM     10  C   UNL     1       1.942   6.199  20.376  0.00  0.00    +0.000 C 
ATOM     11  N   UNL     1       0.627   9.590  19.836  0.00  0.00    +0.000 NA
ATOM     12  N   UNL     1       0.001  10.619  20.479  0.00  0.00    +0.000 NA
ENDROOT
BRANCH   8  13
ATOM     13  N   UNL     1       4.062   5.156  18.342  0.00  0.00    +0.000 N 
ATOM     14  C   UNL     1       4.746   5.498  19.593  0.00  0.00    +0.000 C 
ATOM     15  C   UNL     1       6.256   5.337  19.384  0.00  0.00    +0.000 C 
ATOM     16  C   UNL     1       6.324   4.935  17.954  0.00  0.00    +0.000 A 
ATOM     17  C   UNL     1       7.475   4.675  17.222  0.00  0.00    +0.000 A 
ATOM     18  C   UNL     1       7.327   4.315  15.888  0.00  0.00    +0.000 A 
ATOM     19  C   UNL     1       6.045   4.229  15.332  0.00  0.00    +0.000 A 
ATOM     20  F   UNL     1       5.921   3.878  14.046  0.00  0.00    +0.000 F 
ATOM     21  C   UNL     1       4.894   4.499  16.081  0.00  0.00    +0.000 A 
ATOM     22  C   UNL     1       5.035   4.854  17.410  0.00  0.00    +0.000 A 
ENDBRANCH   8  13
BRANCH   1  25
ATOM     23  N   UNL     1      -2.305  12.882  23.496  0.00  0.00    +0.000 N 
ATOM     24  C   UNL     1      -1.934  11.605  23.185  0.00  0.00    +0.000 A 
ATOM     25  C   UNL     1      -0.815  11.713  22.393  0.00  0.00    +0.000 A 
ATOM     26  C   UNL     1      -0.622  13.106  22.254  0.00  0.00    +0.000 A 
ATOM     27  N   UNL     1      -1.519  13.818  22.938  0.00  0.00    +0.000 NA
BRANCH  23  28
ATOM     28  C   UNL     1      -3.402  13.266  24.355  0.00  0.00    +0.000 C 
BRANCH  28  29
ATOM     29  C   UNL     1      -4.651  13.583  23.550  0.00  0.00    +0.000 C 
BRANCH  29  30
ATOM     30  O   UNL     1      -5.559  12.480  23.625  0.00  0.00    +0.000 OA
BRANCH  30  32
ATOM     31  C   UNL     1      -7.851  12.027  23.167  0.00  0.00    +0.000 C 
ATOM     32  C   UNL     1      -6.883  12.926  23.909  0.00  0.00    +0.000 C 
ENDBRANCH  30  32
ENDBRANCH  29  30
ENDBRANCH  28  29
ENDBRANCH  23  28
ENDBRANCH   1  25
TORSDOF 6
ENDMDL
MODEL 4
REMARK VINA RESULT:      -7.8      0.922      1.479
REMARK  Name = 
REMARK  7 active torsions:
REMARK  status: ('A' for Active; 'I' for Inactive)
REMARK    1  A    between atoms: C_1  and  C_2
REMARK    2  A    between atoms: C_2  and  O_3
REMARK    3  A    between atoms: O_3  and  C_4
REMARK    4  A    between atoms: C_4  and  C_5
REMARK    5  A    between atoms: C_5  and  N_6
REMARK    6  A    between atoms: C_8  and  C_9
REMARK    7  A    between atoms: C_16  and  N_17
REMARK                            x       y       z     vdW  Elec       q    Type
REMARK                         _______ _______ _______ _____ _____    ______ ____
ROOT
ATOM      1  C   UNL     1       2.475   7.179  19.264  0.00  0.00    +0.000 A 
ATOM      2  C   UNL     1       1.862   7.289  20.496  0.00  0.00    +0.000 A 
ATOM      3  C   UNL     1       1.052   8.399  20.742  0.00  0.00    +0.000 A 
ATOM      4  C   UNL     1       0.881   9.360  19.757  0.00  0.00    +0.000 A 
ATOM      5  N   UNL     1       0.205  10.549  19.960  0.00  0.00    +0.000 N 
ATOM      6  C   UNL     1      -0.557  11.032  18.811  0.00  0.00    +0.000 C 
ATOM      7  C   UNL     1      -0.751  12.543  18.861  0.00  0.00    +0.000 C 
ATOM      8  C   UNL     1      -1.167  13.080  20.233  0.00  0.00    +0.000 C 
ATOM      9  C   UNL     1      -0.215  12.545  21.305  0.00  0.00    +0.000 C 
ATOM     10  C   UNL     1      -0.129  11.023  21.296  0.00  0.00    +0.000 C 
ATOM     11  N   UNL     1       1.453   9.161  18.549  0.00  0.00    +0.000 NA
ATOM     12  N   UNL     1       2.252   8.083  18.296  0.00  0.00    +0.000 NA
ENDROOT
BRANCH   8  13
ATOM     13  N   UNL     1      -2.569  12.823  20.573  0.00  0.00    +0.000 N 
ATOM     14  C   UNL     1      -3.602  12.409  19.619  0.00  0.00    +0.000 C 
ATOM     15  C   UNL     1      -4.963  12.446  20.325  0.00  0.00    +0.000 C 
ATOM     16  C   UNL     1      -4.590  12.939  21.678  0.00  0.00    +0.000 A 
ATOM     17  C   UNL     1      -5.454  13.184  22.736  0.00  0.00    +0.000 A 
ATOM     18  C   UNL     1      -4.907  13.648  23.926  0.00  0.00    +0.000 A 
ATOM     19  C   UNL     1      -3.525  13.853  24.019  0.00  0.00    +0.000 A 
ATOM     20  F   UNL     1      -3.015  14.298  25.174  0.00  0.00    +0.000 F 
ATOM     21  C   UNL     1      -2.666  13.607  22.942  0.00  0.00    +0.000 A 
ATOM     22  C   UNL     1      -3.205  13.141  21.757  0.00  0.00    +0.000 A 
ENDBRANCH   8  13
BRANCH   1  25
ATOM     23  N   UNL     1       5.104   5.014  18.111  0.00  0.00    +0.000 N 
ATOM     24  C   UNL     1       4.557   6.262  18.193  0.00  0.00    +0.000 A 
ATOM     25  C   UNL     1       3.396   6.125  18.917  0.00  0.00    +0.000 A 
ATOM     26  C   UNL     1       3.318   4.740  19.187  0.00  0.00    +0.000 A 
ATOM     27  N   UNL     1       4.364   4.065  18.710  0.00  0.00    +0.000 NA
BRANCH  23  28
ATOM     28  C   UNL     1       6.362   4.673  17.486  0.00  0.00    +0.000 C 
BRANCH  28  29
ATOM     29  C   UNL     1       6.932   5.850  16.713  0.00  0.00    +0.000 C 
BRANCH  29  30
ATOM     30  O   UNL     1       6.865   5.577  15.310  0.00  0.00    +0.000 OA
BRANCH  30  32
ATOM     31  C   UNL     1       5.989   3.991  13.766  0.00  0.00    +0.000 C 
ATOM     32  C   UNL     1       6.744   4.178  15.067  0.00  0.00    +0.000 C 
ENDBRANCH  30  32
ENDBRANCH  29  30
ENDBRANCH  28  29
ENDBRANCH  23  28
ENDBRANCH   1  25
TORSDOF 6
ENDMDL
MODEL 5
REMARK VINA RESULT:      -7.6      1.209      1.832
REMARK  Name = 
REMARK  7 active torsions:
REMARK  status: ('A' for Active; 'I' for Inactive)
REMARK    1  A    between atoms: C_1  and  C_2
REMARK    2  A    between atoms: C_2  and  O_3
REMARK    3  A    between atoms: O_3  and  C_4
REMARK    4  A    between atoms: C_4  and  C_5
REMARK    5  A    between atoms: C_5  and  N_6
REMARK    6  A    between atoms: C_8  and  C_9
REMARK    7  A    between atoms: C_16  and  N_17
REMARK                            x       y       z     vdW  Elec       q    Type
REMARK                         _______ _______ _______ _____ _____    ______ ____
ROOT
ATOM      1  C   UNL     1       2.466   7.752  18.403  0.00  0.00    +0.000 A 
ATOM      2  C   UNL     1       2.006   7.732  19.705  0.00  0.00    +0.000 A 
ATOM      3  C   UNL     1       1.232   8.802  20.155  0.00  0.00    +0.000 A 
ATOM      4  C   UNL     1       0.944   9.854  19.299  0.00  0.00    +0.000 A 
ATOM      5  N   UNL     1       0.297  11.009  19.700  0.00  0.00    +0.000 N 
ATOM      6  C   UNL     1      -0.598  11.594  18.705  0.00  0.00    +0.000 C 
ATOM      7  C   UNL     1      -0.785  13.091  18.929  0.00  0.00    +0.000 C 
ATOM      8  C   UNL     1      -1.033  13.483  20.388  0.00  0.00    +0.000 C 
ATOM      9  C   UNL     1       0.042  12.857  21.279  0.00  0.00    +0.000 C 
ATOM     10  C   UNL     1       0.127  11.344  21.107  0.00  0.00    +0.000 C 
ATOM     11  N   UNL     1       1.365   9.783  18.017  0.00  0.00    +0.000 NA
ATOM     12  N   UNL     1       2.128   8.745  17.563  0.00  0.00    +0.000 NA
ENDROOT
BRANCH   8  13
ATOM     13  N   UNL     1      -2.383  13.177  20.866  0.00  0.00    +0.000 N 
ATOM     14  C   UNL     1      -3.470  12.654  20.034  0.00  0.00    +0.000 C 
ATOM     15  C   UNL     1      -4.764  12.666  20.857  0.00  0.00    +0.000 C 
ATOM     16  C   UNL     1      -4.303  13.258  22.140  0.00  0.00    +0.000 A 
ATOM     17  C   UNL     1      -5.084  13.523  23.257  0.00  0.00    +0.000 A 
ATOM     18  C   UNL     1      -4.462  14.085  24.364  0.00  0.00    +0.000 A 
ATOM     19  C   UNL     1      -3.091  14.366  24.321  0.00  0.00    +0.000 A 
ATOM     20  F   UNL     1      -2.508  14.905  25.399  0.00  0.00    +0.000 F 
ATOM     21  C   UNL     1      -2.317  14.098  23.187  0.00  0.00    +0.000 A 
ATOM     22  C   UNL     1      -2.930  13.535  22.082  0.00  0.00    +0.000 A 
ENDBRANCH   8  13
BRANCH   1  25
ATOM     23  N   UNL     1       4.966   5.746  16.773  0.00  0.00    +0.000 N 
ATOM     24  C   UNL     1       4.455   6.976  17.075  0.00  0.00    +0.000 A 
ATOM     25  C   UNL     1       3.338   6.749  17.844  0.00  0.00    +0.000 A 
ATOM     26  C   UNL     1       3.243   5.341  17.909  0.00  0.00    +0.000 A 
ATOM     27  N   UNL     1       4.242   4.729  17.271  0.00  0.00    +0.000 NA
BRANCH  23  28
ATOM     28  C   UNL     1       6.175   5.485  16.025  0.00  0.00    +0.000 C 
BRANCH  28  29
ATOM     29  C   UNL     1       6.313   4.008  15.695  0.00  0.00    +0.000 C 
BRANCH  29  30
ATOM     30  O   UNL     1       6.699   3.860  14.326  0.00  0.00    +0.000 OA
BRANCH  30  32
ATOM     31  C   UNL     1       5.979   3.268  12.135  0.00  0.00    +0.000 C 
ATOM     32  C   UNL     1       5.559   3.848  13.471  0.00  0.00    +0.000 C 
ENDBRANCH  30  32
ENDBRANCH  29  30
ENDBRANCH  28  29
ENDBRANCH  23  28
ENDBRANCH   1  25
TORSDOF 6
ENDMDL
MODEL 6
REMARK VINA RESULT:      -7.6      1.991      2.706
REMARK  Name = 
REMARK  7 active torsions:
REMARK  status: ('A' for Active; 'I' for Inactive)
REMARK    1  A    between atoms: C_1  and  C_2
REMARK    2  A    between atoms: C_2  and  O_3
REMARK    3  A    between atoms: O_3  and  C_4
REMARK    4  A    between atoms: C_4  and  C_5
REMARK    5  A    between atoms: C_5  and  N_6
REMARK    6  A    between atoms: C_8  and  C_9
REMARK    7  A    between atoms: C_16  and  N_17
REMARK                            x       y       z     vdW  Elec       q    Type
REMARK                         _______ _______ _______ _____ _____    ______ ____
ROOT
ATOM      1  C   UNL     1       2.119   7.676  19.390  0.00  0.00    +0.000 A 
ATOM      2  C   UNL     1       1.480   7.703  20.614  0.00  0.00    +0.000 A 
ATOM      3  C   UNL     1       0.687   8.808  20.928  0.00  0.00    +0.000 A 
ATOM      4  C   UNL     1       0.557   9.846  20.017  0.00  0.00    +0.000 A 
ATOM      5  N   UNL     1      -0.100  11.029  20.298  0.00  0.00    +0.000 N 
ATOM      6  C   UNL     1      -0.826  11.615  19.174  0.00  0.00    +0.000 C 
ATOM      7  C   UNL     1      -0.993  13.122  19.337  0.00  0.00    +0.000 C 
ATOM      8  C   UNL     1      -1.430  13.559  20.738  0.00  0.00    +0.000 C 
ATOM      9  C   UNL     1      -0.513  12.924  21.785  0.00  0.00    +0.000 C 
ATOM     10  C   UNL     1      -0.456  11.405  21.659  0.00  0.00    +0.000 C 
ATOM     11  N   UNL     1       1.152   9.728  18.810  0.00  0.00    +0.000 NA
ATOM     12  N   UNL     1       1.936   8.656  18.491  0.00  0.00    +0.000 NA
ENDROOT
BRANCH   8  13
ATOM     13  N   UNL     1      -2.843  13.307  21.026  0.00  0.00    +0.000 N 
ATOM     14  C   UNL     1      -3.770  12.602  20.136  0.00  0.00    +0.000 C 
ATOM     15  C   UNL     1      -5.188  12.727  20.706  0.00  0.00    +0.000 C 
ATOM     16  C   UNL     1      -4.957  13.566  21.912  0.00  0.00    +0.000 A 
ATOM     17  C   UNL     1      -5.921  14.012  22.806  0.00  0.00    +0.000 A 
ATOM     18  C   UNL     1      -5.501  14.793  23.875  0.00  0.00    +0.000 A 
ATOM     19  C   UNL     1      -4.143  15.104  24.016  0.00  0.00    +0.000 A 
ATOM     20  F   UNL     1      -3.756  15.855  25.054  0.00  0.00    +0.000 F 
ATOM     21  C   UNL     1      -3.183  14.651  23.104  0.00  0.00    +0.000 A 
ATOM     22  C   UNL     1      -3.594  13.870  22.039  0.00  0.00    +0.000 A 
ENDBRANCH   8  13
BRANCH   1  25
ATOM     23  N   UNL     1       4.228   4.801  18.924  0.00  0.00    +0.000 N 
ATOM     24  C   UNL     1       3.332   5.494  19.687  0.00  0.00    +0.000 A 
ATOM     25  C   UNL     1       3.028   6.633  18.982  0.00  0.00    +0.000 A 
ATOM     26  C   UNL     1       3.830   6.547  17.821  0.00  0.00    +0.000 A 
ATOM     27  N   UNL     1       4.549   5.425  17.778  0.00  0.00    +0.000 NA
BRANCH  23  28
ATOM     28  C   UNL     1       4.794   3.508  19.236  0.00  0.00    +0.000 C 
BRANCH  28  29
ATOM     29  C   UNL     1       3.727   2.538  19.718  0.00  0.00    +0.000 C 
BRANCH  29  30
ATOM     30  O   UNL     1       3.409   1.620  18.668  0.00  0.00    +0.000 OA
BRANCH  30  32
ATOM     31  C   UNL     1       1.202   2.515  18.669  0.00  0.00    +0.000 C 
ATOM     32  C   UNL     1       2.399   2.151  17.813  0.00  0.00    +0.000 C 
ENDBRANCH  30  32
ENDBRANCH  29  30
ENDBRANCH  28  29
ENDBRANCH  23  28
ENDBRANCH   1  25
TORSDOF 6
ENDMDL
MODEL 7
REMARK VINA RESULT:      -7.6      1.788      2.655
REMARK  Name = 
REMARK  7 active torsions:
REMARK  status: ('A' for Active; 'I' for Inactive)
REMARK    1  A    between atoms: C_1  and  C_2
REMARK    2  A    between atoms: C_2  and  O_3
REMARK    3  A    between atoms: O_3  and  C_4
REMARK    4  A    between atoms: C_4  and  C_5
REMARK    5  A    between atoms: C_5  and  N_6
REMARK    6  A    between atoms: C_8  and  C_9
REMARK    7  A    between atoms: C_16  and  N_17
REMARK                            x       y       z     vdW  Elec       q    Type
REMARK                         _______ _______ _______ _____ _____    ______ ____
ROOT
ATOM      1  C   UNL     1       2.275   7.611  18.648  0.00  0.00    +0.000 A 
ATOM      2  C   UNL     1       1.994   7.757  19.992  0.00  0.00    +0.000 A 
ATOM      3  C   UNL     1       1.325   8.908  20.411  0.00  0.00    +0.000 A 
ATOM      4  C   UNL     1       0.959   9.871  19.483  0.00  0.00    +0.000 A 
ATOM      5  N   UNL     1       0.412  11.094  19.827  0.00  0.00    +0.000 N 
ATOM      6  C   UNL     1      -0.589  11.607  18.894  0.00  0.00    +0.000 C 
ATOM      7  C   UNL     1      -0.693  13.127  18.964  0.00  0.00    +0.000 C 
ATOM      8  C   UNL     1      -0.729  13.691  20.387  0.00  0.00    +0.000 C 
ATOM      9  C   UNL     1       0.434  13.115  21.198  0.00  0.00    +0.000 C 
ATOM     10  C   UNL     1       0.444  11.591  21.195  0.00  0.00    +0.000 C 
ATOM     11  N   UNL     1       1.202   9.637  18.174  0.00  0.00    +0.000 NA
ATOM     12  N   UNL     1       1.861   8.519  17.749  0.00  0.00    +0.000 NA
ENDROOT
BRANCH   8  13
ATOM     13  N   UNL     1      -2.011  13.507  21.069  0.00  0.00    +0.000 N 
ATOM     14  C   UNL     1      -3.256  13.087  20.418  0.00  0.00    +0.000 C 
ATOM     15  C   UNL     1      -4.403  13.213  21.428  0.00  0.00    +0.000 C 
ATOM     16  C   UNL     1      -3.700  13.756  22.620  0.00  0.00    +0.000 A 
ATOM     17  C   UNL     1      -4.274  14.087  23.840  0.00  0.00    +0.000 A 
ATOM     18  C   UNL     1      -3.442  14.587  24.834  0.00  0.00    +0.000 A 
ATOM     19  C   UNL     1      -2.074  14.743  24.579  0.00  0.00    +0.000 A 
ATOM     20  F   UNL     1      -1.288  15.223  25.550  0.00  0.00    +0.000 F 
ATOM     21  C   UNL     1      -1.510  14.410  23.343  0.00  0.00    +0.000 A 
ATOM     22  C   UNL     1      -2.332  13.908  22.351  0.00  0.00    +0.000 A 
ENDBRANCH   8  13
BRANCH   1  25
ATOM     23  N   UNL     1       3.742   4.500  17.597  0.00  0.00    +0.000 N 
ATOM     24  C   UNL     1       2.785   5.173  18.302  0.00  0.00    +0.000 A 
ATOM     25  C   UNL     1       3.030   6.510  18.101  0.00  0.00    +0.000 A 
ATOM     26  C   UNL     1       4.188   6.532  17.291  0.00  0.00    +0.000 A 
ATOM     27  N   UNL     1       4.613   5.309  16.971  0.00  0.00    +0.000 NA
BRANCH  23  28
ATOM     28  C   UNL     1       3.853   3.065  17.466  0.00  0.00    +0.000 C 
BRANCH  28  29
ATOM     29  C   UNL     1       2.515   2.382  17.695  0.00  0.00    +0.000 C 
BRANCH  29  30
ATOM     30  O   UNL     1       2.469   1.856  19.024  0.00  0.00    +0.000 OA
BRANCH  30  32
ATOM     31  C   UNL     1       1.663   2.820  21.046  0.00  0.00    +0.000 C 
ATOM     32  C   UNL     1       1.277   2.258  19.693  0.00  0.00    +0.000 C 
ENDBRANCH  30  32
ENDBRANCH  29  30
ENDBRANCH  28  29
ENDBRANCH  23  28
ENDBRANCH   1  25
TORSDOF 6
ENDMDL
MODEL 8
REMARK VINA RESULT:      -7.6      2.246      3.526
REMARK  Name = 
REMARK  7 active torsions:
REMARK  status: ('A' for Active; 'I' for Inactive)
REMARK    1  A    between atoms: C_1  and  C_2
REMARK    2  A    between atoms: C_2  and  O_3
REMARK    3  A    between atoms: O_3  and  C_4
REMARK    4  A    between atoms: C_4  and  C_5
REMARK    5  A    between atoms: C_5  and  N_6
REMARK    6  A    between atoms: C_8  and  C_9
REMARK    7  A    between atoms: C_16  and  N_17
REMARK                            x       y       z     vdW  Elec       q    Type
REMARK                         _______ _______ _______ _____ _____    ______ ____
ROOT
ATOM      1  C   UNL     1       2.279   7.906  18.643  0.00  0.00    +0.000 A 
ATOM      2  C   UNL     1       2.026   9.028  17.880  0.00  0.00    +0.000 A 
ATOM      3  C   UNL     1       1.274  10.061  18.442  0.00  0.00    +0.000 A 
ATOM      4  C   UNL     1       0.800   9.942  19.740  0.00  0.00    +0.000 A 
ATOM      5  N   UNL     1      -0.057  10.856  20.326  0.00  0.00    +0.000 N 
ATOM      6  C   UNL     1       0.158  11.077  21.754  0.00  0.00    +0.000 C 
ATOM      7  C   UNL     1      -1.111  11.568  22.443  0.00  0.00    +0.000 C 
ATOM      8  C   UNL     1      -1.855  12.670  21.683  0.00  0.00    +0.000 C 
ATOM      9  C   UNL     1      -2.069  12.238  20.230  0.00  0.00    +0.000 C 
ATOM     10  C   UNL     1      -0.764  11.858  19.540  0.00  0.00    +0.000 C 
ATOM     11  N   UNL     1       1.140   8.849  20.458  0.00  0.00    +0.000 NA
ATOM     12  N   UNL     1       1.870   7.828  19.920  0.00  0.00    +0.000 NA
ENDROOT
BRANCH   8  13
ATOM     13  N   UNL     1      -1.220  13.986  21.771  0.00  0.00    +0.000 N 
ATOM     14  C   UNL     1      -0.431  14.612  20.706  0.00  0.00    +0.000 C 
ATOM     15  C   UNL     1       0.223  15.882  21.264  0.00  0.00    +0.000 C 
ATOM     16  C   UNL     1      -0.231  15.861  22.680  0.00  0.00    +0.000 A 
ATOM     17  C   UNL     1       0.091  16.785  23.665  0.00  0.00    +0.000 A 
ATOM     18  C   UNL     1      -0.434  16.586  24.935  0.00  0.00    +0.000 A 
ATOM     19  C   UNL     1      -1.256  15.479  25.181  0.00  0.00    +0.000 A 
ATOM     20  F   UNL     1      -1.755  15.306  26.410  0.00  0.00    +0.000 F 
ATOM     21  C   UNL     1      -1.568  14.554  24.179  0.00  0.00    +0.000 A 
ATOM     22  C   UNL     1      -1.051  14.748  22.911  0.00  0.00    +0.000 A 
ENDBRANCH   8  13
BRANCH   1  25
ATOM     23  N   UNL     1       3.543   4.672  17.707  0.00  0.00    +0.000 N 
ATOM     24  C   UNL     1       2.605   5.430  18.347  0.00  0.00    +0.000 A 
ATOM     25  C   UNL     1       2.972   6.740  18.151  0.00  0.00    +0.000 A 
ATOM     26  C   UNL     1       4.173   6.657  17.412  0.00  0.00    +0.000 A 
ATOM     27  N   UNL     1       4.514   5.399  17.127  0.00  0.00    +0.000 NA
BRANCH  23  28
ATOM     28  C   UNL     1       3.543   3.231  17.594  0.00  0.00    +0.000 C 
BRANCH  28  29
ATOM     29  C   UNL     1       3.530   2.569  18.961  0.00  0.00    +0.000 C 
BRANCH  29  30
ATOM     30  O   UNL     1       2.293   1.875  19.143  0.00  0.00    +0.000 OA
BRANCH  30  32
ATOM     31  C   UNL     1       2.283   2.804  21.336  0.00  0.00    +0.000 C 
ATOM     32  C   UNL     1       1.463   2.548  20.087  0.00  0.00    +0.000 C 
ENDBRANCH  30  32
ENDBRANCH  29  30
ENDBRANCH  28  29
ENDBRANCH  23  28
ENDBRANCH   1  25
TORSDOF 6
ENDMDL
MODEL 9
REMARK VINA RESULT:      -7.6      3.118      4.673
REMARK  Name = 
REMARK  7 active torsions:
REMARK  status: ('A' for Active; 'I' for Inactive)
REMARK    1  A    between atoms: C_1  and  C_2
REMARK    2  A    between atoms: C_2  and  O_3
REMARK    3  A    between atoms: O_3  and  C_4
REMARK    4  A    between atoms: C_4  and  C_5
REMARK    5  A    between atoms: C_5  and  N_6
REMARK    6  A    between atoms: C_8  and  C_9
REMARK    7  A    between atoms: C_16  and  N_17
REMARK                            x       y       z     vdW  Elec       q    Type
REMARK                         _______ _______ _______ _____ _____    ______ ____
ROOT
ATOM      1  C   UNL     1       2.411   7.507  18.397  0.00  0.00    +0.000 A 
ATOM      2  C   UNL     1       2.580   8.597  17.567  0.00  0.00    +0.000 A 
ATOM      3  C   UNL     1       2.059   9.828  17.968  0.00  0.00    +0.000 A 
ATOM      4  C   UNL     1       1.387   9.932  19.177  0.00  0.00    +0.000 A 
ATOM      5  N   UNL     1       0.730  11.078  19.589  0.00  0.00    +0.000 N 
ATOM      6  C   UNL     1       0.786  11.340  21.025  0.00  0.00    +0.000 C 
ATOM      7  C   UNL     1      -0.391  12.192  21.486  0.00  0.00    +0.000 C 
ATOM      8  C   UNL     1      -0.694  13.390  20.582  0.00  0.00    +0.000 C 
ATOM      9  C   UNL     1      -0.803  12.923  19.128  0.00  0.00    +0.000 C 
ATOM     10  C   UNL     1       0.438  12.167  18.668  0.00  0.00    +0.000 C 
ATOM     11  N   UNL     1       1.314   8.844  19.976  0.00  0.00    +0.000 NA
ATOM     12  N   UNL     1       1.815   7.632  19.594  0.00  0.00    +0.000 NA
ENDROOT
BRANCH   8  13
ATOM     13  N   UNL     1       0.250  14.500  20.727  0.00  0.00    +0.000 N 
ATOM     14  C   UNL     1       1.186  14.665  21.843  0.00  0.00    +0.000 C 
ATOM     15  C   UNL     1       1.844  16.046  21.728  0.00  0.00    +0.000 C 
ATOM     16  C   UNL     1       1.173  16.603  20.524  0.00  0.00    +0.000 A 
ATOM     17  C   UNL     1       1.378  17.860  19.970  0.00  0.00    +0.000 A 
ATOM     18  C   UNL     1       0.646  18.196  18.839  0.00  0.00    +0.000 A 
ATOM     19  C   UNL     1      -0.263  17.276  18.302  0.00  0.00    +0.000 A 
ATOM     20  F   UNL     1      -0.957  17.617  17.210  0.00  0.00    +0.000 F 
ATOM     21  C   UNL     1      -0.462  16.015  18.874  0.00  0.00    +0.000 A 
ATOM     22  C   UNL     1       0.266  15.672  19.998  0.00  0.00    +0.000 A 
ENDBRANCH   8  13
BRANCH   1  25
ATOM     23  N   UNL     1       2.886   3.996  17.780  0.00  0.00    +0.000 N 
ATOM     24  C   UNL     1       2.102   5.016  18.237  0.00  0.00    +0.000 A 
ATOM     25  C   UNL     1       2.830   6.168  18.061  0.00  0.00    +0.000 A 
ATOM     26  C   UNL     1       4.060   5.722  17.526  0.00  0.00    +0.000 A 
ATOM     27  N   UNL     1       4.089   4.402  17.340  0.00  0.00    +0.000 NA
BRANCH  23  28
ATOM     28  C   UNL     1       2.517   2.600  17.715  0.00  0.00    +0.000 C 
BRANCH  28  29
ATOM     29  C   UNL     1       2.129   2.066  19.084  0.00  0.00    +0.000 C 
BRANCH  29  30
ATOM     30  O   UNL     1       3.192   2.308  20.009  0.00  0.00    +0.000 OA
BRANCH  30  32
ATOM     31  C   UNL     1       1.218   2.968  21.164  0.00  0.00    +0.000 C 
ATOM     32  C   UNL     1       2.684   2.608  21.306  0.00  0.00    +0.000 C 
ENDBRANCH  30  32
ENDBRANCH  29  30
ENDBRANCH  28  29
ENDBRANCH  23  28
ENDBRANCH   1  25
TORSDOF 6
ENDMDL
