MODEL 1
REMARK VINA RESULT:      -7.6      0.000      0.000
REMARK  Name = 
REMARK  6 active torsions:
REMARK  status: ('A' for Active; 'I' for Inactive)
REMARK    1  A    between atoms: C_1  and  O_2
REMARK    2  A    between atoms: O_2  and  C_3
REMARK    3  A    between atoms: N_10  and  C_11
REMARK    4  A    between atoms: C_21  and  C_22
REMARK    5  A    between atoms: C_22  and  N_23
REMARK    6  A    between atoms: C_26  and  C_27
REMARK                            x       y       z     vdW  Elec       q    Type
REMARK                         _______ _______ _______ _____ _____    ______ ____
ROOT
ATOM      1  C   UNL     1       0.634   9.355  21.043  0.00  0.00    +0.000 A 
ATOM      2  C   UNL     1       0.741   8.009  21.405  0.00  0.00    +0.000 A 
ATOM      3  C   UNL     1       1.441   7.067  20.612  0.00  0.00    +0.000 A 
ATOM      4  N   UNL     1       1.577   5.788  20.993  0.00  0.00    +0.000 NA
ATOM      5  C   UNL     1       2.315   4.981  20.206  0.00  0.00    +0.000 A 
ATOM      6  N   UNL     1       2.969   5.330  19.093  0.00  0.00    +0.000 NA
ATOM      7  C   UNL     1       2.838   6.601  18.697  0.00  0.00    +0.000 A 
ATOM      8  N   UNL     1       3.621   7.076  17.601  0.00  0.00    +0.000 N 
ATOM      9  C   UNL     1       2.027   7.504  19.411  0.00  0.00    +0.000 A 
ATOM     10  C   UNL     1       1.823   8.819  19.003  0.00  0.00    +0.000 A 
ATOM     11  C   UNL     1       1.211   9.763  19.827  0.00  0.00    +0.000 A 
ATOM     12  H   UNL     1       3.060   7.597  16.939  0.00  0.00    +0.000 HD
ENDROOT
BRANCH   8  13
ATOM     13  C   UNL     1       4.756   6.474  17.017  0.00  0.00    +0.000 A 
ATOM     14  C   UNL     1       6.037   6.713  17.548  0.00  0.00    +0.000 A 
ATOM     15  C   UNL     1       7.177   6.161  16.950  0.00  0.00    +0.000 A 
ATOM     16  C   UNL     1       7.042   5.344  15.833  0.00  0.00    +0.000 A 
ATOM     17  F   UNL     1       8.148   4.852  15.254  0.00  0.00    +0.000 F 
ATOM     18  C   UNL     1       5.782   5.045  15.331  0.00  0.00    +0.000 A 
ATOM     19 CL   UNL     1       5.599   4.013  13.964  0.00  0.00    +0.000 Cl
ATOM     20  C   UNL     1       4.646   5.592  15.933  0.00  0.00    +0.000 A 
ENDBRANCH   8  13
BRANCH   1  22
ATOM     21  C   UNL     1      -0.604  10.283  22.966  0.00  0.00    +0.000 C 
ATOM     22  O   UNL     1      -0.005  10.365  21.688  0.00  0.00    +0.000 OA
ENDBRANCH   1  22
BRANCH  11  23
ATOM     23  C   UNL     1       1.219  11.204  19.361  0.00  0.00    +0.000 C 
BRANCH  23  24
ATOM     24  N   UNL     1       0.082  11.577  18.494  0.00  0.00    +0.000 NA
ATOM     25  C   UNL     1      -0.666  12.677  19.100  0.00  0.00    +0.000 C 
ATOM     26  C   UNL     1      -2.120  12.272  19.217  0.00  0.00    +0.000 C 
ATOM     27  C   UNL     1      -2.259  10.915  18.563  0.00  0.00    +0.000 C 
ATOM     28  C   UNL     1      -0.860  10.512  18.120  0.00  0.00    +0.000 C 
BRANCH  27  29
ATOM     29  C   UNL     1      -3.388  10.899  17.541  0.00  0.00    +0.000 C 
ATOM     30  N   UNL     1      -3.192  11.466  16.327  0.00  0.00    +0.000 N 
ATOM     31  O   UNL     1      -4.509  10.495  17.839  0.00  0.00    +0.000 OA
ATOM     32  H   UNL     1      -2.283  11.695  15.956  0.00  0.00    +0.000 HD
ATOM     33  H   UNL     1      -3.970  11.427  15.675  0.00  0.00    +0.000 HD
ENDBRANCH  27  29
ENDBRANCH  23  24
ENDBRANCH  11  23
TORSDOF 5
ENDMDL
MODEL 2
REMARK VINA RESULT:      -7.3      1.136      1.384
REMARK  Name = 
REMARK  6 active torsions:
REMARK  status: ('A' for Active; 'I' for Inactive)
REMARK    1  A    between atoms: C_1  and  O_2
REMARK    2  A    between atoms: O_2  and  C_3
REMARK    3  A    between atoms: N_10  and  C_11
REMARK    4  A    between atoms: C_21  and  C_22
REMARK    5  A    between atoms: C_22  and  N_23
REMARK    6  A    between atoms: C_26  and  C_27
REMARK                            x       y       z     vdW  Elec       q    Type
REMARK                         _______ _______ _______ _____ _____    ______ ____
ROOT
ATOM      1  C   UNL     1       0.577   9.794  21.002  0.00  0.00    +0.000 A 
ATOM      2  C   UNL     1       0.649   8.465  21.435  0.00  0.00    +0.000 A 
ATOM      3  C   UNL     1       1.322   7.465  20.692  0.00  0.00    +0.000 A 
ATOM      4  N   UNL     1       1.425   6.205  21.140  0.00  0.00    +0.000 NA
ATOM      5  C   UNL     1       2.138   5.338  20.397  0.00  0.00    +0.000 A 
ATOM      6  N   UNL     1       2.798   5.609  19.265  0.00  0.00    +0.000 NA
ATOM      7  C   UNL     1       2.700   6.860  18.802  0.00  0.00    +0.000 A 
ATOM      8  N   UNL     1       3.493   7.256  17.681  0.00  0.00    +0.000 N 
ATOM      9  C   UNL     1       1.916   7.822  19.469  0.00  0.00    +0.000 A 
ATOM     10  C   UNL     1       1.745   9.118  18.992  0.00  0.00    +0.000 A 
ATOM     11  C   UNL     1       1.162  10.121  19.766  0.00  0.00    +0.000 A 
ATOM     12  H   UNL     1       2.944   7.756  16.994  0.00  0.00    +0.000 HD
ENDROOT
BRANCH   8  13
ATOM     13  C   UNL     1       4.610   6.593  17.129  0.00  0.00    +0.000 A 
ATOM     14  C   UNL     1       4.689   6.376  15.741  0.00  0.00    +0.000 A 
ATOM     15  C   UNL     1       5.767   5.677  15.184  0.00  0.00    +0.000 A 
ATOM     16  C   UNL     1       6.787   5.213  16.008  0.00  0.00    +0.000 A 
ATOM     17  F   UNL     1       7.794   4.516  15.461  0.00  0.00    +0.000 F 
ATOM     18  C   UNL     1       6.758   5.471  17.373  0.00  0.00    +0.000 A 
ATOM     19 CL   UNL     1       8.027   4.924  18.401  0.00  0.00    +0.000 Cl
ATOM     20  C   UNL     1       5.685   6.173  17.924  0.00  0.00    +0.000 A 
ENDBRANCH   8  13
BRANCH   1  22
ATOM     21  C   UNL     1      -0.817  10.806  22.768  0.00  0.00    +0.000 C 
ATOM     22  O   UNL     1      -0.033  10.853  21.594  0.00  0.00    +0.000 OA
ENDBRANCH   1  22
BRANCH  11  23
ATOM     23  C   UNL     1       1.206  11.534  19.224  0.00  0.00    +0.000 C 
BRANCH  23  24
ATOM     24  N   UNL     1      -0.005  11.949  18.485  0.00  0.00    +0.000 NA
ATOM     25  C   UNL     1      -0.733  12.958  19.252  0.00  0.00    +0.000 C 
ATOM     26  C   UNL     1      -2.162  12.494  19.437  0.00  0.00    +0.000 C 
ATOM     27  C   UNL     1      -2.315  11.202  18.664  0.00  0.00    +0.000 C 
ATOM     28  C   UNL     1      -0.944  10.893  18.079  0.00  0.00    +0.000 C 
BRANCH  27  29
ATOM     29  C   UNL     1      -3.519  11.246  17.733  0.00  0.00    +0.000 C 
ATOM     30  N   UNL     1      -4.467  12.195  17.918  0.00  0.00    +0.000 N 
ATOM     31  O   UNL     1      -3.710  10.363  16.899  0.00  0.00    +0.000 OA
ATOM     32  H   UNL     1      -4.328  13.023  18.477  0.00  0.00    +0.000 HD
ATOM     33  H   UNL     1      -5.249  12.190  17.270  0.00  0.00    +0.000 HD
ENDBRANCH  27  29
ENDBRANCH  23  24
ENDBRANCH  11  23
TORSDOF 5
ENDMDL
MODEL 3
REMARK VINA RESULT:      -7.2      2.239      3.344
REMARK  Name = 
REMARK  6 active torsions:
REMARK  status: ('A' for Active; 'I' for Inactive)
REMARK    1  A    between atoms: C_1  and  O_2
REMARK    2  A    between atoms: O_2  and  C_3
REMARK    3  A    between atoms: N_10  and  C_11
REMARK    4  A    between atoms: C_21  and  C_22
REMARK    5  A    between atoms: C_22  and  N_23
REMARK    6  A    between atoms: C_26  and  C_27
REMARK                            x       y       z     vdW  Elec       q    Type
REMARK                         _______ _______ _______ _____ _____    ______ ____
ROOT
ATOM      1  C   UNL     1       0.470   9.459  20.765  0.00  0.00    +0.000 A 
ATOM      2  C   UNL     1       0.702   8.183  21.289  0.00  0.00    +0.000 A 
ATOM      3  C   UNL     1       1.464   7.210  20.596  0.00  0.00    +0.000 A 
ATOM      4  N   UNL     1       1.720   6.006  21.129  0.00  0.00    +0.000 NA
ATOM      5  C   UNL     1       2.507   5.171  20.425  0.00  0.00    +0.000 A 
ATOM      6  N   UNL     1       3.102   5.428  19.255  0.00  0.00    +0.000 NA
ATOM      7  C   UNL     1       2.851   6.623  18.708  0.00  0.00    +0.000 A 
ATOM      8  N   UNL     1       3.565   7.020  17.535  0.00  0.00    +0.000 N 
ATOM      9  C   UNL     1       1.982   7.539  19.331  0.00  0.00    +0.000 A 
ATOM     10  C   UNL     1       1.653   8.769  18.769  0.00  0.00    +0.000 A 
ATOM     11  C   UNL     1       0.981   9.756  19.490  0.00  0.00    +0.000 A 
ATOM     12  H   UNL     1       2.945   7.403  16.833  0.00  0.00    +0.000 HD
ENDROOT
BRANCH   8  13
ATOM     13  C   UNL     1       4.735   6.445  16.993  0.00  0.00    +0.000 A 
ATOM     14  C   UNL     1       5.997   6.794  17.505  0.00  0.00    +0.000 A 
ATOM     15  C   UNL     1       7.169   6.270  16.945  0.00  0.00    +0.000 A 
ATOM     16  C   UNL     1       7.086   5.371  15.888  0.00  0.00    +0.000 A 
ATOM     17  F   UNL     1       8.219   4.906  15.343  0.00  0.00    +0.000 F 
ATOM     18  C   UNL     1       5.846   4.965  15.409  0.00  0.00    +0.000 A 
ATOM     19 CL   UNL     1       5.727   3.833  14.116  0.00  0.00    +0.000 Cl
ATOM     20  C   UNL     1       4.679   5.485  15.972  0.00  0.00    +0.000 A 
ENDBRANCH   8  13
BRANCH   1  22
ATOM     21  C   UNL     1      -0.510  10.677  22.675  0.00  0.00    +0.000 C 
ATOM     22  O   UNL     1      -0.240  10.486  21.301  0.00  0.00    +0.000 OA
ENDBRANCH   1  22
BRANCH  11  23
ATOM     23  C   UNL     1       0.852  11.121  18.847  0.00  0.00    +0.000 C 
BRANCH  23  24
ATOM     24  N   UNL     1       1.913  12.080  19.219  0.00  0.00    +0.000 NA
ATOM     25  C   UNL     1       1.338  13.187  19.982  0.00  0.00    +0.000 C 
ATOM     26  C   UNL     1       1.716  14.490  19.310  0.00  0.00    +0.000 C 
ATOM     27  C   UNL     1       2.635  14.148  18.158  0.00  0.00    +0.000 C 
ATOM     28  C   UNL     1       2.737  12.630  18.133  0.00  0.00    +0.000 C 
BRANCH  27  29
ATOM     29  C   UNL     1       3.915  14.971  18.200  0.00  0.00    +0.000 C 
ATOM     30  N   UNL     1       5.070  14.428  17.747  0.00  0.00    +0.000 N 
ATOM     31  O   UNL     1       3.947  16.069  18.751  0.00  0.00    +0.000 OA
ATOM     32  H   UNL     1       5.110  13.604  17.167  0.00  0.00    +0.000 HD
ATOM     33  H   UNL     1       5.897  15.015  17.789  0.00  0.00    +0.000 HD
ENDBRANCH  27  29
ENDBRANCH  23  24
ENDBRANCH  11  23
TORSDOF 5
ENDMDL
MODEL 4
REMARK VINA RESULT:      -7.1      2.665      3.767
REMARK  Name = 
REMARK  6 active torsions:
REMARK  status: ('A' for Active; 'I' for Inactive)
REMARK    1  A    between atoms: C_1  and  O_2
REMARK    2  A    between atoms: O_2  and  C_3
REMARK    3  A    between atoms: N_10  and  C_11
REMARK    4  A    between atoms: C_21  and  C_22
REMARK    5  A    between atoms: C_22  and  N_23
REMARK    6  A    between atoms: C_26  and  C_27
REMARK                            x       y       z     vdW  Elec       q    Type
REMARK                         _______ _______ _______ _____ _____    ______ ____
ROOT
ATOM      1  C   UNL     1       0.366   9.936  20.805  0.00  0.00    +0.000 A 
ATOM      2  C   UNL     1       0.498   8.645  21.326  0.00  0.00    +0.000 A 
ATOM      3  C   UNL     1       1.218   7.629  20.652  0.00  0.00    +0.000 A 
ATOM      4  N   UNL     1       1.378   6.408  21.184  0.00  0.00    +0.000 NA
ATOM      5  C   UNL     1       2.133   5.526  20.500  0.00  0.00    +0.000 A 
ATOM      6  N   UNL     1       2.782   5.751  19.352  0.00  0.00    +0.000 NA
ATOM      7  C   UNL     1       2.627   6.963  18.806  0.00  0.00    +0.000 A 
ATOM      8  N   UNL     1       3.404   7.318  17.661  0.00  0.00    +0.000 N 
ATOM      9  C   UNL     1       1.799   7.930  19.407  0.00  0.00    +0.000 A 
ATOM     10  C   UNL     1       1.569   9.181  18.844  0.00  0.00    +0.000 A 
ATOM     11  C   UNL     1       0.938  10.206  19.549  0.00  0.00    +0.000 A 
ATOM     12  H   UNL     1       2.835   7.745  16.942  0.00  0.00    +0.000 HD
ENDROOT
BRANCH   8  13
ATOM     13  C   UNL     1       4.552   6.672  17.154  0.00  0.00    +0.000 A 
ATOM     14  C   UNL     1       4.671   6.419  15.775  0.00  0.00    +0.000 A 
ATOM     15  C   UNL     1       5.781   5.735  15.264  0.00  0.00    +0.000 A 
ATOM     16  C   UNL     1       6.793   5.323  16.124  0.00  0.00    +0.000 A 
ATOM     17  F   UNL     1       7.831   4.639  15.621  0.00  0.00    +0.000 F 
ATOM     18  C   UNL     1       6.724   5.617  17.480  0.00  0.00    +0.000 A 
ATOM     19 CL   UNL     1       7.982   5.135  18.553  0.00  0.00    +0.000 Cl
ATOM     20  C   UNL     1       5.619   6.305  17.986  0.00  0.00    +0.000 A 
ENDBRANCH   8  13
BRANCH   1  22
ATOM     21  C   UNL     1      -0.739  11.132  22.659  0.00  0.00    +0.000 C 
ATOM     22  O   UNL     1      -0.294  11.004  21.324  0.00  0.00    +0.000 OA
ENDBRANCH   1  22
BRANCH  11  23
ATOM     23  C   UNL     1       0.919  11.580  18.913  0.00  0.00    +0.000 C 
BRANCH  23  24
ATOM     24  N   UNL     1       2.142  12.379  19.135  0.00  0.00    +0.000 NA
ATOM     25  C   UNL     1       1.875  13.437  20.108  0.00  0.00    +0.000 C 
ATOM     26  C   UNL     1       2.261  14.768  19.500  0.00  0.00    +0.000 C 
ATOM     27  C   UNL     1       2.875  14.480  18.147  0.00  0.00    +0.000 C 
ATOM     28  C   UNL     1       2.785  12.973  17.954  0.00  0.00    +0.000 C 
BRANCH  27  29
ATOM     29  C   UNL     1       4.226  15.163  17.989  0.00  0.00    +0.000 C 
ATOM     30  N   UNL     1       5.320  14.415  17.707  0.00  0.00    +0.000 N 
ATOM     31  O   UNL     1       4.365  16.359  18.233  0.00  0.00    +0.000 OA
ATOM     32  H   UNL     1       5.276  13.469  17.363  0.00  0.00    +0.000 HD
ATOM     33  H   UNL     1       6.198  14.914  17.604  0.00  0.00    +0.000 HD
ENDBRANCH  27  29
ENDBRANCH  23  24
ENDBRANCH  11  23
TORSDOF 5
ENDMDL
MODEL 5
REMARK VINA RESULT:      -7.0      4.606      8.289
REMARK  Name = 
REMARK  6 active torsions:
REMARK  status: ('A' for Active; 'I' for Inactive)
REMARK    1  A    between atoms: C_1  and  O_2
REMARK    2  A    between atoms: O_2  and  C_3
REMARK    3  A    between atoms: N_10  and  C_11
REMARK    4  A    between atoms: C_21  and  C_22
REMARK    5  A    between atoms: C_22  and  N_23
REMARK    6  A    between atoms: C_26  and  C_27
REMARK                            x       y       z     vdW  Elec       q    Type
REMARK                         _______ _______ _______ _____ _____    ______ ____
ROOT
ATOM      1  C   UNL     1       3.392   3.870  18.338  0.00  0.00    +0.000 A 
ATOM      2  C   UNL     1       2.649   4.068  19.506  0.00  0.00    +0.000 A 
ATOM      3  C   UNL     1       2.207   5.351  19.912  0.00  0.00    +0.000 A 
ATOM      4  N   UNL     1       1.455   5.522  21.009  0.00  0.00    +0.000 NA
ATOM      5  C   UNL     1       1.028   6.770  21.280  0.00  0.00    +0.000 A 
ATOM      6  N   UNL     1       1.241   7.866  20.543  0.00  0.00    +0.000 NA
ATOM      7  C   UNL     1       1.995   7.712  19.448  0.00  0.00    +0.000 A 
ATOM      8  N   UNL     1       2.143   8.806  18.541  0.00  0.00    +0.000 N 
ATOM      9  C   UNL     1       2.550   6.461  19.119  0.00  0.00    +0.000 A 
ATOM     10  C   UNL     1       3.382   6.270  18.020  0.00  0.00    +0.000 A 
ATOM     11  C   UNL     1       3.740   4.998  17.574  0.00  0.00    +0.000 A 
ATOM     12  H   UNL     1       3.110   8.943  18.277  0.00  0.00    +0.000 HD
ENDROOT
BRANCH   8  13
ATOM     13  C   UNL     1       1.372   9.986  18.469  0.00  0.00    +0.000 A 
ATOM     14  C   UNL     1       1.995  11.245  18.549  0.00  0.00    +0.000 A 
ATOM     15  C   UNL     1       1.239  12.423  18.528  0.00  0.00    +0.000 A 
ATOM     16  C   UNL     1      -0.144  12.352  18.399  0.00  0.00    +0.000 A 
ATOM     17  F   UNL     1      -0.855  13.490  18.415  0.00  0.00    +0.000 F 
ATOM     18  C   UNL     1      -0.773  11.122  18.256  0.00  0.00    +0.000 A 
ATOM     19 CL   UNL     1      -2.482  11.021  18.070  0.00  0.00    +0.000 Cl
ATOM     20  C   UNL     1      -0.015   9.949  18.271  0.00  0.00    +0.000 A 
ENDBRANCH   8  13
BRANCH   1  22
ATOM     21  C   UNL     1       3.724   1.425  18.382  0.00  0.00    +0.000 C 
ATOM     22  O   UNL     1       3.890   2.714  17.827  0.00  0.00    +0.000 OA
ENDBRANCH   1  22
BRANCH  11  23
ATOM     23  C   UNL     1       4.484   4.905  16.258  0.00  0.00    +0.000 C 
BRANCH  23  24
ATOM     24  N   UNL     1       5.796   5.585  16.242  0.00  0.00    +0.000 NA
ATOM     25  C   UNL     1       6.818   4.707  16.810  0.00  0.00    +0.000 C 
ATOM     26  C   UNL     1       7.519   5.439  17.934  0.00  0.00    +0.000 C 
ATOM     27  C   UNL     1       6.959   6.844  17.971  0.00  0.00    +0.000 C 
ATOM     28  C   UNL     1       5.884   6.899  16.896  0.00  0.00    +0.000 C 
BRANCH  27  29
ATOM     29  C   UNL     1       8.067   7.888  17.959  0.00  0.00    +0.000 C 
ATOM     30  N   UNL     1       8.827   8.063  19.066  0.00  0.00    +0.000 N 
ATOM     31  O   UNL     1       8.203   8.659  17.011  0.00  0.00    +0.000 OA
ATOM     32  H   UNL     1       8.874   7.399  19.823  0.00  0.00    +0.000 HD
ATOM     33  H   UNL     1       9.557   8.767  19.011  0.00  0.00    +0.000 HD
ENDBRANCH  27  29
ENDBRANCH  23  24
ENDBRANCH  11  23
TORSDOF 5
ENDMDL
MODEL 6
REMARK VINA RESULT:      -6.8      4.610      8.328
REMARK  Name = 
REMARK  6 active torsions:
REMARK  status: ('A' for Active; 'I' for Inactive)
REMARK    1  A    between atoms: C_1  and  O_2
REMARK    2  A    between atoms: O_2  and  C_3
REMARK    3  A    between atoms: N_10  and  C_11
REMARK    4  A    between atoms: C_21  and  C_22
REMARK    5  A    between atoms: C_22  and  N_23
REMARK    6  A    between atoms: C_26  and  C_27
REMARK                            x       y       z     vdW  Elec       q    Type
REMARK                         _______ _______ _______ _____ _____    ______ ____
ROOT
ATOM      1  C   UNL     1       3.431   3.935  18.347  0.00  0.00    +0.000 A 
ATOM      2  C   UNL     1       2.684   4.128  19.513  0.00  0.00    +0.000 A 
ATOM      3  C   UNL     1       2.234   5.408  19.919  0.00  0.00    +0.000 A 
ATOM      4  N   UNL     1       1.478   5.575  21.014  0.00  0.00    +0.000 NA
ATOM      5  C   UNL     1       1.043   6.821  21.284  0.00  0.00    +0.000 A 
ATOM      6  N   UNL     1       1.252   7.918  20.548  0.00  0.00    +0.000 NA
ATOM      7  C   UNL     1       2.009   7.769  19.455  0.00  0.00    +0.000 A 
ATOM      8  N   UNL     1       2.153   8.864  18.548  0.00  0.00    +0.000 N 
ATOM      9  C   UNL     1       2.572   6.520  19.127  0.00  0.00    +0.000 A 
ATOM     10  C   UNL     1       3.408   6.335  18.030  0.00  0.00    +0.000 A 
ATOM     11  C   UNL     1       3.774   5.066  17.584  0.00  0.00    +0.000 A 
ATOM     12  H   UNL     1       3.120   9.006  18.286  0.00  0.00    +0.000 HD
ENDROOT
BRANCH   8  13
ATOM     13  C   UNL     1       1.375  10.039  18.474  0.00  0.00    +0.000 A 
ATOM     14  C   UNL     1      -0.016   9.957  18.285  0.00  0.00    +0.000 A 
ATOM     15  C   UNL     1      -0.794  11.115  18.161  0.00  0.00    +0.000 A 
ATOM     16  C   UNL     1      -0.190  12.364  18.252  0.00  0.00    +0.000 A 
ATOM     17  F   UNL     1      -0.946  13.461  18.097  0.00  0.00    +0.000 F 
ATOM     18  C   UNL     1       1.173  12.467  18.502  0.00  0.00    +0.000 A 
ATOM     19 CL   UNL     1       1.930  14.008  18.642  0.00  0.00    +0.000 Cl
ATOM     20  C   UNL     1       1.945  11.311  18.631  0.00  0.00    +0.000 A 
ENDBRANCH   8  13
BRANCH   1  22
ATOM     21  C   UNL     1       3.598   1.475  18.254  0.00  0.00    +0.000 C 
ATOM     22  O   UNL     1       3.937   2.782  17.837  0.00  0.00    +0.000 OA
ENDBRANCH   1  22
BRANCH  11  23
ATOM     23  C   UNL     1       4.521   4.977  16.270  0.00  0.00    +0.000 C 
BRANCH  23  24
ATOM     24  N   UNL     1       5.837   5.651  16.263  0.00  0.00    +0.000 NA
ATOM     25  C   UNL     1       6.846   4.778  16.860  0.00  0.00    +0.000 C 
ATOM     26  C   UNL     1       7.534   5.526  17.982  0.00  0.00    +0.000 C 
ATOM     27  C   UNL     1       6.980   6.934  17.987  0.00  0.00    +0.000 C 
ATOM     28  C   UNL     1       5.921   6.975  16.895  0.00  0.00    +0.000 C 
BRANCH  27  29
ATOM     29  C   UNL     1       8.092   7.973  17.974  0.00  0.00    +0.000 C 
ATOM     30  N   UNL     1       8.860   8.139  19.078  0.00  0.00    +0.000 N 
ATOM     31  O   UNL     1       8.226   8.748  17.030  0.00  0.00    +0.000 OA
ATOM     32  H   UNL     1       8.908   7.470  19.830  0.00  0.00    +0.000 HD
ATOM     33  H   UNL     1       9.592   8.839  19.022  0.00  0.00    +0.000 HD
ENDBRANCH  27  29
ENDBRANCH  23  24
ENDBRANCH  11  23
TORSDOF 5
ENDMDL
MODEL 7
REMARK VINA RESULT:      -6.7      3.998      5.918
REMARK  Name = 
REMARK  6 active torsions:
REMARK  status: ('A' for Active; 'I' for Inactive)
REMARK    1  A    between atoms: C_1  and  O_2
REMARK    2  A    between atoms: O_2  and  C_3
REMARK    3  A    between atoms: N_10  and  C_11
REMARK    4  A    between atoms: C_21  and  C_22
REMARK    5  A    between atoms: C_22  and  N_23
REMARK    6  A    between atoms: C_26  and  C_27
REMARK                            x       y       z     vdW  Elec       q    Type
REMARK                         _______ _______ _______ _____ _____    ______ ____
ROOT
ATOM      1  C   UNL     1      -0.276  13.947  21.401  0.00  0.00    +0.000 A 
ATOM      2  C   UNL     1      -0.559  12.984  22.376  0.00  0.00    +0.000 A 
ATOM      3  C   UNL     1      -0.376  11.599  22.145  0.00  0.00    +0.000 A 
ATOM      4  N   UNL     1      -0.605  10.689  23.103  0.00  0.00    +0.000 NA
ATOM      5  C   UNL     1      -0.342   9.401  22.811  0.00  0.00    +0.000 A 
ATOM      6  N   UNL     1       0.169   8.928  21.669  0.00  0.00    +0.000 NA
ATOM      7  C   UNL     1       0.398   9.823  20.701  0.00  0.00    +0.000 A 
ATOM      8  N   UNL     1       1.074   9.411  19.512  0.00  0.00    +0.000 N 
ATOM      9  C   UNL     1       0.086  11.184  20.883  0.00  0.00    +0.000 A 
ATOM     10  C   UNL     1       0.259  12.138  19.884  0.00  0.00    +0.000 A 
ATOM     11  C   UNL     1       0.165  13.505  20.141  0.00  0.00    +0.000 A 
ATOM     12  H   UNL     1       0.605   9.747  18.681  0.00  0.00    +0.000 HD
ENDROOT
BRANCH   8  13
ATOM     13  C   UNL     1       1.811   8.226  19.297  0.00  0.00    +0.000 A 
ATOM     14  C   UNL     1       2.622   8.094  18.155  0.00  0.00    +0.000 A 
ATOM     15  C   UNL     1       3.321   6.907  17.903  0.00  0.00    +0.000 A 
ATOM     16  C   UNL     1       3.235   5.853  18.806  0.00  0.00    +0.000 A 
ATOM     17  F   UNL     1       3.883   4.711  18.531  0.00  0.00    +0.000 F 
ATOM     18  C   UNL     1       2.489   5.986  19.971  0.00  0.00    +0.000 A 
ATOM     19 CL   UNL     1       2.395   4.697  21.110  0.00  0.00    +0.000 Cl
ATOM     20  C   UNL     1       1.798   7.173  20.222  0.00  0.00    +0.000 A 
ENDBRANCH   8  13
BRANCH   1  22
ATOM     21  C   UNL     1      -1.062  16.013  22.498  0.00  0.00    +0.000 C 
ATOM     22  O   UNL     1      -0.407  15.297  21.470  0.00  0.00    +0.000 OA
ENDBRANCH   1  22
BRANCH  11  23
ATOM     23  C   UNL     1       0.565  14.452  19.029  0.00  0.00    +0.000 C 
BRANCH  23  24
ATOM     24  N   UNL     1       1.898  15.069  19.195  0.00  0.00    +0.000 NA
ATOM     25  C   UNL     1       1.989  16.282  18.385  0.00  0.00    +0.000 C 
ATOM     26  C   UNL     1       3.200  16.178  17.484  0.00  0.00    +0.000 C 
ATOM     27  C   UNL     1       3.914  14.893  17.843  0.00  0.00    +0.000 C 
ATOM     28  C   UNL     1       3.071  14.226  18.920  0.00  0.00    +0.000 C 
BRANCH  27  29
ATOM     29  C   UNL     1       5.394  15.131  18.109  0.00  0.00    +0.000 C 
ATOM     30  N   UNL     1       5.771  16.187  18.870  0.00  0.00    +0.000 N 
ATOM     31  O   UNL     1       6.257  14.460  17.547  0.00  0.00    +0.000 OA
ATOM     32  H   UNL     1       5.141  16.697  19.469  0.00  0.00    +0.000 HD
ATOM     33  H   UNL     1       6.767  16.303  19.025  0.00  0.00    +0.000 HD
ENDBRANCH  27  29
ENDBRANCH  23  24
ENDBRANCH  11  23
TORSDOF 5
ENDMDL
MODEL 8
REMARK VINA RESULT:      -6.6      4.703      8.639
REMARK  Name = 
REMARK  6 active torsions:
REMARK  status: ('A' for Active; 'I' for Inactive)
REMARK    1  A    between atoms: C_1  and  O_2
REMARK    2  A    between atoms: O_2  and  C_3
REMARK    3  A    between atoms: N_10  and  C_11
REMARK    4  A    between atoms: C_21  and  C_22
REMARK    5  A    between atoms: C_22  and  N_23
REMARK    6  A    between atoms: C_26  and  C_27
REMARK                            x       y       z     vdW  Elec       q    Type
REMARK                         _______ _______ _______ _____ _____    ______ ____
ROOT
ATOM      1  C   UNL     1       1.615   6.316  20.044  0.00  0.00    +0.000 A 
ATOM      2  C   UNL     1       0.990   6.846  21.178  0.00  0.00    +0.000 A 
ATOM      3  C   UNL     1       0.863   8.241  21.387  0.00  0.00    +0.000 A 
ATOM      4  N   UNL     1       0.220   8.738  22.454  0.00  0.00    +0.000 NA
ATOM      5  C   UNL     1       0.093  10.076  22.535  0.00  0.00    +0.000 A 
ATOM      6  N   UNL     1       0.509  10.975  21.635  0.00  0.00    +0.000 NA
ATOM      7  C   UNL     1       1.157  10.495  20.568  0.00  0.00    +0.000 A 
ATOM      8  N   UNL     1       1.501  11.382  19.501  0.00  0.00    +0.000 N 
ATOM      9  C   UNL     1       1.405   9.116  20.428  0.00  0.00    +0.000 A 
ATOM     10  C   UNL     1       2.122   8.582  19.361  0.00  0.00    +0.000 A 
ATOM     11  C   UNL     1       2.167   7.211  19.111  0.00  0.00    +0.000 A 
ATOM     12  H   UNL     1       2.460  11.256  19.206  0.00  0.00    +0.000 HD
ENDROOT
BRANCH   8  13
ATOM     13  C   UNL     1       1.008  12.682  19.258  0.00  0.00    +0.000 A 
ATOM     14  C   UNL     1      -0.372  12.895  19.088  0.00  0.00    +0.000 A 
ATOM     15  C   UNL     1      -0.871  14.171  18.798  0.00  0.00    +0.000 A 
ATOM     16  C   UNL     1       0.003  15.247  18.702  0.00  0.00    +0.000 A 
ATOM     17  F   UNL     1      -0.489  16.455  18.389  0.00  0.00    +0.000 F 
ATOM     18  C   UNL     1       1.363  15.069  18.927  0.00  0.00    +0.000 A 
ATOM     19 CL   UNL     1       2.454  16.398  18.836  0.00  0.00    +0.000 Cl
ATOM     20  C   UNL     1       1.857  13.797  19.222  0.00  0.00    +0.000 A 
ENDBRANCH   8  13
BRANCH   1  22
ATOM     21  C   UNL     1       1.337   3.893  20.423  0.00  0.00    +0.000 C 
ATOM     22  O   UNL     1       1.819   5.015  19.711  0.00  0.00    +0.000 OA
ENDBRANCH   1  22
BRANCH  11  23
ATOM     23  C   UNL     1       2.808   6.760  17.816  0.00  0.00    +0.000 C 
BRANCH  23  24
ATOM     24  N   UNL     1       4.286   6.760  17.827  0.00  0.00    +0.000 NA
ATOM     25  C   UNL     1       4.794   6.837  16.458  0.00  0.00    +0.000 C 
ATOM     26  C   UNL     1       5.744   5.682  16.225  0.00  0.00    +0.000 C 
ATOM     27  C   UNL     1       5.882   4.945  17.539  0.00  0.00    +0.000 C 
ATOM     28  C   UNL     1       4.957   5.650  18.520  0.00  0.00    +0.000 C 
BRANCH  27  29
ATOM     29  C   UNL     1       7.343   4.748  17.918  0.00  0.00    +0.000 C 
ATOM     30  N   UNL     1       7.826   5.342  19.036  0.00  0.00    +0.000 N 
ATOM     31  O   UNL     1       8.122   4.165  17.167  0.00  0.00    +0.000 OA
ATOM     32  H   UNL     1       7.241   5.716  19.767  0.00  0.00    +0.000 HD
ATOM     33  H   UNL     1       8.804   5.177  19.253  0.00  0.00    +0.000 HD
ENDBRANCH  27  29
ENDBRANCH  23  24
ENDBRANCH  11  23
TORSDOF 5
ENDMDL
MODEL 9
REMARK VINA RESULT:      -6.6      3.733      5.532
REMARK  Name = 
REMARK  6 active torsions:
REMARK  status: ('A' for Active; 'I' for Inactive)
REMARK    1  A    between atoms: C_1  and  O_2
REMARK    2  A    between atoms: O_2  and  C_3
REMARK    3  A    between atoms: N_10  and  C_11
REMARK    4  A    between atoms: C_21  and  C_22
REMARK    5  A    between atoms: C_22  and  N_23
REMARK    6  A    between atoms: C_26  and  C_27
REMARK                            x       y       z     vdW  Elec       q    Type
REMARK                         _______ _______ _______ _____ _____    ______ ____
ROOT
ATOM      1  C   UNL     1      -0.243  13.557  21.212  0.00  0.00    +0.000 A 
ATOM      2  C   UNL     1      -0.563  12.536  22.113  0.00  0.00    +0.000 A 
ATOM      3  C   UNL     1      -0.321  11.171  21.825  0.00  0.00    +0.000 A 
ATOM      4  N   UNL     1      -0.588  10.205  22.716  0.00  0.00    +0.000 NA
ATOM      5  C   UNL     1      -0.265   8.942  22.378  0.00  0.00    +0.000 A 
ATOM      6  N   UNL     1       0.338   8.545  21.251  0.00  0.00    +0.000 NA
ATOM      7  C   UNL     1       0.605   9.497  20.350  0.00  0.00    +0.000 A 
ATOM      8  N   UNL     1       1.375   9.167  19.192  0.00  0.00    +0.000 N 
ATOM      9  C   UNL     1       0.239  10.837  20.579  0.00  0.00    +0.000 A 
ATOM     10  C   UNL     1       0.451  11.847  19.645  0.00  0.00    +0.000 A 
ATOM     11  C   UNL     1       0.297  13.195  19.965  0.00  0.00    +0.000 A 
ATOM     12  H   UNL     1       0.954   9.534  18.348  0.00  0.00    +0.000 HD
ENDROOT
BRANCH   8  13
ATOM     13  C   UNL     1       2.161   8.017  18.969  0.00  0.00    +0.000 A 
ATOM     14  C   UNL     1       2.102   6.934  19.865  0.00  0.00    +0.000 A 
ATOM     15  C   UNL     1       2.912   5.806  19.684  0.00  0.00    +0.000 A 
ATOM     16  C   UNL     1       3.768   5.742  18.590  0.00  0.00    +0.000 A 
ATOM     17  F   UNL     1       4.562   4.669  18.453  0.00  0.00    +0.000 F 
ATOM     18  C   UNL     1       3.797   6.773  17.660  0.00  0.00    +0.000 A 
ATOM     19 CL   UNL     1       4.834   6.695  16.287  0.00  0.00    +0.000 Cl
ATOM     20  C   UNL     1       2.983   7.894  17.840  0.00  0.00    +0.000 A 
ENDBRANCH   8  13
BRANCH   1  22
ATOM     21  C   UNL     1      -0.252  15.644  22.529  0.00  0.00    +0.000 C 
ATOM     22  O   UNL     1      -0.421  14.897  21.340  0.00  0.00    +0.000 OA
ENDBRANCH   1  22
BRANCH  11  23
ATOM     23  C   UNL     1       0.743  14.211  18.934  0.00  0.00    +0.000 C 
BRANCH  23  24
ATOM     24  N   UNL     1       2.070  14.810  19.194  0.00  0.00    +0.000 NA
ATOM     25  C   UNL     1       2.120  16.164  18.646  0.00  0.00    +0.000 C 
ATOM     26  C   UNL     1       3.310  16.271  17.716  0.00  0.00    +0.000 C 
ATOM     27  C   UNL     1       4.054  14.955  17.791  0.00  0.00    +0.000 C 
ATOM     28  C   UNL     1       3.249  14.066  18.727  0.00  0.00    +0.000 C 
BRANCH  27  29
ATOM     29  C   UNL     1       5.536  15.166  18.068  0.00  0.00    +0.000 C 
ATOM     30  N   UNL     1       5.942  16.304  18.680  0.00  0.00    +0.000 N 
ATOM     31  O   UNL     1       6.380  14.384  17.636  0.00  0.00    +0.000 OA
ATOM     32  H   UNL     1       5.322  16.922  19.179  0.00  0.00    +0.000 HD
ATOM     33  H   UNL     1       6.938  16.399  18.850  0.00  0.00    +0.000 HD
ENDBRANCH  27  29
ENDBRANCH  23  24
ENDBRANCH  11  23
TORSDOF 5
ENDMDL
