MODEL 1
REMARK VINA RESULT:      -9.0      0.000      0.000
REMARK  Name = 
REMARK  4 active torsions:
REMARK  status: ('A' for Active; 'I' for Inactive)
REMARK    1  A    between atoms: C_1  and  S_2
REMARK    2  A    between atoms: S_2  and  N_5
REMARK    3  A    between atoms: N_5  and  C_6
REMARK    4  A    between atoms: C_10  and  C_11
REMARK                            x       y       z     vdW  Elec       q    Type
REMARK                         _______ _______ _______ _____ _____    ______ ____
ROOT
ATOM      1  C   UNL     1       2.727   6.958  18.264  0.00  0.00    +0.000 A 
ATOM      2  N   UNL     1       2.363   5.742  18.675  0.00  0.00    +0.000 NA
ATOM      3  C   UNL     1       3.153   4.729  18.268  0.00  0.00    +0.000 A 
ATOM      4  N   UNL     1       3.243   3.662  19.200  0.00  0.00    +0.000 N 
ATOM      5  C   UNL     1       2.288   3.314  20.127  0.00  0.00    +0.000 A 
ATOM      6  C   UNL     1       2.923   2.489  21.022  0.00  0.00    +0.000 A 
ATOM      7  N   UNL     1       4.225   2.281  20.662  0.00  0.00    +0.000 NA
ATOM      8  C   UNL     1       4.396   3.006  19.577  0.00  0.00    +0.000 A 
ATOM      9  C   UNL     1       4.109   4.846  17.254  0.00  0.00    +0.000 A 
ATOM     10  C   UNL     1       4.712   3.775  16.542  0.00  0.00    +0.000 A 
ATOM     11  C   UNL     1       5.749   4.015  15.648  0.00  0.00    +0.000 A 
ATOM     12  C   UNL     1       6.205   5.315  15.481  0.00  0.00    +0.000 A 
ATOM     13  C   UNL     1       5.552   6.371  16.128  0.00  0.00    +0.000 A 
ATOM     14  C   UNL     1       4.460   6.162  16.965  0.00  0.00    +0.000 A 
ATOM     15  N   UNL     1       3.798   7.207  17.481  0.00  0.00    +0.000 NA
ENDROOT
BRANCH   1  20
ATOM     16  C   UNL     1       1.155   9.568  20.482  0.00  0.00    +0.000 A 
ATOM     17  C   UNL     1       0.582  10.437  19.560  0.00  0.00    +0.000 A 
ATOM     18  C   UNL     1       0.606  10.112  18.204  0.00  0.00    +0.000 A 
ATOM     19  C   UNL     1       1.267   8.956  17.776  0.00  0.00    +0.000 A 
ATOM     20  C   UNL     1       1.904   8.097  18.693  0.00  0.00    +0.000 A 
ATOM     21  C   UNL     1       1.782   8.402  20.055  0.00  0.00    +0.000 A 
BRANCH  16  22
ATOM     22  N   UNL     1       1.233   9.909  21.855  0.00  0.00    +0.000 N 
ATOM     23  H   UNL     1       1.605  10.832  22.073  0.00  0.00    +0.000 HD
BRANCH  22  25
ATOM     24  C   UNL     1      -1.113  11.019  22.710  0.00  0.00    +0.000 C 
ATOM     25  S   UNL     1      -0.114   9.548  22.824  0.00  0.00    +0.000 S 
ATOM     26  O   UNL     1       0.393   9.474  24.176  0.00  0.00    +0.000 OA
ATOM     27  O   UNL     1      -0.840   8.443  22.239  0.00  0.00    +0.000 OA
ENDBRANCH  22  25
ENDBRANCH  16  22
ENDBRANCH   1  20
TORSDOF 3
ENDMDL
MODEL 2
REMARK VINA RESULT:      -8.7      2.243      2.714
REMARK  Name = 
REMARK  4 active torsions:
REMARK  status: ('A' for Active; 'I' for Inactive)
REMARK    1  A    between atoms: C_1  and  S_2
REMARK    2  A    between atoms: S_2  and  N_5
REMARK    3  A    between atoms: N_5  and  C_6
REMARK    4  A    between atoms: C_10  and  C_11
REMARK                            x       y       z     vdW  Elec       q    Type
REMARK                         _______ _______ _______ _____ _____    ______ ____
ROOT
ATOM      1  C   UNL     1       2.544   7.157  18.595  0.00  0.00    +0.000 A 
ATOM      2  N   UNL     1       2.182   5.931  18.974  0.00  0.00    +0.000 NA
ATOM      3  C   UNL     1       2.920   4.923  18.469  0.00  0.00    +0.000 A 
ATOM      4  N   UNL     1       3.047   3.811  19.344  0.00  0.00    +0.000 N 
ATOM      5  C   UNL     1       2.148   3.439  20.316  0.00  0.00    +0.000 A 
ATOM      6  C   UNL     1       2.822   2.560  21.129  0.00  0.00    +0.000 A 
ATOM      7  N   UNL     1       4.092   2.345  20.672  0.00  0.00    +0.000 NA
ATOM      8  C   UNL     1       4.207   3.117  19.613  0.00  0.00    +0.000 A 
ATOM      9  C   UNL     1       3.809   5.068  17.399  0.00  0.00    +0.000 A 
ATOM     10  C   UNL     1       4.340   4.020  16.601  0.00  0.00    +0.000 A 
ATOM     11  C   UNL     1       5.320   4.281  15.651  0.00  0.00    +0.000 A 
ATOM     12  C   UNL     1       5.793   5.579  15.514  0.00  0.00    +0.000 A 
ATOM     13  C   UNL     1       5.209   6.615  16.249  0.00  0.00    +0.000 A 
ATOM     14  C   UNL     1       4.170   6.389  17.147  0.00  0.00    +0.000 A 
ATOM     15  N   UNL     1       3.567   7.422  17.754  0.00  0.00    +0.000 NA
ENDROOT
BRANCH   1  20
ATOM     16  C   UNL     1       0.296  10.179  18.723  0.00  0.00    +0.000 A 
ATOM     17  C   UNL     1       0.055  10.313  20.086  0.00  0.00    +0.000 A 
ATOM     18  C   UNL     1       0.722   9.484  20.986  0.00  0.00    +0.000 A 
ATOM     19  C   UNL     1       1.571   8.478  20.510  0.00  0.00    +0.000 A 
ATOM     20  C   UNL     1       1.778   8.290  19.129  0.00  0.00    +0.000 A 
ATOM     21  C   UNL     1       1.166   9.199  18.255  0.00  0.00    +0.000 A 
BRANCH  16  22
ATOM     22  N   UNL     1      -0.433  10.939  17.774  0.00  0.00    +0.000 N 
ATOM     23  H   UNL     1      -0.067  10.949  16.824  0.00  0.00    +0.000 HD
BRANCH  22  25
ATOM     24  C   UNL     1      -2.579  11.133  16.095  0.00  0.00    +0.000 C 
ATOM     25  S   UNL     1      -2.123  10.772  17.778  0.00  0.00    +0.000 S 
ATOM     26  O   UNL     1      -2.614  11.854  18.602  0.00  0.00    +0.000 OA
ATOM     27  O   UNL     1      -2.466   9.398  18.071  0.00  0.00    +0.000 OA
ENDBRANCH  22  25
ENDBRANCH  16  22
ENDBRANCH   1  20
TORSDOF 3
ENDMDL
MODEL 3
REMARK VINA RESULT:      -8.5      2.326      2.653
REMARK  Name = 
REMARK  4 active torsions:
REMARK  status: ('A' for Active; 'I' for Inactive)
REMARK    1  A    between atoms: C_1  and  S_2
REMARK    2  A    between atoms: S_2  and  N_5
REMARK    3  A    between atoms: N_5  and  C_6
REMARK    4  A    between atoms: C_10  and  C_11
REMARK                            x       y       z     vdW  Elec       q    Type
REMARK                         _______ _______ _______ _____ _____    ______ ____
ROOT
ATOM      1  C   UNL     1       2.666   6.915  18.824  0.00  0.00    +0.000 A 
ATOM      2  N   UNL     1       2.405   5.656  19.178  0.00  0.00    +0.000 NA
ATOM      3  C   UNL     1       3.139   4.713  18.556  0.00  0.00    +0.000 A 
ATOM      4  N   UNL     1       3.408   3.573  19.361  0.00  0.00    +0.000 N 
ATOM      5  C   UNL     1       2.629   3.112  20.397  0.00  0.00    +0.000 A 
ATOM      6  C   UNL     1       3.424   2.238  21.098  0.00  0.00    +0.000 A 
ATOM      7  N   UNL     1       4.652   2.112  20.510  0.00  0.00    +0.000 NA
ATOM      8  C   UNL     1       4.622   2.932  19.483  0.00  0.00    +0.000 A 
ATOM      9  C   UNL     1       3.908   4.951  17.414  0.00  0.00    +0.000 A 
ATOM     10  C   UNL     1       4.409   3.968  16.519  0.00  0.00    +0.000 A 
ATOM     11  C   UNL     1       5.276   4.322  15.492  0.00  0.00    +0.000 A 
ATOM     12  C   UNL     1       5.667   5.649  15.370  0.00  0.00    +0.000 A 
ATOM     13  C   UNL     1       5.108   6.620  16.208  0.00  0.00    +0.000 A 
ATOM     14  C   UNL     1       4.176   6.299  17.191  0.00  0.00    +0.000 A 
ATOM     15  N   UNL     1       3.586   7.271  17.901  0.00  0.00    +0.000 NA
ENDROOT
BRANCH   1  20
ATOM     16  C   UNL     1       0.817  10.157  19.347  0.00  0.00    +0.000 A 
ATOM     17  C   UNL     1       0.198   9.952  20.575  0.00  0.00    +0.000 A 
ATOM     18  C   UNL     1       0.475   8.794  21.298  0.00  0.00    +0.000 A 
ATOM     19  C   UNL     1       1.314   7.816  20.753  0.00  0.00    +0.000 A 
ATOM     20  C   UNL     1       1.901   7.982  19.484  0.00  0.00    +0.000 A 
ATOM     21  C   UNL     1       1.677   9.197  18.823  0.00  0.00    +0.000 A 
BRANCH  16  22
ATOM     22  N   UNL     1       0.488  11.276  18.541  0.00  0.00    +0.000 N 
ATOM     23  H   UNL     1      -0.503  11.432  18.366  0.00  0.00    +0.000 HD
BRANCH  22  25
ATOM     24  C   UNL     1       0.020  13.966  18.645  0.00  0.00    +0.000 C 
ATOM     25  S   UNL     1       1.288  12.736  18.873  0.00  0.00    +0.000 S 
ATOM     26  O   UNL     1       2.248  12.900  17.805  0.00  0.00    +0.000 OA
ATOM     27  O   UNL     1       1.706  12.747  20.258  0.00  0.00    +0.000 OA
ENDBRANCH  22  25
ENDBRANCH  16  22
ENDBRANCH   1  20
TORSDOF 3
ENDMDL
MODEL 4
REMARK VINA RESULT:      -8.3      1.105      1.157
REMARK  Name = 
REMARK  4 active torsions:
REMARK  status: ('A' for Active; 'I' for Inactive)
REMARK    1  A    between atoms: C_1  and  S_2
REMARK    2  A    between atoms: S_2  and  N_5
REMARK    3  A    between atoms: N_5  and  C_6
REMARK    4  A    between atoms: C_10  and  C_11
REMARK                            x       y       z     vdW  Elec       q    Type
REMARK                         _______ _______ _______ _____ _____    ______ ____
ROOT
ATOM      1  C   UNL     1       2.660   7.500  18.105  0.00  0.00    +0.000 A 
ATOM      2  N   UNL     1       2.008   6.419  18.534  0.00  0.00    +0.000 NA
ATOM      3  C   UNL     1       2.626   5.241  18.314  0.00  0.00    +0.000 A 
ATOM      4  N   UNL     1       2.374   4.266  19.316  0.00  0.00    +0.000 N 
ATOM      5  C   UNL     1       1.254   4.193  20.112  0.00  0.00    +0.000 A 
ATOM      6  C   UNL     1       1.586   3.348  21.142  0.00  0.00    +0.000 A 
ATOM      7  N   UNL     1       2.856   2.865  20.993  0.00  0.00    +0.000 NA
ATOM      8  C   UNL     1       3.311   3.442  19.901  0.00  0.00    +0.000 A 
ATOM      9  C   UNL     1       3.711   5.081  17.448  0.00  0.00    +0.000 A 
ATOM     10  C   UNL     1       4.176   3.853  16.904  0.00  0.00    +0.000 A 
ATOM     11  C   UNL     1       5.349   3.809  16.160  0.00  0.00    +0.000 A 
ATOM     12  C   UNL     1       6.075   4.978  15.980  0.00  0.00    +0.000 A 
ATOM     13  C   UNL     1       5.568   6.193  16.453  0.00  0.00    +0.000 A 
ATOM     14  C   UNL     1       4.355   6.274  17.131  0.00  0.00    +0.000 A 
ATOM     15  N   UNL     1       3.854   7.469  17.475  0.00  0.00    +0.000 NA
ENDROOT
BRANCH   1  20
ATOM     16  C   UNL     1       0.403  10.155  19.539  0.00  0.00    +0.000 A 
ATOM     17  C   UNL     1       0.966  11.325  19.042  0.00  0.00    +0.000 A 
ATOM     18  C   UNL     1       2.023  11.248  18.136  0.00  0.00    +0.000 A 
ATOM     19  C   UNL     1       2.555  10.000  17.791  0.00  0.00    +0.000 A 
ATOM     20  C   UNL     1       2.033   8.809  18.333  0.00  0.00    +0.000 A 
ATOM     21  C   UNL     1       0.913   8.916  19.167  0.00  0.00    +0.000 A 
BRANCH  16  22
ATOM     22  N   UNL     1      -0.608  10.197  20.531  0.00  0.00    +0.000 N 
ATOM     23  H   UNL     1      -1.532   9.871  20.252  0.00  0.00    +0.000 HD
BRANCH  22  25
ATOM     24  C   UNL     1      -1.114  10.704  23.168  0.00  0.00    +0.000 C 
ATOM     25  S   UNL     1      -0.201   9.629  22.079  0.00  0.00    +0.000 S 
ATOM     26  O   UNL     1       1.202   9.935  22.245  0.00  0.00    +0.000 OA
ATOM     27  O   UNL     1      -0.693   8.278  22.236  0.00  0.00    +0.000 OA
ENDBRANCH  22  25
ENDBRANCH  16  22
ENDBRANCH   1  20
TORSDOF 3
ENDMDL
MODEL 5
REMARK VINA RESULT:      -8.2      1.206      3.384
REMARK  Name = 
REMARK  4 active torsions:
REMARK  status: ('A' for Active; 'I' for Inactive)
REMARK    1  A    between atoms: C_1  and  S_2
REMARK    2  A    between atoms: S_2  and  N_5
REMARK    3  A    between atoms: N_5  and  C_6
REMARK    4  A    between atoms: C_10  and  C_11
REMARK                            x       y       z     vdW  Elec       q    Type
REMARK                         _______ _______ _______ _____ _____    ______ ____
ROOT
ATOM      1  C   UNL     1       2.569   6.858  19.028  0.00  0.00    +0.000 A 
ATOM      2  N   UNL     1       3.681   6.762  18.299  0.00  0.00    +0.000 NA
ATOM      3  C   UNL     1       4.274   5.552  18.298  0.00  0.00    +0.000 A 
ATOM      4  N   UNL     1       4.930   5.236  17.078  0.00  0.00    +0.000 N 
ATOM      5  C   UNL     1       5.456   6.139  16.183  0.00  0.00    +0.000 A 
ATOM      6  C   UNL     1       5.660   5.436  15.022  0.00  0.00    +0.000 A 
ATOM      7  N   UNL     1       5.315   4.123  15.176  0.00  0.00    +0.000 NA
ATOM      8  C   UNL     1       4.867   4.032  16.410  0.00  0.00    +0.000 A 
ATOM      9  C   UNL     1       3.966   4.532  19.203  0.00  0.00    +0.000 A 
ATOM     10  C   UNL     1       4.765   3.393  19.489  0.00  0.00    +0.000 A 
ATOM     11  C   UNL     1       4.286   2.381  20.311  0.00  0.00    +0.000 A 
ATOM     12  C   UNL     1       3.001   2.485  20.826  0.00  0.00    +0.000 A 
ATOM     13  C   UNL     1       2.252   3.646  20.601  0.00  0.00    +0.000 A 
ATOM     14  C   UNL     1       2.744   4.708  19.848  0.00  0.00    +0.000 A 
ATOM     15  N   UNL     1       2.039   5.843  19.744  0.00  0.00    +0.000 NA
ENDROOT
BRANCH   1  20
ATOM     16  C   UNL     1       0.997  10.022  20.340  0.00  0.00    +0.000 A 
ATOM     17  C   UNL     1       0.814  10.766  19.180  0.00  0.00    +0.000 A 
ATOM     18  C   UNL     1       1.097  10.191  17.942  0.00  0.00    +0.000 A 
ATOM     19  C   UNL     1       1.630   8.898  17.881  0.00  0.00    +0.000 A 
ATOM     20  C   UNL     1       1.878   8.154  19.051  0.00  0.00    +0.000 A 
ATOM     21  C   UNL     1       1.496   8.725  20.272  0.00  0.00    +0.000 A 
BRANCH  16  22
ATOM     22  N   UNL     1       0.810  10.605  21.618  0.00  0.00    +0.000 N 
ATOM     23  H   UNL     1       0.622  11.606  21.637  0.00  0.00    +0.000 HD
BRANCH  22  25
ATOM     24  C   UNL     1      -1.423  10.978  23.147  0.00  0.00    +0.000 C 
ATOM     25  S   UNL     1      -0.184   9.773  22.714  0.00  0.00    +0.000 S 
ATOM     26  O   UNL     1       0.633   9.553  23.886  0.00  0.00    +0.000 OA
ATOM     27  O   UNL     1      -0.824   8.669  22.034  0.00  0.00    +0.000 OA
ENDBRANCH  22  25
ENDBRANCH  16  22
ENDBRANCH   1  20
TORSDOF 3
ENDMDL
MODEL 6
REMARK VINA RESULT:      -8.2      2.329      2.713
REMARK  Name = 
REMARK  4 active torsions:
REMARK  status: ('A' for Active; 'I' for Inactive)
REMARK    1  A    between atoms: C_1  and  S_2
REMARK    2  A    between atoms: S_2  and  N_5
REMARK    3  A    between atoms: N_5  and  C_6
REMARK    4  A    between atoms: C_10  and  C_11
REMARK                            x       y       z     vdW  Elec       q    Type
REMARK                         _______ _______ _______ _____ _____    ______ ____
ROOT
ATOM      1  C   UNL     1       2.842   6.937  18.345  0.00  0.00    +0.000 A 
ATOM      2  N   UNL     1       2.258   5.757  18.134  0.00  0.00    +0.000 NA
ATOM      3  C   UNL     1       3.032   4.820  17.553  0.00  0.00    +0.000 A 
ATOM      4  N   UNL     1       2.737   3.494  17.969  0.00  0.00    +0.000 N 
ATOM      5  C   UNL     1       1.521   3.039  18.424  0.00  0.00    +0.000 A 
ATOM      6  C   UNL     1       1.779   1.837  19.034  0.00  0.00    +0.000 A 
ATOM      7  N   UNL     1       3.103   1.511  18.938  0.00  0.00    +0.000 NA
ATOM      8  C   UNL     1       3.657   2.526  18.311  0.00  0.00    +0.000 A 
ATOM      9  C   UNL     1       4.252   5.095  16.928  0.00  0.00    +0.000 A 
ATOM     10  C   UNL     1       4.933   4.252  16.010  0.00  0.00    +0.000 A 
ATOM     11  C   UNL     1       6.207   4.580  15.560  0.00  0.00    +0.000 A 
ATOM     12  C   UNL     1       6.814   5.731  16.043  0.00  0.00    +0.000 A 
ATOM     13  C   UNL     1       6.104   6.593  16.885  0.00  0.00    +0.000 A 
ATOM     14  C   UNL     1       4.798   6.325  17.284  0.00  0.00    +0.000 A 
ATOM     15  N   UNL     1       4.116   7.227  18.006  0.00  0.00    +0.000 NA
ENDROOT
BRANCH   1  20
ATOM     16  C   UNL     1       0.606   9.942  18.769  0.00  0.00    +0.000 A 
ATOM     17  C   UNL     1       0.263   9.870  20.114  0.00  0.00    +0.000 A 
ATOM     18  C   UNL     1       0.855   8.901  20.923  0.00  0.00    +0.000 A 
ATOM     19  C   UNL     1       1.732   7.966  20.363  0.00  0.00    +0.000 A 
ATOM     20  C   UNL     1       2.042   7.989  18.989  0.00  0.00    +0.000 A 
ATOM     21  C   UNL     1       1.504   9.031  18.222  0.00  0.00    +0.000 A 
BRANCH  16  22
ATOM     22  N   UNL     1      -0.045  10.850  17.897  0.00  0.00    +0.000 N 
ATOM     23  H   UNL     1       0.323  10.912  16.950  0.00  0.00    +0.000 HD
BRANCH  22  25
ATOM     24  C   UNL     1      -2.163  11.939  19.237  0.00  0.00    +0.000 C 
ATOM     25  S   UNL     1      -1.743  10.844  17.895  0.00  0.00    +0.000 S 
ATOM     26  O   UNL     1      -2.124   9.507  18.292  0.00  0.00    +0.000 OA
ATOM     27  O   UNL     1      -2.220  11.418  16.657  0.00  0.00    +0.000 OA
ENDBRANCH  22  25
ENDBRANCH  16  22
ENDBRANCH   1  20
TORSDOF 3
ENDMDL
MODEL 7
REMARK VINA RESULT:      -8.2      2.493      2.803
REMARK  Name = 
REMARK  4 active torsions:
REMARK  status: ('A' for Active; 'I' for Inactive)
REMARK    1  A    between atoms: C_1  and  S_2
REMARK    2  A    between atoms: S_2  and  N_5
REMARK    3  A    between atoms: N_5  and  C_6
REMARK    4  A    between atoms: C_10  and  C_11
REMARK                            x       y       z     vdW  Elec       q    Type
REMARK                         _______ _______ _______ _____ _____    ______ ____
ROOT
ATOM      1  C   UNL     1       2.963   6.860  18.406  0.00  0.00    +0.000 A 
ATOM      2  N   UNL     1       2.351   5.700  18.166  0.00  0.00    +0.000 NA
ATOM      3  C   UNL     1       3.094   4.769  17.537  0.00  0.00    +0.000 A 
ATOM      4  N   UNL     1       2.781   3.435  17.913  0.00  0.00    +0.000 N 
ATOM      5  C   UNL     1       1.565   2.988  18.376  0.00  0.00    +0.000 A 
ATOM      6  C   UNL     1       1.811   1.760  18.938  0.00  0.00    +0.000 A 
ATOM      7  N   UNL     1       3.126   1.412  18.804  0.00  0.00    +0.000 NA
ATOM      8  C   UNL     1       3.688   2.438  18.201  0.00  0.00    +0.000 A 
ATOM      9  C   UNL     1       4.307   5.042  16.897  0.00  0.00    +0.000 A 
ATOM     10  C   UNL     1       4.953   4.219  15.936  0.00  0.00    +0.000 A 
ATOM     11  C   UNL     1       6.224   4.537  15.472  0.00  0.00    +0.000 A 
ATOM     12  C   UNL     1       6.864   5.658  15.983  0.00  0.00    +0.000 A 
ATOM     13  C   UNL     1       6.188   6.504  16.869  0.00  0.00    +0.000 A 
ATOM     14  C   UNL     1       4.885   6.248  17.285  0.00  0.00    +0.000 A 
ATOM     15  N   UNL     1       4.236   7.136  18.051  0.00  0.00    +0.000 NA
ENDROOT
BRANCH   1  20
ATOM     16  C   UNL     1       1.070  10.059  19.027  0.00  0.00    +0.000 A 
ATOM     17  C   UNL     1       0.492   9.827  20.270  0.00  0.00    +0.000 A 
ATOM     18  C   UNL     1       0.812   8.664  20.970  0.00  0.00    +0.000 A 
ATOM     19  C   UNL     1       1.653   7.709  20.387  0.00  0.00    +0.000 A 
ATOM     20  C   UNL     1       2.198   7.904  19.103  0.00  0.00    +0.000 A 
ATOM     21  C   UNL     1       1.932   9.123  18.466  0.00  0.00    +0.000 A 
BRANCH  16  22
ATOM     22  N   UNL     1       0.696  11.182  18.247  0.00  0.00    +0.000 N 
ATOM     23  H   UNL     1      -0.279  11.229  17.959  0.00  0.00    +0.000 HD
BRANCH  22  25
ATOM     24  C   UNL     1      -0.171  13.751  18.586  0.00  0.00    +0.000 C 
ATOM     25  S   UNL     1       1.260  12.702  18.752  0.00  0.00    +0.000 S 
ATOM     26  O   UNL     1       2.215  13.112  17.747  0.00  0.00    +0.000 OA
ATOM     27  O   UNL     1       1.630  12.634  20.148  0.00  0.00    +0.000 OA
ENDBRANCH  22  25
ENDBRANCH  16  22
ENDBRANCH   1  20
TORSDOF 3
ENDMDL
MODEL 8
REMARK VINA RESULT:      -8.1      1.444      3.302
REMARK  Name = 
REMARK  4 active torsions:
REMARK  status: ('A' for Active; 'I' for Inactive)
REMARK    1  A    between atoms: C_1  and  S_2
REMARK    2  A    between atoms: S_2  and  N_5
REMARK    3  A    between atoms: N_5  and  C_6
REMARK    4  A    between atoms: C_10  and  C_11
REMARK                            x       y       z     vdW  Elec       q    Type
REMARK                         _______ _______ _______ _____ _____    ______ ____
ROOT
ATOM      1  C   UNL     1       2.592   6.313  18.584  0.00  0.00    +0.000 A 
ATOM      2  N   UNL     1       3.906   6.231  18.373  0.00  0.00    +0.000 NA
ATOM      3  C   UNL     1       4.382   4.991  18.144  0.00  0.00    +0.000 A 
ATOM      4  N   UNL     1       5.492   4.957  17.259  0.00  0.00    +0.000 N 
ATOM      5  C   UNL     1       6.400   5.972  17.060  0.00  0.00    +0.000 A 
ATOM      6  C   UNL     1       7.061   5.655  15.899  0.00  0.00    +0.000 A 
ATOM      7  N   UNL     1       6.624   4.463  15.393  0.00  0.00    +0.000 NA
ATOM      8  C   UNL     1       5.674   4.074  16.217  0.00  0.00    +0.000 A 
ATOM      9  C   UNL     1       3.659   3.820  18.394  0.00  0.00    +0.000 A 
ATOM     10  C   UNL     1       4.197   2.511  18.514  0.00  0.00    +0.000 A 
ATOM     11  C   UNL     1       3.358   1.409  18.630  0.00  0.00    +0.000 A 
ATOM     12  C   UNL     1       1.984   1.605  18.597  0.00  0.00    +0.000 A 
ATOM     13  C   UNL     1       1.466   2.904  18.557  0.00  0.00    +0.000 A 
ATOM     14  C   UNL     1       2.288   4.027  18.523  0.00  0.00    +0.000 A 
ATOM     15  N   UNL     1       1.754   5.254  18.591  0.00  0.00    +0.000 NA
ENDROOT
BRANCH   1  20
ATOM     16  C   UNL     1       1.396   9.388  20.406  0.00  0.00    +0.000 A 
ATOM     17  C   UNL     1       1.207  10.294  19.369  0.00  0.00    +0.000 A 
ATOM     18  C   UNL     1       1.357   9.869  18.050  0.00  0.00    +0.000 A 
ATOM     19  C   UNL     1       1.768   8.558  17.783  0.00  0.00    +0.000 A 
ATOM     20  C   UNL     1       2.022   7.646  18.825  0.00  0.00    +0.000 A 
ATOM     21  C   UNL     1       1.772   8.077  20.135  0.00  0.00    +0.000 A 
BRANCH  16  22
ATOM     22  N   UNL     1       1.345   9.807  21.759  0.00  0.00    +0.000 N 
ATOM     23  H   UNL     1       1.747  10.720  21.967  0.00  0.00    +0.000 HD
BRANCH  22  25
ATOM     24  C   UNL     1      -1.041  11.058  22.215  0.00  0.00    +0.000 C 
ATOM     25  S   UNL     1      -0.119   9.580  22.588  0.00  0.00    +0.000 S 
ATOM     26  O   UNL     1       0.222   9.626  23.992  0.00  0.00    +0.000 OA
ATOM     27  O   UNL     1      -0.813   8.442  22.027  0.00  0.00    +0.000 OA
ENDBRANCH  22  25
ENDBRANCH  16  22
ENDBRANCH   1  20
TORSDOF 3
ENDMDL
MODEL 9
REMARK VINA RESULT:      -8.1      3.883      8.188
REMARK  Name = 
REMARK  4 active torsions:
REMARK  status: ('A' for Active; 'I' for Inactive)
REMARK    1  A    between atoms: C_1  and  S_2
REMARK    2  A    between atoms: S_2  and  N_5
REMARK    3  A    between atoms: N_5  and  C_6
REMARK    4  A    between atoms: C_10  and  C_11
REMARK                            x       y       z     vdW  Elec       q    Type
REMARK                         _______ _______ _______ _____ _____    ______ ____
ROOT
ATOM      1  C   UNL     1       1.784   8.500  19.400  0.00  0.00    +0.000 A 
ATOM      2  N   UNL     1       1.694   9.682  18.790  0.00  0.00    +0.000 NA
ATOM      3  C   UNL     1       1.127  10.668  19.513  0.00  0.00    +0.000 A 
ATOM      4  N   UNL     1       1.652  11.958  19.232  0.00  0.00    +0.000 N 
ATOM      5  C   UNL     1       2.216  12.362  18.044  0.00  0.00    +0.000 A 
ATOM      6  C   UNL     1       2.888  13.525  18.329  0.00  0.00    +0.000 A 
ATOM      7  N   UNL     1       2.727  13.877  19.640  0.00  0.00    +0.000 NA
ATOM      8  C   UNL     1       1.996  12.915  20.162  0.00  0.00    +0.000 A 
ATOM      9  C   UNL     1       0.405  10.455  20.691  0.00  0.00    +0.000 A 
ATOM     10  C   UNL     1      -0.497  11.368  21.299  0.00  0.00    +0.000 A 
ATOM     11  C   UNL     1      -1.052  11.092  22.543  0.00  0.00    +0.000 A 
ATOM     12  C   UNL     1      -0.690   9.921  23.195  0.00  0.00    +0.000 A 
ATOM     13  C   UNL     1       0.138   8.993  22.553  0.00  0.00    +0.000 A 
ATOM     14  C   UNL     1       0.640   9.212  21.273  0.00  0.00    +0.000 A 
ATOM     15  N   UNL     1       1.342   8.254  20.652  0.00  0.00    +0.000 NA
ENDROOT
BRANCH   1  20
ATOM     16  C   UNL     1       4.198   6.608  17.210  0.00  0.00    +0.000 A 
ATOM     17  C   UNL     1       3.828   5.286  17.433  0.00  0.00    +0.000 A 
ATOM     18  C   UNL     1       2.708   5.008  18.213  0.00  0.00    +0.000 A 
ATOM     19  C   UNL     1       2.008   6.054  18.825  0.00  0.00    +0.000 A 
ATOM     20  C   UNL     1       2.407   7.395  18.658  0.00  0.00    +0.000 A 
ATOM     21  C   UNL     1       3.480   7.647  17.793  0.00  0.00    +0.000 A 
BRANCH  16  22
ATOM     22  N   UNL     1       5.384   6.924  16.502  0.00  0.00    +0.000 N 
ATOM     23  H   UNL     1       5.420   7.844  16.067  0.00  0.00    +0.000 HD
BRANCH  22  25
ATOM     24  C   UNL     1       7.616   8.133  17.515  0.00  0.00    +0.000 C 
ATOM     25  S   UNL     1       6.861   6.542  17.248  0.00  0.00    +0.000 S 
ATOM     26  O   UNL     1       7.637   5.858  16.237  0.00  0.00    +0.000 OA
ATOM     27  O   UNL     1       6.602   5.926  18.531  0.00  0.00    +0.000 OA
ENDBRANCH  22  25
ENDBRANCH  16  22
ENDBRANCH   1  20
TORSDOF 3
ENDMDL
