MODEL 1
REMARK VINA RESULT:      -7.3      0.000      0.000
REMARK  Name = 
REMARK  8 active torsions:
REMARK  status: ('A' for Active; 'I' for Inactive)
REMARK    1  A    between atoms: C_2  and  O_3
REMARK    2  A    between atoms: C_2  and  C_4
REMARK    3  A    between atoms: C_6  and  C_7
REMARK    4  A    between atoms: C_11  and  O_12
REMARK    5  A    between atoms: O_12  and  C_13
REMARK    6  A    between atoms: C_13  and  C_14
REMARK    7  A    between atoms: C_17  and  C_18
REMARK    8  A    between atoms: C_18  and  O_19
REMARK                            x       y       z     vdW  Elec       q    Type
REMARK                         _______ _______ _______ _____ _____    ______ ____
ROOT
ATOM      1  C   UNL     1       2.465   3.505  19.986  0.00  0.00    +0.000 C 
ATOM      2  C   UNL     1       1.936   4.710  19.732  0.00  0.00    +0.000 C 
ATOM      3  C   UNL     1       2.179   5.468  18.464  0.00  0.00    +0.000 C 
ATOM      4  C   UNL     1       2.912   4.580  17.447  0.00  0.00    +0.000 C 
ATOM      5  C   UNL     1       3.941   3.666  18.124  0.00  0.00    +0.000 C 
ATOM      6  O   UNL     1       3.325   2.836  19.129  0.00  0.00    +0.000 OA
ENDROOT
BRANCH   3   7
ATOM      7  C   UNL     1       2.886   6.785  18.697  0.00  0.00    +0.000 C 
ATOM      8  C   UNL     1       2.185   8.081  18.365  0.00  0.00    +0.000 C 
ATOM      9  C   UNL     1       3.350   7.629  17.534  0.00  0.00    +0.000 C 
ENDBRANCH   3   7
BRANCH   1  11
ATOM     10  O   UNL     1       2.869   2.394  22.095  0.00  0.00    +0.000 OA
ATOM     11  C   UNL     1       2.087   2.823  21.264  0.00  0.00    +0.000 C 
BRANCH  11  12
ATOM     12  O   UNL     1       0.744   2.757  21.389  0.00  0.00    +0.000 OA
ATOM     13  H   UNL     1       0.489   1.912  21.815  0.00  0.00    +0.000 HD
ENDBRANCH  11  12
ENDBRANCH   1  11
BRANCH   5  14
ATOM     14  O   UNL     1       5.047   4.358  18.697  0.00  0.00    +0.000 OA
BRANCH  14  15
ATOM     15  C   UNL     1       6.233   4.313  17.903  0.00  0.00    +0.000 C 
BRANCH  15  16
ATOM     16  C   UNL     1       6.921   5.655  17.961  0.00  0.00    +0.000 A 
ATOM     17  C   UNL     1       7.873   5.941  18.948  0.00  0.00    +0.000 A 
ATOM     18  C   UNL     1       8.457   7.208  19.028  0.00  0.00    +0.000 A 
ATOM     19  C   UNL     1       8.115   8.214  18.113  0.00  0.00    +0.000 A 
ATOM     20  C   UNL     1       7.190   7.914  17.104  0.00  0.00    +0.000 A 
ATOM     21  C   UNL     1       6.611   6.645  17.020  0.00  0.00    +0.000 A 
BRANCH  19  22
ATOM     22  C   UNL     1       8.654   9.609  18.292  0.00  0.00    +0.000 C 
BRANCH  22  23
ATOM     23  O   UNL     1       9.254   9.792  19.569  0.00  0.00    +0.000 OA
ATOM     24  H   UNL     1       8.546  10.088  20.166  0.00  0.00    +0.000 HD
ENDBRANCH  22  23
ENDBRANCH  19  22
ENDBRANCH  15  16
ENDBRANCH  14  15
ENDBRANCH   5  14
TORSDOF 8
ENDMDL
MODEL 2
REMARK VINA RESULT:      -7.2      3.269      6.435
REMARK  Name = 
REMARK  8 active torsions:
REMARK  status: ('A' for Active; 'I' for Inactive)
REMARK    1  A    between atoms: C_2  and  O_3
REMARK    2  A    between atoms: C_2  and  C_4
REMARK    3  A    between atoms: C_6  and  C_7
REMARK    4  A    between atoms: C_11  and  O_12
REMARK    5  A    between atoms: O_12  and  C_13
REMARK    6  A    between atoms: C_13  and  C_14
REMARK    7  A    between atoms: C_17  and  C_18
REMARK    8  A    between atoms: C_18  and  O_19
REMARK                            x       y       z     vdW  Elec       q    Type
REMARK                         _______ _______ _______ _____ _____    ______ ____
ROOT
ATOM      1  C   UNL     1       5.398   5.333  18.747  0.00  0.00    +0.000 C 
ATOM      2  C   UNL     1       4.748   4.384  19.436  0.00  0.00    +0.000 C 
ATOM      3  C   UNL     1       3.298   4.067  19.239  0.00  0.00    +0.000 C 
ATOM      4  C   UNL     1       2.754   4.813  18.012  0.00  0.00    +0.000 C 
ATOM      5  C   UNL     1       3.364   6.214  17.878  0.00  0.00    +0.000 C 
ATOM      6  O   UNL     1       4.802   6.156  17.805  0.00  0.00    +0.000 OA
ENDROOT
BRANCH   3   7
ATOM      7  C   UNL     1       2.472   4.318  20.481  0.00  0.00    +0.000 C 
ATOM      8  C   UNL     1       1.653   3.196  21.076  0.00  0.00    +0.000 C 
ATOM      9  C   UNL     1       0.964   4.353  20.412  0.00  0.00    +0.000 C 
ENDBRANCH   3   7
BRANCH   1  11
ATOM     10  O   UNL     1       7.415   5.434  20.077  0.00  0.00    +0.000 OA
ATOM     11  C   UNL     1       6.865   5.503  18.991  0.00  0.00    +0.000 C 
BRANCH  11  12
ATOM     12  O   UNL     1       7.517   5.733  17.831  0.00  0.00    +0.000 OA
ATOM     13  H   UNL     1       8.484   5.736  17.985  0.00  0.00    +0.000 HD
ENDBRANCH  11  12
ENDBRANCH   1  11
BRANCH   5  14
ATOM     14  O   UNL     1       2.980   7.118  18.912  0.00  0.00    +0.000 OA
BRANCH  14  15
ATOM     15  C   UNL     1       2.172   8.205  18.461  0.00  0.00    +0.000 C 
BRANCH  15  16
ATOM     16  C   UNL     1       1.352   8.726  19.615  0.00  0.00    +0.000 A 
ATOM     17  C   UNL     1       0.516   9.841  19.467  0.00  0.00    +0.000 A 
ATOM     18  C   UNL     1      -0.191  10.351  20.560  0.00  0.00    +0.000 A 
ATOM     19  C   UNL     1      -0.092   9.749  21.822  0.00  0.00    +0.000 A 
ATOM     20  C   UNL     1       0.716   8.612  21.959  0.00  0.00    +0.000 A 
ATOM     21  C   UNL     1       1.418   8.097  20.865  0.00  0.00    +0.000 A 
BRANCH  19  22
ATOM     22  C   UNL     1      -0.755  10.387  23.015  0.00  0.00    +0.000 C 
BRANCH  22  23
ATOM     23  O   UNL     1      -0.572  11.797  23.038  0.00  0.00    +0.000 OA
ATOM     24  H   UNL     1      -0.433  12.073  22.116  0.00  0.00    +0.000 HD
ENDBRANCH  22  23
ENDBRANCH  19  22
ENDBRANCH  15  16
ENDBRANCH  14  15
ENDBRANCH   5  14
TORSDOF 8
ENDMDL
MODEL 3
REMARK VINA RESULT:      -7.1      2.802      5.509
REMARK  Name = 
REMARK  8 active torsions:
REMARK  status: ('A' for Active; 'I' for Inactive)
REMARK    1  A    between atoms: C_2  and  O_3
REMARK    2  A    between atoms: C_2  and  C_4
REMARK    3  A    between atoms: C_6  and  C_7
REMARK    4  A    between atoms: C_11  and  O_12
REMARK    5  A    between atoms: O_12  and  C_13
REMARK    6  A    between atoms: C_13  and  C_14
REMARK    7  A    between atoms: C_17  and  C_18
REMARK    8  A    between atoms: C_18  and  O_19
REMARK                            x       y       z     vdW  Elec       q    Type
REMARK                         _______ _______ _______ _____ _____    ______ ____
ROOT
ATOM      1  C   UNL     1       5.210   4.073  18.682  0.00  0.00    +0.000 C 
ATOM      2  C   UNL     1       4.621   3.503  19.743  0.00  0.00    +0.000 C 
ATOM      3  C   UNL     1       3.303   2.798  19.676  0.00  0.00    +0.000 C 
ATOM      4  C   UNL     1       2.861   2.638  18.214  0.00  0.00    +0.000 C 
ATOM      5  C   UNL     1       3.238   3.859  17.366  0.00  0.00    +0.000 C 
ATOM      6  O   UNL     1       4.656   4.113  17.413  0.00  0.00    +0.000 OA
ENDROOT
BRANCH   3   7
ATOM      7  C   UNL     1       2.244   3.457  20.531  0.00  0.00    +0.000 C 
ATOM      8  C   UNL     1       1.442   2.627  21.506  0.00  0.00    +0.000 C 
ATOM      9  C   UNL     1       0.777   3.193  20.286  0.00  0.00    +0.000 C 
ENDBRANCH   3   7
BRANCH   1  11
ATOM     10  O   UNL     1       6.868   5.471  19.752  0.00  0.00    +0.000 OA
ATOM     11  C   UNL     1       6.563   4.687  18.870  0.00  0.00    +0.000 C 
BRANCH  11  12
ATOM     12  O   UNL     1       7.423   4.241  17.929  0.00  0.00    +0.000 OA
ATOM     13  H   UNL     1       6.935   3.746  17.238  0.00  0.00    +0.000 HD
ENDBRANCH  11  12
ENDBRANCH   1  11
BRANCH   5  14
ATOM     14  O   UNL     1       2.534   5.048  17.712  0.00  0.00    +0.000 OA
BRANCH  14  15
ATOM     15  C   UNL     1       3.344   6.223  17.710  0.00  0.00    +0.000 C 
BRANCH  15  16
ATOM     16  C   UNL     1       2.610   7.335  18.418  0.00  0.00    +0.000 A 
ATOM     17  C   UNL     1       2.229   7.214  19.761  0.00  0.00    +0.000 A 
ATOM     18  C   UNL     1       1.495   8.226  20.387  0.00  0.00    +0.000 A 
ATOM     19  C   UNL     1       1.139   9.389  19.690  0.00  0.00    +0.000 A 
ATOM     20  C   UNL     1       1.552   9.524  18.358  0.00  0.00    +0.000 A 
ATOM     21  C   UNL     1       2.292   8.515  17.734  0.00  0.00    +0.000 A 
BRANCH  19  22
ATOM     22  C   UNL     1       0.238  10.408  20.338  0.00  0.00    +0.000 C 
BRANCH  22  23
ATOM     23  O   UNL     1      -1.028  10.490  19.694  0.00  0.00    +0.000 OA
ATOM     24  H   UNL     1      -1.014   9.837  18.974  0.00  0.00    +0.000 HD
ENDBRANCH  22  23
ENDBRANCH  19  22
ENDBRANCH  15  16
ENDBRANCH  14  15
ENDBRANCH   5  14
TORSDOF 8
ENDMDL
MODEL 4
REMARK VINA RESULT:      -7.1      2.857      6.154
REMARK  Name = 
REMARK  8 active torsions:
REMARK  status: ('A' for Active; 'I' for Inactive)
REMARK    1  A    between atoms: C_2  and  O_3
REMARK    2  A    between atoms: C_2  and  C_4
REMARK    3  A    between atoms: C_6  and  C_7
REMARK    4  A    between atoms: C_11  and  O_12
REMARK    5  A    between atoms: O_12  and  C_13
REMARK    6  A    between atoms: C_13  and  C_14
REMARK    7  A    between atoms: C_17  and  C_18
REMARK    8  A    between atoms: C_18  and  O_19
REMARK                            x       y       z     vdW  Elec       q    Type
REMARK                         _______ _______ _______ _____ _____    ______ ____
ROOT
ATOM      1  C   UNL     1       5.788   5.294  18.304  0.00  0.00    +0.000 C 
ATOM      2  C   UNL     1       5.164   4.443  19.131  0.00  0.00    +0.000 C 
ATOM      3  C   UNL     1       3.707   4.114  19.033  0.00  0.00    +0.000 C 
ATOM      4  C   UNL     1       3.116   4.705  17.745  0.00  0.00    +0.000 C 
ATOM      5  C   UNL     1       3.722   6.074  17.412  0.00  0.00    +0.000 C 
ATOM      6  O   UNL     1       5.156   5.997  17.290  0.00  0.00    +0.000 OA
ENDROOT
BRANCH   3   7
ATOM      7  C   UNL     1       2.932   4.524  20.266  0.00  0.00    +0.000 C 
ATOM      8  C   UNL     1       2.274   3.468  21.123  0.00  0.00    +0.000 C 
ATOM      9  C   UNL     1       1.428   4.402  20.309  0.00  0.00    +0.000 C 
ENDBRANCH   3   7
BRANCH   1  11
ATOM     10  O   UNL     1       7.824   6.548  18.660  0.00  0.00    +0.000 OA
ATOM     11  C   UNL     1       7.264   5.483  18.466  0.00  0.00    +0.000 C 
BRANCH  11  12
ATOM     12  O   UNL     1       7.907   4.298  18.382  0.00  0.00    +0.000 OA
ATOM     13  H   UNL     1       8.374   4.231  17.523  0.00  0.00    +0.000 HD
ENDBRANCH  11  12
ENDBRANCH   1  11
BRANCH   5  14
ATOM     14  O   UNL     1       3.382   7.102  18.339  0.00  0.00    +0.000 OA
BRANCH  14  15
ATOM     15  C   UNL     1       2.278   7.909  17.930  0.00  0.00    +0.000 C 
BRANCH  15  16
ATOM     16  C   UNL     1       1.676   8.578  19.141  0.00  0.00    +0.000 A 
ATOM     17  C   UNL     1       1.784   8.007  20.415  0.00  0.00    +0.000 A 
ATOM     18  C   UNL     1       1.168   8.606  21.519  0.00  0.00    +0.000 A 
ATOM     19  C   UNL     1       0.444   9.797  21.376  0.00  0.00    +0.000 A 
ATOM     20  C   UNL     1       0.368  10.386  20.106  0.00  0.00    +0.000 A 
ATOM     21  C   UNL     1       0.989   9.792  19.004  0.00  0.00    +0.000 A 
BRANCH  19  22
ATOM     22  C   UNL     1      -0.322  10.358  22.546  0.00  0.00    +0.000 C 
BRANCH  22  23
ATOM     23  O   UNL     1       0.100   9.793  23.782  0.00  0.00    +0.000 OA
ATOM     24  H   UNL     1      -0.554   9.112  24.010  0.00  0.00    +0.000 HD
ENDBRANCH  22  23
ENDBRANCH  19  22
ENDBRANCH  15  16
ENDBRANCH  14  15
ENDBRANCH   5  14
TORSDOF 8
ENDMDL
MODEL 5
REMARK VINA RESULT:      -7.0      1.033      1.269
REMARK  Name = 
REMARK  8 active torsions:
REMARK  status: ('A' for Active; 'I' for Inactive)
REMARK    1  A    between atoms: C_2  and  O_3
REMARK    2  A    between atoms: C_2  and  C_4
REMARK    3  A    between atoms: C_6  and  C_7
REMARK    4  A    between atoms: C_11  and  O_12
REMARK    5  A    between atoms: O_12  and  C_13
REMARK    6  A    between atoms: C_13  and  C_14
REMARK    7  A    between atoms: C_17  and  C_18
REMARK    8  A    between atoms: C_18  and  O_19
REMARK                            x       y       z     vdW  Elec       q    Type
REMARK                         _______ _______ _______ _____ _____    ______ ____
ROOT
ATOM      1  C   UNL     1       2.113   3.113  20.242  0.00  0.00    +0.000 C 
ATOM      2  C   UNL     1       1.814   4.415  20.129  0.00  0.00    +0.000 C 
ATOM      3  C   UNL     1       1.720   5.130  18.817  0.00  0.00    +0.000 C 
ATOM      4  C   UNL     1       1.791   4.124  17.659  0.00  0.00    +0.000 C 
ATOM      5  C   UNL     1       2.765   2.977  17.957  0.00  0.00    +0.000 C 
ATOM      6  O   UNL     1       2.408   2.287  19.170  0.00  0.00    +0.000 OA
ENDROOT
BRANCH   3   7
ATOM      7  C   UNL     1       2.739   6.239  18.682  0.00  0.00    +0.000 C 
ATOM      8  C   UNL     1       2.403   7.629  19.169  0.00  0.00    +0.000 C 
ATOM      9  C   UNL     1       2.531   7.365  17.697  0.00  0.00    +0.000 C 
ENDBRANCH   3   7
BRANCH   1  11
ATOM     10  O   UNL     1       3.081   2.053  22.188  0.00  0.00    +0.000 OA
ATOM     11  C   UNL     1       2.107   2.503  21.610  0.00  0.00    +0.000 C 
BRANCH  11  12
ATOM     12  O   UNL     1       0.864   2.530  22.137  0.00  0.00    +0.000 OA
ATOM     13  H   UNL     1       0.345   1.766  21.810  0.00  0.00    +0.000 HD
ENDBRANCH  11  12
ENDBRANCH   1  11
BRANCH   5  14
ATOM     14  O   UNL     1       4.131   3.377  18.026  0.00  0.00    +0.000 OA
BRANCH  14  15
ATOM     15  C   UNL     1       4.634   3.938  16.813  0.00  0.00    +0.000 C 
BRANCH  15  16
ATOM     16  C   UNL     1       5.654   5.001  17.142  0.00  0.00    +0.000 A 
ATOM     17  C   UNL     1       6.568   4.830  18.189  0.00  0.00    +0.000 A 
ATOM     18  C   UNL     1       7.467   5.848  18.523  0.00  0.00    +0.000 A 
ATOM     19  C   UNL     1       7.482   7.053  17.806  0.00  0.00    +0.000 A 
ATOM     20  C   UNL     1       6.592   7.207  16.735  0.00  0.00    +0.000 A 
ATOM     21  C   UNL     1       5.698   6.186  16.398  0.00  0.00    +0.000 A 
BRANCH  19  22
ATOM     22  C   UNL     1       8.365   8.187  18.260  0.00  0.00    +0.000 C 
BRANCH  22  23
ATOM     23  O   UNL     1       7.862   9.453  17.851  0.00  0.00    +0.000 OA
ATOM     24  H   UNL     1       6.996   9.558  18.282  0.00  0.00    +0.000 HD
ENDBRANCH  22  23
ENDBRANCH  19  22
ENDBRANCH  15  16
ENDBRANCH  14  15
ENDBRANCH   5  14
TORSDOF 8
ENDMDL
MODEL 6
REMARK VINA RESULT:      -7.0      0.716      1.269
REMARK  Name = 
REMARK  8 active torsions:
REMARK  status: ('A' for Active; 'I' for Inactive)
REMARK    1  A    between atoms: C_2  and  O_3
REMARK    2  A    between atoms: C_2  and  C_4
REMARK    3  A    between atoms: C_6  and  C_7
REMARK    4  A    between atoms: C_11  and  O_12
REMARK    5  A    between atoms: O_12  and  C_13
REMARK    6  A    between atoms: C_13  and  C_14
REMARK    7  A    between atoms: C_17  and  C_18
REMARK    8  A    between atoms: C_18  and  O_19
REMARK                            x       y       z     vdW  Elec       q    Type
REMARK                         _______ _______ _______ _____ _____    ______ ____
ROOT
ATOM      1  C   UNL     1       2.340   3.180  20.185  0.00  0.00    +0.000 C 
ATOM      2  C   UNL     1       1.885   4.428  20.006  0.00  0.00    +0.000 C 
ATOM      3  C   UNL     1       1.909   5.134  18.686  0.00  0.00    +0.000 C 
ATOM      4  C   UNL     1       2.309   4.159  17.570  0.00  0.00    +0.000 C 
ATOM      5  C   UNL     1       3.372   3.157  18.040  0.00  0.00    +0.000 C 
ATOM      6  O   UNL     1       2.920   2.413  19.188  0.00  0.00    +0.000 OA
ENDROOT
BRANCH   3   7
ATOM      7  C   UNL     1       2.772   6.377  18.705  0.00  0.00    +0.000 C 
ATOM      8  C   UNL     1       2.276   7.623  19.400  0.00  0.00    +0.000 C 
ATOM      9  C   UNL     1       2.387   7.597  17.903  0.00  0.00    +0.000 C 
ENDBRANCH   3   7
BRANCH   1  11
ATOM     10  O   UNL     1       3.095   2.057  22.189  0.00  0.00    +0.000 OA
ATOM     11  C   UNL     1       2.194   2.563  21.542  0.00  0.00    +0.000 C 
BRANCH  11  12
ATOM     12  O   UNL     1       0.917   2.654  21.971  0.00  0.00    +0.000 OA
ATOM     13  H   UNL     1       0.660   3.595  22.059  0.00  0.00    +0.000 HD
ENDBRANCH  11  12
ENDBRANCH   1  11
BRANCH   5  14
ATOM     14  O   UNL     1       4.638   3.744  18.326  0.00  0.00    +0.000 OA
BRANCH  14  15
ATOM     15  C   UNL     1       5.377   4.126  17.166  0.00  0.00    +0.000 C 
BRANCH  15  16
ATOM     16  C   UNL     1       6.118   5.409  17.448  0.00  0.00    +0.000 A 
ATOM     17  C   UNL     1       5.769   6.606  16.810  0.00  0.00    +0.000 A 
ATOM     18  C   UNL     1       6.504   7.774  17.034  0.00  0.00    +0.000 A 
ATOM     19  C   UNL     1       7.594   7.776  17.914  0.00  0.00    +0.000 A 
ATOM     20  C   UNL     1       7.919   6.587  18.580  0.00  0.00    +0.000 A 
ATOM     21  C   UNL     1       7.180   5.421  18.362  0.00  0.00    +0.000 A 
BRANCH  19  22
ATOM     22  C   UNL     1       8.454   9.007  18.045  0.00  0.00    +0.000 C 
BRANCH  22  23
ATOM     23  O   UNL     1       9.037   9.118  19.338  0.00  0.00    +0.000 OA
ATOM     24  H   UNL     1       9.956   8.813  19.252  0.00  0.00    +0.000 HD
ENDBRANCH  22  23
ENDBRANCH  19  22
ENDBRANCH  15  16
ENDBRANCH  14  15
ENDBRANCH   5  14
TORSDOF 8
ENDMDL
MODEL 7
REMARK VINA RESULT:      -6.9      2.627      5.547
REMARK  Name = 
REMARK  8 active torsions:
REMARK  status: ('A' for Active; 'I' for Inactive)
REMARK    1  A    between atoms: C_2  and  O_3
REMARK    2  A    between atoms: C_2  and  C_4
REMARK    3  A    between atoms: C_6  and  C_7
REMARK    4  A    between atoms: C_11  and  O_12
REMARK    5  A    between atoms: O_12  and  C_13
REMARK    6  A    between atoms: C_13  and  C_14
REMARK    7  A    between atoms: C_17  and  C_18
REMARK    8  A    between atoms: C_18  and  O_19
REMARK                            x       y       z     vdW  Elec       q    Type
REMARK                         _______ _______ _______ _____ _____    ______ ____
ROOT
ATOM      1  C   UNL     1       5.419   4.488  18.596  0.00  0.00    +0.000 C 
ATOM      2  C   UNL     1       4.930   3.901  19.698  0.00  0.00    +0.000 C 
ATOM      3  C   UNL     1       3.699   3.048  19.702  0.00  0.00    +0.000 C 
ATOM      4  C   UNL     1       3.237   2.777  18.264  0.00  0.00    +0.000 C 
ATOM      5  C   UNL     1       3.447   3.995  17.356  0.00  0.00    +0.000 C 
ATOM      6  O   UNL     1       4.827   4.411  17.346  0.00  0.00    +0.000 OA
ENDROOT
BRANCH   3   7
ATOM      7  C   UNL     1       2.597   3.619  20.566  0.00  0.00    +0.000 C 
ATOM      8  C   UNL     1       1.951   2.757  21.625  0.00  0.00    +0.000 C 
ATOM      9  C   UNL     1       1.169   3.153  20.406  0.00  0.00    +0.000 C 
ENDBRANCH   3   7
BRANCH   1  11
ATOM     10  O   UNL     1       7.278   5.810  17.795  0.00  0.00    +0.000 OA
ATOM     11  C   UNL     1       6.697   5.259  18.714  0.00  0.00    +0.000 C 
BRANCH  11  12
ATOM     12  O   UNL     1       7.123   5.279  19.996  0.00  0.00    +0.000 OA
ATOM     13  H   UNL     1       6.379   5.500  20.592  0.00  0.00    +0.000 HD
ENDBRANCH  11  12
ENDBRANCH   1  11
BRANCH   5  14
ATOM     14  O   UNL     1       2.621   5.111  17.679  0.00  0.00    +0.000 OA
BRANCH  14  15
ATOM     15  C   UNL     1       3.309   6.362  17.676  0.00  0.00    +0.000 C 
BRANCH  15  16
ATOM     16  C   UNL     1       2.492   7.380  18.433  0.00  0.00    +0.000 A 
ATOM     17  C   UNL     1       1.984   8.521  17.798  0.00  0.00    +0.000 A 
ATOM     18  C   UNL     1       1.282   9.487  18.524  0.00  0.00    +0.000 A 
ATOM     19  C   UNL     1       1.058   9.328  19.899  0.00  0.00    +0.000 A 
ATOM     20  C   UNL     1       1.535   8.168  20.524  0.00  0.00    +0.000 A 
ATOM     21  C   UNL     1       2.231   7.199  19.797  0.00  0.00    +0.000 A 
BRANCH  19  22
ATOM     22  C   UNL     1       0.416  10.437  20.690  0.00  0.00    +0.000 C 
BRANCH  22  23
ATOM     23  O   UNL     1       1.095  10.683  21.916  0.00  0.00    +0.000 OA
ATOM     24  H   UNL     1       1.020  11.637  22.086  0.00  0.00    +0.000 HD
ENDBRANCH  22  23
ENDBRANCH  19  22
ENDBRANCH  15  16
ENDBRANCH  14  15
ENDBRANCH   5  14
TORSDOF 8
ENDMDL
MODEL 8
REMARK VINA RESULT:      -6.7      1.369      1.723
REMARK  Name = 
REMARK  8 active torsions:
REMARK  status: ('A' for Active; 'I' for Inactive)
REMARK    1  A    between atoms: C_2  and  O_3
REMARK    2  A    between atoms: C_2  and  C_4
REMARK    3  A    between atoms: C_6  and  C_7
REMARK    4  A    between atoms: C_11  and  O_12
REMARK    5  A    between atoms: O_12  and  C_13
REMARK    6  A    between atoms: C_13  and  C_14
REMARK    7  A    between atoms: C_17  and  C_18
REMARK    8  A    between atoms: C_18  and  O_19
REMARK                            x       y       z     vdW  Elec       q    Type
REMARK                         _______ _______ _______ _____ _____    ______ ____
ROOT
ATOM      1  C   UNL     1       3.345   3.212  19.482  0.00  0.00    +0.000 C 
ATOM      2  C   UNL     1       2.950   4.417  19.916  0.00  0.00    +0.000 C 
ATOM      3  C   UNL     1       2.082   5.338  19.117  0.00  0.00    +0.000 C 
ATOM      4  C   UNL     1       1.547   4.617  17.871  0.00  0.00    +0.000 C 
ATOM      5  C   UNL     1       2.590   3.666  17.270  0.00  0.00    +0.000 C 
ATOM      6  O   UNL     1       3.032   2.692  18.236  0.00  0.00    +0.000 OA
ENDROOT
BRANCH   3   7
ATOM      7  C   UNL     1       2.769   6.643  18.779  0.00  0.00    +0.000 C 
ATOM      8  C   UNL     1       2.111   7.953  19.141  0.00  0.00    +0.000 C 
ATOM      9  C   UNL     1       2.223   7.548  17.701  0.00  0.00    +0.000 C 
ENDBRANCH   3   7
BRANCH   1  11
ATOM     10  O   UNL     1       3.871   2.098  21.563  0.00  0.00    +0.000 OA
ATOM     11  C   UNL     1       4.156   2.359  20.407  0.00  0.00    +0.000 C 
BRANCH  11  12
ATOM     12  O   UNL     1       5.259   1.893  19.781  0.00  0.00    +0.000 OA
ATOM     13  H   UNL     1       5.133   0.953  19.537  0.00  0.00    +0.000 HD
ENDBRANCH  11  12
ENDBRANCH   1  11
BRANCH   5  14
ATOM     14  O   UNL     1       3.725   4.324  16.712  0.00  0.00    +0.000 OA
BRANCH  14  15
ATOM     15  C   UNL     1       4.976   3.774  17.124  0.00  0.00    +0.000 C 
BRANCH  15  16
ATOM     16  C   UNL     1       5.933   4.896  17.439  0.00  0.00    +0.000 A 
ATOM     17  C   UNL     1       6.967   4.729  18.370  0.00  0.00    +0.000 A 
ATOM     18  C   UNL     1       7.808   5.796  18.699  0.00  0.00    +0.000 A 
ATOM     19  C   UNL     1       7.646   7.050  18.094  0.00  0.00    +0.000 A 
ATOM     20  C   UNL     1       6.634   7.205  17.136  0.00  0.00    +0.000 A 
ATOM     21  C   UNL     1       5.797   6.136  16.802  0.00  0.00    +0.000 A 
BRANCH  19  22
ATOM     22  C   UNL     1       8.475   8.221  18.554  0.00  0.00    +0.000 C 
BRANCH  22  23
ATOM     23  O   UNL     1       8.120   9.424  17.883  0.00  0.00    +0.000 OA
ATOM     24  H   UNL     1       7.641   9.160  17.078  0.00  0.00    +0.000 HD
ENDBRANCH  22  23
ENDBRANCH  19  22
ENDBRANCH  15  16
ENDBRANCH  14  15
ENDBRANCH   5  14
TORSDOF 8
ENDMDL
MODEL 9
REMARK VINA RESULT:      -6.6      3.299      6.415
REMARK  Name = 
REMARK  8 active torsions:
REMARK  status: ('A' for Active; 'I' for Inactive)
REMARK    1  A    between atoms: C_2  and  O_3
REMARK    2  A    between atoms: C_2  and  C_4
REMARK    3  A    between atoms: C_6  and  C_7
REMARK    4  A    between atoms: C_11  and  O_12
REMARK    5  A    between atoms: O_12  and  C_13
REMARK    6  A    between atoms: C_13  and  C_14
REMARK    7  A    between atoms: C_17  and  C_18
REMARK    8  A    between atoms: C_18  and  O_19
REMARK                            x       y       z     vdW  Elec       q    Type
REMARK                         _______ _______ _______ _____ _____    ______ ____
ROOT
ATOM      1  C   UNL     1       4.642   4.885  18.676  0.00  0.00    +0.000 C 
ATOM      2  C   UNL     1       3.862   3.951  19.238  0.00  0.00    +0.000 C 
ATOM      3  C   UNL     1       2.389   3.848  18.990  0.00  0.00    +0.000 C 
ATOM      4  C   UNL     1       1.973   4.799  17.859  0.00  0.00    +0.000 C 
ATOM      5  C   UNL     1       2.757   6.116  17.902  0.00  0.00    +0.000 C 
ATOM      6  O   UNL     1       4.178   5.885  17.836  0.00  0.00    +0.000 OA
ENDROOT
BRANCH   3   7
ATOM      7  C   UNL     1       1.570   4.051  20.246  0.00  0.00    +0.000 C 
ATOM      8  C   UNL     1       2.217   3.873  21.600  0.00  0.00    +0.000 C 
ATOM      9  C   UNL     1       1.198   2.880  21.124  0.00  0.00    +0.000 C 
ENDBRANCH   3   7
BRANCH   1  11
ATOM     10  O   UNL     1       6.681   5.413  19.863  0.00  0.00    +0.000 OA
ATOM     11  C   UNL     1       6.113   4.837  18.952  0.00  0.00    +0.000 C 
BRANCH  11  12
ATOM     12  O   UNL     1       6.739   4.045  18.055  0.00  0.00    +0.000 OA
ATOM     13  H   UNL     1       6.184   3.942  17.255  0.00  0.00    +0.000 HD
ENDBRANCH  11  12
ENDBRANCH   1  11
BRANCH   5  14
ATOM     14  O   UNL     1       2.464   6.931  19.035  0.00  0.00    +0.000 OA
BRANCH  14  15
ATOM     15  C   UNL     1       2.065   8.261  18.705  0.00  0.00    +0.000 C 
BRANCH  15  16
ATOM     16  C   UNL     1       1.344   8.870  19.882  0.00  0.00    +0.000 A 
ATOM     17  C   UNL     1       1.328   8.237  21.131  0.00  0.00    +0.000 A 
ATOM     18  C   UNL     1       0.604   8.781  22.197  0.00  0.00    +0.000 A 
ATOM     19  C   UNL     1      -0.106   9.980  22.042  0.00  0.00    +0.000 A 
ATOM     20  C   UNL     1      -0.058  10.631  20.802  0.00  0.00    +0.000 A 
ATOM     21  C   UNL     1       0.671  10.090  19.739  0.00  0.00    +0.000 A 
BRANCH  19  22
ATOM     22  C   UNL     1      -0.985  10.483  23.158  0.00  0.00    +0.000 C 
BRANCH  22  23
ATOM     23  O   UNL     1      -1.807  11.568  22.743  0.00  0.00    +0.000 OA
ATOM     24  H   UNL     1      -1.915  12.144  23.519  0.00  0.00    +0.000 HD
ENDBRANCH  22  23
ENDBRANCH  19  22
ENDBRANCH  15  16
ENDBRANCH  14  15
ENDBRANCH   5  14
TORSDOF 8
ENDMDL
