MODEL 1
REMARK VINA RESULT:      -8.6      0.000      0.000
REMARK  Name = 
REMARK  8 active torsions:
REMARK  status: ('A' for Active; 'I' for Inactive)
REMARK    1  A    between atoms: C_2  and  C_3
REMARK    2  A    between atoms: C_2  and  C_10
REMARK    3  A    between atoms: C_7  and  O_8
REMARK    4  A    between atoms: C_13  and  C_14
REMARK    5  A    between atoms: C_18  and  N_19
REMARK    6  A    between atoms: N_19  and  S_20
REMARK    7  A    between atoms: S_20  and  C_23
REMARK    8  A    between atoms: C_28  and  N_29
REMARK                            x       y       z     vdW  Elec       q    Type
REMARK                         _______ _______ _______ _____ _____    ______ ____
ROOT
ATOM      1  C   UNL     1       0.633   9.374  20.869  0.00  0.00    +0.000 A 
ATOM      2  C   UNL     1       0.576   8.817  22.157  0.00  0.00    +0.000 A 
ATOM      3  C   UNL     1      -0.173   9.438  23.159  0.00  0.00    +0.000 A 
ATOM      4  C   UNL     1      -0.870  10.611  22.883  0.00  0.00    +0.000 A 
ATOM      5  C   UNL     1      -0.827  11.167  21.609  0.00  0.00    +0.000 A 
ATOM      6  C   UNL     1      -0.082  10.555  20.609  0.00  0.00    +0.000 A 
ENDROOT
BRANCH   1  10
ATOM      7  C   UNL     1       2.707   7.263  18.311  0.00  0.00    +0.000 A 
ATOM      8  C   UNL     1       2.315   8.410  17.654  0.00  0.00    +0.000 A 
ATOM      9  C   UNL     1       1.570   9.277  18.493  0.00  0.00    +0.000 A 
ATOM     10  C   UNL     1       1.416   8.784  19.777  0.00  0.00    +0.000 A 
ATOM     11  S   UNL     1       2.241   7.296  19.957  0.00  0.00    +0.000 S 
BRANCH   7  13
ATOM     12  O   UNL     1       4.374   6.391  16.904  0.00  0.00    +0.000 OA
ATOM     13  C   UNL     1       3.498   6.186  17.746  0.00  0.00    +0.000 C 
BRANCH  13  14
ATOM     14  C   UNL     1       3.250   4.768  18.130  0.00  0.00    +0.000 A 
ATOM     15  C   UNL     1       1.981   4.224  17.891  0.00  0.00    +0.000 A 
ATOM     16  C   UNL     1       1.698   2.912  18.271  0.00  0.00    +0.000 A 
ATOM     17  C   UNL     1       2.674   2.143  18.904  0.00  0.00    +0.000 A 
ATOM     18  C   UNL     1       3.926   2.696  19.158  0.00  0.00    +0.000 A 
ATOM     19  C   UNL     1       4.221   3.999  18.784  0.00  0.00    +0.000 A 
BRANCH  18  20
ATOM     20  O   UNL     1       4.901   1.985  19.792  0.00  0.00    +0.000 OA
ATOM     21  H   UNL     1       4.979   2.304  20.704  0.00  0.00    +0.000 HD
ENDBRANCH  18  20
ENDBRANCH  13  14
ENDBRANCH   7  13
ENDBRANCH   1  10
BRANCH   5  22
ATOM     22  N   UNL     1      -1.601  12.326  21.331  0.00  0.00    +0.000 N 
ATOM     23  H   UNL     1      -2.578  12.312  21.630  0.00  0.00    +0.000 HD
BRANCH  22  24
ATOM     24  S   UNL     1      -0.908  13.829  21.612  0.00  0.00    +0.000 S 
ATOM     25  O   UNL     1       0.489  13.611  21.919  0.00  0.00    +0.000 OA
ATOM     26  O   UNL     1      -1.279  14.705  20.519  0.00  0.00    +0.000 OA
BRANCH  24  27
ATOM     27  C   UNL     1      -1.653  14.441  23.093  0.00  0.00    +0.000 A 
ATOM     28  C   UNL     1      -0.841  15.156  23.985  0.00  0.00    +0.000 A 
ATOM     29  C   UNL     1      -1.313  15.494  25.254  0.00  0.00    +0.000 A 
ATOM     30  C   UNL     1      -2.602  15.128  25.642  0.00  0.00    +0.000 A 
ATOM     31  C   UNL     1      -3.431  14.439  24.753  0.00  0.00    +0.000 A 
ATOM     32  C   UNL     1      -2.948  14.096  23.480  0.00  0.00    +0.000 A 
BRANCH  32  33
ATOM     33  N   UNL     1      -3.861  13.412  22.585  0.00  0.00    +0.000 N 
ATOM     34  O   UNL     1      -4.359  14.071  21.669  0.00  0.00    +0.000 OA
ATOM     35  O   UNL     1      -4.157  12.244  22.867  0.00  0.00    +0.000 OA
ENDBRANCH  32  33
ENDBRANCH  24  27
ENDBRANCH  22  24
ENDBRANCH   5  22
TORSDOF 8
ENDMDL
MODEL 2
REMARK VINA RESULT:      -8.6      4.745     10.358
REMARK  Name = 
REMARK  8 active torsions:
REMARK  status: ('A' for Active; 'I' for Inactive)
REMARK    1  A    between atoms: C_2  and  C_3
REMARK    2  A    between atoms: C_2  and  C_10
REMARK    3  A    between atoms: C_7  and  O_8
REMARK    4  A    between atoms: C_13  and  C_14
REMARK    5  A    between atoms: C_18  and  N_19
REMARK    6  A    between atoms: N_19  and  S_20
REMARK    7  A    between atoms: S_20  and  C_23
REMARK    8  A    between atoms: C_28  and  N_29
REMARK                            x       y       z     vdW  Elec       q    Type
REMARK                         _______ _______ _______ _____ _____    ______ ____
ROOT
ATOM      1  C   UNL     1       2.427   5.239  20.341  0.00  0.00    +0.000 A 
ATOM      2  C   UNL     1       1.931   4.343  21.303  0.00  0.00    +0.000 A 
ATOM      3  C   UNL     1       2.370   3.019  21.324  0.00  0.00    +0.000 A 
ATOM      4  C   UNL     1       3.309   2.580  20.394  0.00  0.00    +0.000 A 
ATOM      5  C   UNL     1       3.814   3.460  19.442  0.00  0.00    +0.000 A 
ATOM      6  C   UNL     1       3.377   4.778  19.414  0.00  0.00    +0.000 A 
ENDROOT
BRANCH   1  10
ATOM      7  C   UNL     1       1.297   8.879  19.462  0.00  0.00    +0.000 A 
ATOM      8  C   UNL     1       1.028   8.691  20.801  0.00  0.00    +0.000 A 
ATOM      9  C   UNL     1       1.421   7.405  21.249  0.00  0.00    +0.000 A 
ATOM     10  C   UNL     1       1.993   6.638  20.250  0.00  0.00    +0.000 A 
ATOM     11  S   UNL     1       2.101   7.525  18.792  0.00  0.00    +0.000 S 
BRANCH   7  13
ATOM     12  O   UNL     1       1.951  10.768  18.229  0.00  0.00    +0.000 OA
ATOM     13  C   UNL     1       1.039  10.087  18.702  0.00  0.00    +0.000 C 
BRANCH  13  14
ATOM     14  C   UNL     1      -0.350  10.585  18.499  0.00  0.00    +0.000 A 
ATOM     15  C   UNL     1      -1.154   9.948  17.544  0.00  0.00    +0.000 A 
ATOM     16  C   UNL     1      -2.448  10.409  17.298  0.00  0.00    +0.000 A 
ATOM     17  C   UNL     1      -2.938  11.516  17.991  0.00  0.00    +0.000 A 
ATOM     18  C   UNL     1      -2.127  12.157  18.922  0.00  0.00    +0.000 A 
ATOM     19  C   UNL     1      -0.839  11.708  19.179  0.00  0.00    +0.000 A 
BRANCH  18  20
ATOM     20  O   UNL     1      -2.561  13.253  19.607  0.00  0.00    +0.000 OA
ATOM     21  H   UNL     1      -2.128  13.273  20.475  0.00  0.00    +0.000 HD
ENDBRANCH  18  20
ENDBRANCH  13  14
ENDBRANCH   7  13
ENDBRANCH   1  10
BRANCH   5  22
ATOM     22  N   UNL     1       4.820   3.009  18.546  0.00  0.00    +0.000 N 
ATOM     23  H   UNL     1       4.859   2.004  18.361  0.00  0.00    +0.000 HD
BRANCH  22  24
ATOM     24  S   UNL     1       5.084   3.889  17.140  0.00  0.00    +0.000 S 
ATOM     25  O   UNL     1       5.662   2.988  16.168  0.00  0.00    +0.000 OA
ATOM     26  O   UNL     1       3.865   4.606  16.825  0.00  0.00    +0.000 OA
BRANCH  24  27
ATOM     27  C   UNL     1       6.338   5.071  17.532  0.00  0.00    +0.000 A 
ATOM     28  C   UNL     1       6.929   4.998  18.802  0.00  0.00    +0.000 A 
ATOM     29  C   UNL     1       7.777   6.013  19.246  0.00  0.00    +0.000 A 
ATOM     30  C   UNL     1       8.050   7.106  18.424  0.00  0.00    +0.000 A 
ATOM     31  C   UNL     1       7.489   7.179  17.147  0.00  0.00    +0.000 A 
ATOM     32  C   UNL     1       6.630   6.157  16.708  0.00  0.00    +0.000 A 
BRANCH  32  33
ATOM     33  N   UNL     1       6.103   6.264  15.362  0.00  0.00    +0.000 N 
ATOM     34  O   UNL     1       5.089   6.948  15.203  0.00  0.00    +0.000 OA
ATOM     35  O   UNL     1       6.646   5.577  14.488  0.00  0.00    +0.000 OA
ENDBRANCH  32  33
ENDBRANCH  24  27
ENDBRANCH  22  24
ENDBRANCH   5  22
TORSDOF 8
ENDMDL
MODEL 3
REMARK VINA RESULT:      -8.5      4.825     10.381
REMARK  Name = 
REMARK  8 active torsions:
REMARK  status: ('A' for Active; 'I' for Inactive)
REMARK    1  A    between atoms: C_2  and  C_3
REMARK    2  A    between atoms: C_2  and  C_10
REMARK    3  A    between atoms: C_7  and  O_8
REMARK    4  A    between atoms: C_13  and  C_14
REMARK    5  A    between atoms: C_18  and  N_19
REMARK    6  A    between atoms: N_19  and  S_20
REMARK    7  A    between atoms: S_20  and  C_23
REMARK    8  A    between atoms: C_28  and  N_29
REMARK                            x       y       z     vdW  Elec       q    Type
REMARK                         _______ _______ _______ _____ _____    ______ ____
ROOT
ATOM      1  C   UNL     1       3.575   6.891  17.637  0.00  0.00    +0.000 A 
ATOM      2  C   UNL     1       4.251   7.373  16.503  0.00  0.00    +0.000 A 
ATOM      3  C   UNL     1       5.101   6.533  15.782  0.00  0.00    +0.000 A 
ATOM      4  C   UNL     1       5.280   5.211  16.181  0.00  0.00    +0.000 A 
ATOM      5  C   UNL     1       4.610   4.721  17.297  0.00  0.00    +0.000 A 
ATOM      6  C   UNL     1       3.764   5.553  18.020  0.00  0.00    +0.000 A 
ENDROOT
BRANCH   1  10
ATOM      7  C   UNL     1       1.100   9.447  19.263  0.00  0.00    +0.000 A 
ATOM      8  C   UNL     1       1.242   8.406  20.156  0.00  0.00    +0.000 A 
ATOM      9  C   UNL     1       2.144   7.418  19.687  0.00  0.00    +0.000 A 
ATOM     10  C   UNL     1       2.683   7.726  18.451  0.00  0.00    +0.000 A 
ATOM     11  S   UNL     1       2.129   9.251  17.910  0.00  0.00    +0.000 S 
BRANCH   7  13
ATOM     12  O   UNL     1       0.582  11.522  20.232  0.00  0.00    +0.000 OA
ATOM     13  C   UNL     1       0.272  10.623  19.449  0.00  0.00    +0.000 C 
BRANCH  13  14
ATOM     14  C   UNL     1      -1.023  10.773  18.728  0.00  0.00    +0.000 A 
ATOM     15  C   UNL     1      -2.015  11.581  19.300  0.00  0.00    +0.000 A 
ATOM     16  C   UNL     1      -3.255  11.716  18.675  0.00  0.00    +0.000 A 
ATOM     17  C   UNL     1      -3.515  11.034  17.486  0.00  0.00    +0.000 A 
ATOM     18  C   UNL     1      -2.534  10.216  16.935  0.00  0.00    +0.000 A 
ATOM     19  C   UNL     1      -1.295  10.074  17.545  0.00  0.00    +0.000 A 
BRANCH  18  20
ATOM     20  O   UNL     1      -2.754   9.517  15.786  0.00  0.00    +0.000 OA
ATOM     21  H   UNL     1      -3.504   8.918  15.922  0.00  0.00    +0.000 HD
ENDBRANCH  18  20
ENDBRANCH  13  14
ENDBRANCH   7  13
ENDBRANCH   1  10
BRANCH   5  22
ATOM     22  N   UNL     1       4.754   3.352  17.647  0.00  0.00    +0.000 N 
ATOM     23  H   UNL     1       5.321   3.142  18.471  0.00  0.00    +0.000 HD
BRANCH  22  24
ATOM     24  S   UNL     1       3.393   2.370  17.587  0.00  0.00    +0.000 S 
ATOM     25  O   UNL     1       2.490   2.940  16.612  0.00  0.00    +0.000 OA
ATOM     26  O   UNL     1       3.836   0.997  17.445  0.00  0.00    +0.000 OA
BRANCH  24  27
ATOM     27  C   UNL     1       2.601   2.538  19.158  0.00  0.00    +0.000 A 
ATOM     28  C   UNL     1       1.213   2.740  19.171  0.00  0.00    +0.000 A 
ATOM     29  C   UNL     1       0.559   3.075  20.357  0.00  0.00    +0.000 A 
ATOM     30  C   UNL     1       1.282   3.205  21.542  0.00  0.00    +0.000 A 
ATOM     31  C   UNL     1       2.661   2.980  21.549  0.00  0.00    +0.000 A 
ATOM     32  C   UNL     1       3.315   2.650  20.350  0.00  0.00    +0.000 A 
BRANCH  32  33
ATOM     33  N   UNL     1       4.741   2.394  20.420  0.00  0.00    +0.000 N 
ATOM     34  O   UNL     1       5.098   1.237  20.654  0.00  0.00    +0.000 OA
ATOM     35  O   UNL     1       5.493   3.373  20.345  0.00  0.00    +0.000 OA
ENDBRANCH  32  33
ENDBRANCH  24  27
ENDBRANCH  22  24
ENDBRANCH   5  22
TORSDOF 8
ENDMDL
MODEL 4
REMARK VINA RESULT:      -8.5      3.845      5.619
REMARK  Name = 
REMARK  8 active torsions:
REMARK  status: ('A' for Active; 'I' for Inactive)
REMARK    1  A    between atoms: C_2  and  C_3
REMARK    2  A    between atoms: C_2  and  C_10
REMARK    3  A    between atoms: C_7  and  O_8
REMARK    4  A    between atoms: C_13  and  C_14
REMARK    5  A    between atoms: C_18  and  N_19
REMARK    6  A    between atoms: N_19  and  S_20
REMARK    7  A    between atoms: S_20  and  C_23
REMARK    8  A    between atoms: C_28  and  N_29
REMARK                            x       y       z     vdW  Elec       q    Type
REMARK                         _______ _______ _______ _____ _____    ______ ____
ROOT
ATOM      1  C   UNL     1       2.828   6.959  18.556  0.00  0.00    +0.000 A 
ATOM      2  C   UNL     1       2.330   6.679  19.839  0.00  0.00    +0.000 A 
ATOM      3  C   UNL     1       1.536   7.614  20.505  0.00  0.00    +0.000 A 
ATOM      4  C   UNL     1       1.230   8.829  19.897  0.00  0.00    +0.000 A 
ATOM      5  C   UNL     1       1.710   9.114  18.623  0.00  0.00    +0.000 A 
ATOM      6  C   UNL     1       2.503   8.188  17.957  0.00  0.00    +0.000 A 
ENDROOT
BRANCH   1  10
ATOM      7  C   UNL     1       5.576   4.911  16.671  0.00  0.00    +0.000 A 
ATOM      8  C   UNL     1       4.510   4.060  16.867  0.00  0.00    +0.000 A 
ATOM      9  C   UNL     1       3.429   4.700  17.524  0.00  0.00    +0.000 A 
ATOM     10  C   UNL     1       3.684   6.030  17.809  0.00  0.00    +0.000 A 
ATOM     11  S   UNL     1       5.217   6.495  17.210  0.00  0.00    +0.000 S 
BRANCH   7  13
ATOM     12  O   UNL     1       7.872   4.414  16.639  0.00  0.00    +0.000 OA
ATOM     13  C   UNL     1       6.824   4.577  16.011  0.00  0.00    +0.000 C 
BRANCH  13  14
ATOM     14  C   UNL     1       6.901   4.461  14.528  0.00  0.00    +0.000 A 
ATOM     15  C   UNL     1       7.730   5.351  13.832  0.00  0.00    +0.000 A 
ATOM     16  C   UNL     1       7.799   5.300  12.439  0.00  0.00    +0.000 A 
ATOM     17  C   UNL     1       7.033   4.371  11.736  0.00  0.00    +0.000 A 
ATOM     18  C   UNL     1       6.196   3.503  12.432  0.00  0.00    +0.000 A 
ATOM     19  C   UNL     1       6.118   3.543  13.817  0.00  0.00    +0.000 A 
BRANCH  18  20
ATOM     20  O   UNL     1       5.416   2.594  11.781  0.00  0.00    +0.000 OA
ATOM     21  H   UNL     1       4.605   3.033  11.484  0.00  0.00    +0.000 HD
ENDBRANCH  18  20
ENDBRANCH  13  14
ENDBRANCH   7  13
ENDBRANCH   1  10
BRANCH   5  22
ATOM     22  N   UNL     1       1.330  10.329  17.994  0.00  0.00    +0.000 N 
ATOM     23  H   UNL     1       0.957  10.262  17.045  0.00  0.00    +0.000 HD
BRANCH  22  24
ATOM     24  S   UNL     1       0.474  11.457  18.898  0.00  0.00    +0.000 S 
ATOM     25  O   UNL     1       0.710  11.161  20.294  0.00  0.00    +0.000 OA
ATOM     26  O   UNL     1       0.779  12.774  18.376  0.00  0.00    +0.000 OA
BRANCH  24  27
ATOM     27  C   UNL     1      -1.236  11.124  18.600  0.00  0.00    +0.000 A 
ATOM     28  C   UNL     1      -1.556  10.207  17.589  0.00  0.00    +0.000 A 
ATOM     29  C   UNL     1      -2.878  10.047  17.172  0.00  0.00    +0.000 A 
ATOM     30  C   UNL     1      -3.894  10.796  17.765  0.00  0.00    +0.000 A 
ATOM     31  C   UNL     1      -3.593  11.694  18.792  0.00  0.00    +0.000 A 
ATOM     32  C   UNL     1      -2.259  11.855  19.203  0.00  0.00    +0.000 A 
BRANCH  32  33
ATOM     33  N   UNL     1      -2.007  12.774  20.296  0.00  0.00    +0.000 N 
ATOM     34  O   UNL     1      -2.131  12.338  21.443  0.00  0.00    +0.000 OA
ATOM     35  O   UNL     1      -1.789  13.955  20.000  0.00  0.00    +0.000 OA
ENDBRANCH  32  33
ENDBRANCH  24  27
ENDBRANCH  22  24
ENDBRANCH   5  22
TORSDOF 8
ENDMDL
MODEL 5
REMARK VINA RESULT:      -8.4      1.539      2.072
REMARK  Name = 
REMARK  8 active torsions:
REMARK  status: ('A' for Active; 'I' for Inactive)
REMARK    1  A    between atoms: C_2  and  C_3
REMARK    2  A    between atoms: C_2  and  C_10
REMARK    3  A    between atoms: C_7  and  O_8
REMARK    4  A    between atoms: C_13  and  C_14
REMARK    5  A    between atoms: C_18  and  N_19
REMARK    6  A    between atoms: N_19  and  S_20
REMARK    7  A    between atoms: S_20  and  C_23
REMARK    8  A    between atoms: C_28  and  N_29
REMARK                            x       y       z     vdW  Elec       q    Type
REMARK                         _______ _______ _______ _____ _____    ______ ____
ROOT
ATOM      1  C   UNL     1       0.678   9.267  20.963  0.00  0.00    +0.000 A 
ATOM      2  C   UNL     1       0.713   8.877  22.313  0.00  0.00    +0.000 A 
ATOM      3  C   UNL     1      -0.022   9.581  23.267  0.00  0.00    +0.000 A 
ATOM      4  C   UNL     1      -0.798  10.672  22.885  0.00  0.00    +0.000 A 
ATOM      5  C   UNL     1      -0.847  11.062  21.551  0.00  0.00    +0.000 A 
ATOM      6  C   UNL     1      -0.115  10.367  20.597  0.00  0.00    +0.000 A 
ENDROOT
BRANCH   1  10
ATOM      7  C   UNL     1       2.623   6.913  18.518  0.00  0.00    +0.000 A 
ATOM      8  C   UNL     1       2.395   8.091  17.839  0.00  0.00    +0.000 A 
ATOM      9  C   UNL     1       1.713   9.044  18.637  0.00  0.00    +0.000 A 
ATOM     10  C   UNL     1       1.442   8.583  19.913  0.00  0.00    +0.000 A 
ATOM     11  S   UNL     1       2.084   7.013  20.139  0.00  0.00    +0.000 S 
BRANCH   7  13
ATOM     12  O   UNL     1       2.707   4.756  17.592  0.00  0.00    +0.000 OA
ATOM     13  C   UNL     1       3.314   5.749  17.997  0.00  0.00    +0.000 C 
BRANCH  13  14
ATOM     14  C   UNL     1       4.803   5.687  17.971  0.00  0.00    +0.000 A 
ATOM     15  C   UNL     1       5.445   5.604  16.729  0.00  0.00    +0.000 A 
ATOM     16  C   UNL     1       6.835   5.504  16.665  0.00  0.00    +0.000 A 
ATOM     17  C   UNL     1       7.588   5.473  17.839  0.00  0.00    +0.000 A 
ATOM     18  C   UNL     1       6.942   5.535  19.070  0.00  0.00    +0.000 A 
ATOM     19  C   UNL     1       5.560   5.635  19.148  0.00  0.00    +0.000 A 
BRANCH  18  20
ATOM     20  O   UNL     1       7.638   5.488  20.241  0.00  0.00    +0.000 OA
ATOM     21  H   UNL     1       8.509   5.891  20.104  0.00  0.00    +0.000 HD
ENDBRANCH  18  20
ENDBRANCH  13  14
ENDBRANCH   7  13
ENDBRANCH   1  10
BRANCH   5  22
ATOM     22  N   UNL     1      -1.698  12.135  21.172  0.00  0.00    +0.000 N 
ATOM     23  H   UNL     1      -2.680  12.065  21.447  0.00  0.00    +0.000 HD
BRANCH  22  24
ATOM     24  S   UNL     1      -1.130  13.704  21.362  0.00  0.00    +0.000 S 
ATOM     25  O   UNL     1       0.292  13.622  21.612  0.00  0.00    +0.000 OA
ATOM     26  O   UNL     1      -1.624  14.496  20.254  0.00  0.00    +0.000 OA
BRANCH  24  27
ATOM     27  C   UNL     1      -1.864  14.312  22.850  0.00  0.00    +0.000 A 
ATOM     28  C   UNL     1      -1.015  14.879  23.812  0.00  0.00    +0.000 A 
ATOM     29  C   UNL     1      -1.499  15.196  25.082  0.00  0.00    +0.000 A 
ATOM     30  C   UNL     1      -2.835  14.957  25.402  0.00  0.00    +0.000 A 
ATOM     31  C   UNL     1      -3.698  14.417  24.445  0.00  0.00    +0.000 A 
ATOM     32  C   UNL     1      -3.203  14.093  23.170  0.00  0.00    +0.000 A 
BRANCH  32  33
ATOM     33  N   UNL     1      -4.149  13.568  22.204  0.00  0.00    +0.000 N 
ATOM     34  O   UNL     1      -4.679  14.372  21.435  0.00  0.00    +0.000 OA
ATOM     35  O   UNL     1      -4.435  12.367  22.292  0.00  0.00    +0.000 OA
ENDBRANCH  32  33
ENDBRANCH  24  27
ENDBRANCH  22  24
ENDBRANCH   5  22
TORSDOF 8
ENDMDL
MODEL 6
REMARK VINA RESULT:      -8.4      3.383     11.013
REMARK  Name = 
REMARK  8 active torsions:
REMARK  status: ('A' for Active; 'I' for Inactive)
REMARK    1  A    between atoms: C_2  and  C_3
REMARK    2  A    between atoms: C_2  and  C_10
REMARK    3  A    between atoms: C_7  and  O_8
REMARK    4  A    between atoms: C_13  and  C_14
REMARK    5  A    between atoms: C_18  and  N_19
REMARK    6  A    between atoms: N_19  and  S_20
REMARK    7  A    between atoms: S_20  and  C_23
REMARK    8  A    between atoms: C_28  and  N_29
REMARK                            x       y       z     vdW  Elec       q    Type
REMARK                         _______ _______ _______ _____ _____    ______ ____
ROOT
ATOM      1  C   UNL     1       1.633   8.425  19.749  0.00  0.00    +0.000 A 
ATOM      2  C   UNL     1       1.950   8.976  18.496  0.00  0.00    +0.000 A 
ATOM      3  C   UNL     1       2.677   8.234  17.565  0.00  0.00    +0.000 A 
ATOM      4  C   UNL     1       3.088   6.939  17.872  0.00  0.00    +0.000 A 
ATOM      5  C   UNL     1       2.774   6.380  19.107  0.00  0.00    +0.000 A 
ATOM      6  C   UNL     1       2.052   7.116  20.038  0.00  0.00    +0.000 A 
ENDROOT
BRANCH   1  10
ATOM      7  C   UNL     1      -0.352  10.865  22.075  0.00  0.00    +0.000 A 
ATOM      8  C   UNL     1      -0.467   9.606  22.627  0.00  0.00    +0.000 A 
ATOM      9  C   UNL     1       0.238   8.629  21.881  0.00  0.00    +0.000 A 
ATOM     10  C   UNL     1       0.889   9.158  20.780  0.00  0.00    +0.000 A 
ATOM     11  S   UNL     1       0.681  10.855  20.711  0.00  0.00    +0.000 S 
BRANCH   7  13
ATOM     12  O   UNL     1      -0.251  12.942  23.165  0.00  0.00    +0.000 OA
ATOM     13  C   UNL     1      -0.933  12.084  22.604  0.00  0.00    +0.000 C 
BRANCH  13  14
ATOM     14  C   UNL     1      -2.401  12.330  22.530  0.00  0.00    +0.000 A 
ATOM     15  C   UNL     1      -2.973  12.579  21.276  0.00  0.00    +0.000 A 
ATOM     16  C   UNL     1      -4.338  12.852  21.170  0.00  0.00    +0.000 A 
ATOM     17  C   UNL     1      -5.132  12.892  22.316  0.00  0.00    +0.000 A 
ATOM     18  C   UNL     1      -4.553  12.665  23.561  0.00  0.00    +0.000 A 
ATOM     19  C   UNL     1      -3.198  12.390  23.680  0.00  0.00    +0.000 A 
BRANCH  18  20
ATOM     20  O   UNL     1      -5.290  12.714  24.706  0.00  0.00    +0.000 OA
ATOM     21  H   UNL     1      -5.115  13.555  25.156  0.00  0.00    +0.000 HD
ENDBRANCH  18  20
ENDBRANCH  13  14
ENDBRANCH   7  13
ENDBRANCH   1  10
BRANCH   5  22
ATOM     22  N   UNL     1       3.144   5.035  19.374  0.00  0.00    +0.000 N 
ATOM     23  H   UNL     1       2.584   4.304  18.929  0.00  0.00    +0.000 HD
BRANCH  22  24
ATOM     24  S   UNL     1       4.776   4.641  19.348  0.00  0.00    +0.000 S 
ATOM     25  O   UNL     1       5.506   5.788  19.842  0.00  0.00    +0.000 OA
ATOM     26  O   UNL     1       4.936   3.352  19.991  0.00  0.00    +0.000 OA
BRANCH  24  27
ATOM     27  C   UNL     1       5.210   4.470  17.644  0.00  0.00    +0.000 A 
ATOM     28  C   UNL     1       6.314   5.198  17.175  0.00  0.00    +0.000 A 
ATOM     29  C   UNL     1       6.589   5.262  15.809  0.00  0.00    +0.000 A 
ATOM     30  C   UNL     1       5.770   4.596  14.898  0.00  0.00    +0.000 A 
ATOM     31  C   UNL     1       4.683   3.845  15.353  0.00  0.00    +0.000 A 
ATOM     32  C   UNL     1       4.408   3.789  16.729  0.00  0.00    +0.000 A 
BRANCH  32  33
ATOM     33  N   UNL     1       3.288   2.969  17.150  0.00  0.00    +0.000 N 
ATOM     34  O   UNL     1       2.164   3.469  17.089  0.00  0.00    +0.000 OA
ATOM     35  O   UNL     1       3.553   1.864  17.640  0.00  0.00    +0.000 OA
ENDBRANCH  32  33
ENDBRANCH  24  27
ENDBRANCH  22  24
ENDBRANCH   5  22
TORSDOF 8
ENDMDL
MODEL 7
REMARK VINA RESULT:      -8.4      2.574      3.635
REMARK  Name = 
REMARK  8 active torsions:
REMARK  status: ('A' for Active; 'I' for Inactive)
REMARK    1  A    between atoms: C_2  and  C_3
REMARK    2  A    between atoms: C_2  and  C_10
REMARK    3  A    between atoms: C_7  and  O_8
REMARK    4  A    between atoms: C_13  and  C_14
REMARK    5  A    between atoms: C_18  and  N_19
REMARK    6  A    between atoms: N_19  and  S_20
REMARK    7  A    between atoms: S_20  and  C_23
REMARK    8  A    between atoms: C_28  and  N_29
REMARK                            x       y       z     vdW  Elec       q    Type
REMARK                         _______ _______ _______ _____ _____    ______ ____
ROOT
ATOM      1  C   UNL     1       0.221   9.874  21.038  0.00  0.00    +0.000 A 
ATOM      2  C   UNL     1       0.027   9.473  22.371  0.00  0.00    +0.000 A 
ATOM      3  C   UNL     1      -0.729  10.261  23.239  0.00  0.00    +0.000 A 
ATOM      4  C   UNL     1      -1.300  11.448  22.786  0.00  0.00    +0.000 A 
ATOM      5  C   UNL     1      -1.121  11.851  21.467  0.00  0.00    +0.000 A 
ATOM      6  C   UNL     1      -0.367  11.071  20.599  0.00  0.00    +0.000 A 
ENDROOT
BRANCH   1  10
ATOM      7  C   UNL     1       2.268   7.326  18.889  0.00  0.00    +0.000 A 
ATOM      8  C   UNL     1       2.024   8.419  18.085  0.00  0.00    +0.000 A 
ATOM      9  C   UNL     1       1.304   9.432  18.766  0.00  0.00    +0.000 A 
ATOM     10  C   UNL     1       1.021   9.102  20.079  0.00  0.00    +0.000 A 
ATOM     11  S   UNL     1       1.696   7.583  20.481  0.00  0.00    +0.000 S 
BRANCH   7  13
ATOM     12  O   UNL     1       3.977   6.175  17.761  0.00  0.00    +0.000 OA
ATOM     13  C   UNL     1       2.997   6.131  18.506  0.00  0.00    +0.000 C 
BRANCH  13  14
ATOM     14  C   UNL     1       2.558   4.783  18.965  0.00  0.00    +0.000 A 
ATOM     15  C   UNL     1       1.697   4.046  18.141  0.00  0.00    +0.000 A 
ATOM     16  C   UNL     1       1.233   2.796  18.552  0.00  0.00    +0.000 A 
ATOM     17  C   UNL     1       1.614   2.284  19.793  0.00  0.00    +0.000 A 
ATOM     18  C   UNL     1       2.452   3.030  20.615  0.00  0.00    +0.000 A 
ATOM     19  C   UNL     1       2.922   4.274  20.217  0.00  0.00    +0.000 A 
BRANCH  18  20
ATOM     20  O   UNL     1       2.832   2.575  21.842  0.00  0.00    +0.000 OA
ATOM     21  H   UNL     1       3.731   2.218  21.780  0.00  0.00    +0.000 HD
ENDBRANCH  18  20
ENDBRANCH  13  14
ENDBRANCH   7  13
ENDBRANCH   1  10
BRANCH   5  22
ATOM     22  N   UNL     1      -1.768  13.029  21.008  0.00  0.00    +0.000 N 
ATOM     23  H   UNL     1      -1.404  13.453  20.151  0.00  0.00    +0.000 HD
BRANCH  22  24
ATOM     24  S   UNL     1      -3.446  13.076  21.036  0.00  0.00    +0.000 S 
ATOM     25  O   UNL     1      -3.882  12.289  22.168  0.00  0.00    +0.000 OA
ATOM     26  O   UNL     1      -3.858  14.461  20.918  0.00  0.00    +0.000 OA
BRANCH  24  27
ATOM     27  C   UNL     1      -3.983  12.212  19.591  0.00  0.00    +0.000 A 
ATOM     28  C   UNL     1      -3.018  11.896  18.624  0.00  0.00    +0.000 A 
ATOM     29  C   UNL     1      -3.403  11.394  17.380  0.00  0.00    +0.000 A 
ATOM     30  C   UNL     1      -4.753  11.196  17.092  0.00  0.00    +0.000 A 
ATOM     31  C   UNL     1      -5.723  11.482  18.056  0.00  0.00    +0.000 A 
ATOM     32  C   UNL     1      -5.330  11.993  19.304  0.00  0.00    +0.000 A 
BRANCH  32  33
ATOM     33  N   UNL     1      -6.374  12.240  20.280  0.00  0.00    +0.000 N 
ATOM     34  O   UNL     1      -6.736  11.289  20.976  0.00  0.00    +0.000 OA
ATOM     35  O   UNL     1      -6.900  13.359  20.271  0.00  0.00    +0.000 OA
ENDBRANCH  32  33
ENDBRANCH  24  27
ENDBRANCH  22  24
ENDBRANCH   5  22
TORSDOF 8
ENDMDL
MODEL 8
REMARK VINA RESULT:      -8.4      5.040     10.318
REMARK  Name = 
REMARK  8 active torsions:
REMARK  status: ('A' for Active; 'I' for Inactive)
REMARK    1  A    between atoms: C_2  and  C_3
REMARK    2  A    between atoms: C_2  and  C_10
REMARK    3  A    between atoms: C_7  and  O_8
REMARK    4  A    between atoms: C_13  and  C_14
REMARK    5  A    between atoms: C_18  and  N_19
REMARK    6  A    between atoms: N_19  and  S_20
REMARK    7  A    between atoms: S_20  and  C_23
REMARK    8  A    between atoms: C_28  and  N_29
REMARK                            x       y       z     vdW  Elec       q    Type
REMARK                         _______ _______ _______ _____ _____    ______ ____
ROOT
ATOM      1  C   UNL     1       2.264   5.246  20.217  0.00  0.00    +0.000 A 
ATOM      2  C   UNL     1       1.617   4.304  21.034  0.00  0.00    +0.000 A 
ATOM      3  C   UNL     1       2.006   2.964  21.005  0.00  0.00    +0.000 A 
ATOM      4  C   UNL     1       3.042   2.555  20.169  0.00  0.00    +0.000 A 
ATOM      5  C   UNL     1       3.696   3.481  19.362  0.00  0.00    +0.000 A 
ATOM      6  C   UNL     1       3.311   4.816  19.385  0.00  0.00    +0.000 A 
ENDROOT
BRANCH   1  10
ATOM      7  C   UNL     1       1.255   8.955  19.491  0.00  0.00    +0.000 A 
ATOM      8  C   UNL     1       1.066   8.748  20.841  0.00  0.00    +0.000 A 
ATOM      9  C   UNL     1       1.425   7.435  21.236  0.00  0.00    +0.000 A 
ATOM     10  C   UNL     1       1.892   6.666  20.185  0.00  0.00    +0.000 A 
ATOM     11  S   UNL     1       1.947   7.582  18.741  0.00  0.00    +0.000 S 
BRANCH   7  13
ATOM     12  O   UNL     1       1.922  10.934  18.415  0.00  0.00    +0.000 OA
ATOM     13  C   UNL     1       1.006  10.191  18.775  0.00  0.00    +0.000 C 
BRANCH  13  14
ATOM     14  C   UNL     1      -0.383  10.644  18.482  0.00  0.00    +0.000 A 
ATOM     15  C   UNL     1      -0.918  11.691  19.244  0.00  0.00    +0.000 A 
ATOM     16  C   UNL     1      -2.228  12.117  19.026  0.00  0.00    +0.000 A 
ATOM     17  C   UNL     1      -3.014  11.491  18.059  0.00  0.00    +0.000 A 
ATOM     18  C   UNL     1      -2.484  10.438  17.320  0.00  0.00    +0.000 A 
ATOM     19  C   UNL     1      -1.181  10.005  17.526  0.00  0.00    +0.000 A 
BRANCH  18  20
ATOM     20  O   UNL     1      -3.225   9.787  16.379  0.00  0.00    +0.000 OA
ATOM     21  H   UNL     1      -2.899  10.031  15.499  0.00  0.00    +0.000 HD
ENDBRANCH  18  20
ENDBRANCH  13  14
ENDBRANCH   7  13
ENDBRANCH   1  10
BRANCH   5  22
ATOM     22  N   UNL     1       4.794   3.056  18.568  0.00  0.00    +0.000 N 
ATOM     23  H   UNL     1       4.911   2.048  18.442  0.00  0.00    +0.000 HD
BRANCH  22  24
ATOM     24  S   UNL     1       5.109   3.881  17.140  0.00  0.00    +0.000 S 
ATOM     25  O   UNL     1       5.711   2.940  16.221  0.00  0.00    +0.000 OA
ATOM     26  O   UNL     1       3.905   4.593  16.759  0.00  0.00    +0.000 OA
BRANCH  24  27
ATOM     27  C   UNL     1       6.357   5.069  17.528  0.00  0.00    +0.000 A 
ATOM     28  C   UNL     1       6.946   5.006  18.799  0.00  0.00    +0.000 A 
ATOM     29  C   UNL     1       7.790   6.027  19.238  0.00  0.00    +0.000 A 
ATOM     30  C   UNL     1       8.060   7.116  18.411  0.00  0.00    +0.000 A 
ATOM     31  C   UNL     1       7.502   7.179  17.132  0.00  0.00    +0.000 A 
ATOM     32  C   UNL     1       6.648   6.152  16.698  0.00  0.00    +0.000 A 
BRANCH  32  33
ATOM     33  N   UNL     1       6.123   6.249  15.349  0.00  0.00    +0.000 N 
ATOM     34  O   UNL     1       5.109   6.931  15.184  0.00  0.00    +0.000 OA
ATOM     35  O   UNL     1       6.668   5.556  14.481  0.00  0.00    +0.000 OA
ENDBRANCH  32  33
ENDBRANCH  24  27
ENDBRANCH  22  24
ENDBRANCH   5  22
TORSDOF 8
ENDMDL
MODEL 9
REMARK VINA RESULT:      -8.4      2.293      3.109
REMARK  Name = 
REMARK  8 active torsions:
REMARK  status: ('A' for Active; 'I' for Inactive)
REMARK    1  A    between atoms: C_2  and  C_3
REMARK    2  A    between atoms: C_2  and  C_10
REMARK    3  A    between atoms: C_7  and  O_8
REMARK    4  A    between atoms: C_13  and  C_14
REMARK    5  A    between atoms: C_18  and  N_19
REMARK    6  A    between atoms: N_19  and  S_20
REMARK    7  A    between atoms: S_20  and  C_23
REMARK    8  A    between atoms: C_28  and  N_29
REMARK                            x       y       z     vdW  Elec       q    Type
REMARK                         _______ _______ _______ _____ _____    ______ ____
ROOT
ATOM      1  C   UNL     1       0.705   9.437  20.717  0.00  0.00    +0.000 A 
ATOM      2  C   UNL     1       0.321   8.816  21.918  0.00  0.00    +0.000 A 
ATOM      3  C   UNL     1      -0.385   9.532  22.885  0.00  0.00    +0.000 A 
ATOM      4  C   UNL     1      -0.718  10.866  22.662  0.00  0.00    +0.000 A 
ATOM      5  C   UNL     1      -0.351  11.488  21.473  0.00  0.00    +0.000 A 
ATOM      6  C   UNL     1       0.355  10.781  20.508  0.00  0.00    +0.000 A 
ENDROOT
BRANCH   1  10
ATOM      7  C   UNL     1       2.698   7.087  18.307  0.00  0.00    +0.000 A 
ATOM      8  C   UNL     1       2.355   8.206  17.578  0.00  0.00    +0.000 A 
ATOM      9  C   UNL     1       1.644   9.154  18.357  0.00  0.00    +0.000 A 
ATOM     10  C   UNL     1       1.466   8.748  19.668  0.00  0.00    +0.000 A 
ATOM     11  S   UNL     1       2.229   7.242  19.945  0.00  0.00    +0.000 S 
BRANCH   7  13
ATOM     12  O   UNL     1       4.498   6.075  17.188  0.00  0.00    +0.000 OA
ATOM     13  C   UNL     1       3.445   5.946  17.815  0.00  0.00    +0.000 C 
BRANCH  13  14
ATOM     14  C   UNL     1       2.942   4.557  18.009  0.00  0.00    +0.000 A 
ATOM     15  C   UNL     1       1.568   4.366  18.203  0.00  0.00    +0.000 A 
ATOM     16  C   UNL     1       1.063   3.084  18.427  0.00  0.00    +0.000 A 
ATOM     17  C   UNL     1       1.929   1.992  18.472  0.00  0.00    +0.000 A 
ATOM     18  C   UNL     1       3.295   2.191  18.300  0.00  0.00    +0.000 A 
ATOM     19  C   UNL     1       3.810   3.460  18.075  0.00  0.00    +0.000 A 
BRANCH  18  20
ATOM     20  O   UNL     1       4.177   1.152  18.357  0.00  0.00    +0.000 OA
ATOM     21  H   UNL     1       4.862   1.286  17.684  0.00  0.00    +0.000 HD
ENDBRANCH  18  20
ENDBRANCH  13  14
ENDBRANCH   7  13
ENDBRANCH   1  10
BRANCH   5  22
ATOM     22  N   UNL     1      -0.759  12.828  21.237  0.00  0.00    +0.000 N 
ATOM     23  H   UNL     1      -1.746  13.046  21.396  0.00  0.00    +0.000 HD
BRANCH  22  24
ATOM     24  S   UNL     1       0.227  14.069  21.793  0.00  0.00    +0.000 S 
ATOM     25  O   UNL     1      -0.265  14.462  23.095  0.00  0.00    +0.000 OA
ATOM     26  O   UNL     1       1.605  13.650  21.638  0.00  0.00    +0.000 OA
BRANCH  24  27
ATOM     27  C   UNL     1      -0.062  15.440  20.717  0.00  0.00    +0.000 A 
ATOM     28  C   UNL     1      -0.499  16.642  21.293  0.00  0.00    +0.000 A 
ATOM     29  C   UNL     1      -0.931  17.696  20.487  0.00  0.00    +0.000 A 
ATOM     30  C   UNL     1      -0.925  17.564  19.099  0.00  0.00    +0.000 A 
ATOM     31  C   UNL     1      -0.466  16.382  18.511  0.00  0.00    +0.000 A 
ATOM     32  C   UNL     1      -0.038  15.322  19.327  0.00  0.00    +0.000 A 
BRANCH  32  33
ATOM     33  N   UNL     1       0.460  14.132  18.665  0.00  0.00    +0.000 N 
ATOM     34  O   UNL     1       1.673  14.064  18.460  0.00  0.00    +0.000 OA
ATOM     35  O   UNL     1      -0.381  13.320  18.259  0.00  0.00    +0.000 OA
ENDBRANCH  32  33
ENDBRANCH  24  27
ENDBRANCH  22  24
ENDBRANCH   5  22
TORSDOF 8
ENDMDL
