MODEL 1
REMARK VINA RESULT:      -8.0      0.000      0.000
REMARK  Name = 
REMARK  4 active torsions:
REMARK  status: ('A' for Active; 'I' for Inactive)
REMARK    1  A    between atoms: N_2  and  C_4
REMARK    2  A    between atoms: C_7  and  O_8
REMARK    3  A    between atoms: O_8  and  C_9
REMARK    4  A    between atoms: C_18  and  N_19
REMARK                            x       y       z     vdW  Elec       q    Type
REMARK                         _______ _______ _______ _____ _____    ______ ____
ROOT
ATOM      1  C   UNL     1       3.403   5.274  17.728  0.00  0.00    +0.000 C 
ATOM      2  C   UNL     1       2.056   4.816  17.152  0.00  0.00    +0.000 C 
ATOM      3  C   UNL     1       1.580   3.534  17.830  0.00  0.00    +0.000 C 
ATOM      4  C   UNL     1       1.805   3.504  19.322  0.00  0.00    +0.000 A 
ATOM      5  C   UNL     1       1.297   2.417  20.046  0.00  0.00    +0.000 A 
ATOM      6  C   UNL     1       1.426   2.365  21.434  0.00  0.00    +0.000 A 
ATOM      7  C   UNL     1       2.051   3.405  22.113  0.00  0.00    +0.000 A 
ATOM      8  C   UNL     1       2.604   4.471  21.402  0.00  0.00    +0.000 A 
ATOM      9  C   UNL     1       2.519   4.513  19.999  0.00  0.00    +0.000 A 
ATOM     10  C   UNL     1       3.192   5.644  19.229  0.00  0.00    +0.000 C 
ENDROOT
BRANCH  10  11
ATOM     11  N   UNL     1       2.467   6.912  19.382  0.00  0.00    +0.000 N 
ATOM     12  C   UNL     1       1.797   7.325  20.505  0.00  0.00    +0.000 A 
ATOM     13  C   UNL     1       1.313   8.576  20.206  0.00  0.00    +0.000 A 
ATOM     14  N   UNL     1       1.682   8.947  18.942  0.00  0.00    +0.000 NA
ATOM     15  C   UNL     1       2.371   7.934  18.469  0.00  0.00    +0.000 A 
ENDBRANCH  10  11
BRANCH   1  16
ATOM     16  O   UNL     1       4.422   4.239  17.619  0.00  0.00    +0.000 OA
BRANCH  16  20
ATOM     17  C   UNL     1       6.924   4.828  14.342  0.00  0.00    +0.000 A 
ATOM     18  C   UNL     1       7.379   5.188  15.615  0.00  0.00    +0.000 A 
ATOM     19  C   UNL     1       6.575   4.947  16.732  0.00  0.00    +0.000 A 
ATOM     20  C   UNL     1       5.307   4.381  16.580  0.00  0.00    +0.000 A 
ATOM     21  C   UNL     1       4.881   3.966  15.312  0.00  0.00    +0.000 A 
ATOM     22  C   UNL     1       5.682   4.195  14.185  0.00  0.00    +0.000 A 
BRANCH  17  24
ATOM     23  O   UNL     1       8.687   5.935  13.315  0.00  0.00    +0.000 OA
ATOM     24  N   UNL     1       7.751   5.134  13.165  0.00  0.00    +0.000 N 
ATOM     25  O   UNL     1       7.456   4.588  12.093  0.00  0.00    +0.000 OA
ENDBRANCH  17  24
ENDBRANCH  16  20
ENDBRANCH   1  16
TORSDOF 4
ENDMDL
MODEL 2
REMARK VINA RESULT:      -7.9      3.241      6.894
REMARK  Name = 
REMARK  4 active torsions:
REMARK  status: ('A' for Active; 'I' for Inactive)
REMARK    1  A    between atoms: N_2  and  C_4
REMARK    2  A    between atoms: C_7  and  O_8
REMARK    3  A    between atoms: O_8  and  C_9
REMARK    4  A    between atoms: C_18  and  N_19
REMARK                            x       y       z     vdW  Elec       q    Type
REMARK                         _______ _______ _______ _____ _____    ______ ____
ROOT
ATOM      1  C   UNL     1       2.409   5.417  18.429  0.00  0.00    +0.000 C 
ATOM      2  C   UNL     1       2.425   4.287  17.389  0.00  0.00    +0.000 C 
ATOM      3  C   UNL     1       3.711   4.321  16.567  0.00  0.00    +0.000 C 
ATOM      4  C   UNL     1       4.952   4.614  17.373  0.00  0.00    +0.000 A 
ATOM      5  C   UNL     1       6.193   4.552  16.725  0.00  0.00    +0.000 A 
ATOM      6  C   UNL     1       7.376   4.757  17.433  0.00  0.00    +0.000 A 
ATOM      7  C   UNL     1       7.333   5.013  18.799  0.00  0.00    +0.000 A 
ATOM      8  C   UNL     1       6.104   5.126  19.450  0.00  0.00    +0.000 A 
ATOM      9  C   UNL     1       4.902   4.964  18.738  0.00  0.00    +0.000 A 
ATOM     10  C   UNL     1       3.566   5.163  19.444  0.00  0.00    +0.000 C 
ENDROOT
BRANCH  10  11
ATOM     11  N   UNL     1       3.260   4.050  20.352  0.00  0.00    +0.000 N 
ATOM     12  C   UNL     1       3.802   2.792  20.293  0.00  0.00    +0.000 A 
ATOM     13  C   UNL     1       3.260   2.107  21.355  0.00  0.00    +0.000 A 
ATOM     14  N   UNL     1       2.419   2.913  22.071  0.00  0.00    +0.000 NA
ATOM     15  C   UNL     1       2.435   4.071  21.451  0.00  0.00    +0.000 A 
ENDBRANCH  10  11
BRANCH   1  16
ATOM     16  O   UNL     1       2.579   6.726  17.813  0.00  0.00    +0.000 OA
BRANCH  16  20
ATOM     17  C   UNL     1       0.939   9.960  19.862  0.00  0.00    +0.000 A 
ATOM     18  C   UNL     1       1.268   8.802  20.575  0.00  0.00    +0.000 A 
ATOM     19  C   UNL     1       1.870   7.729  19.914  0.00  0.00    +0.000 A 
ATOM     20  C   UNL     1       2.112   7.792  18.540  0.00  0.00    +0.000 A 
ATOM     21  C   UNL     1       1.837   8.974  17.842  0.00  0.00    +0.000 A 
ATOM     22  C   UNL     1       1.241  10.062  18.496  0.00  0.00    +0.000 A 
BRANCH  17  24
ATOM     23  O   UNL     1      -0.495  11.786  19.876  0.00  0.00    +0.000 OA
ATOM     24  N   UNL     1       0.256  11.065  20.551  0.00  0.00    +0.000 N 
ATOM     25  O   UNL     1       0.482  11.220  21.759  0.00  0.00    +0.000 OA
ENDBRANCH  17  24
ENDBRANCH  16  20
ENDBRANCH   1  16
TORSDOF 4
ENDMDL
MODEL 3
REMARK VINA RESULT:      -7.9      0.596      1.060
REMARK  Name = 
REMARK  4 active torsions:
REMARK  status: ('A' for Active; 'I' for Inactive)
REMARK    1  A    between atoms: N_2  and  C_4
REMARK    2  A    between atoms: C_7  and  O_8
REMARK    3  A    between atoms: O_8  and  C_9
REMARK    4  A    between atoms: C_18  and  N_19
REMARK                            x       y       z     vdW  Elec       q    Type
REMARK                         _______ _______ _______ _____ _____    ______ ____
ROOT
ATOM      1  C   UNL     1       3.676   5.650  18.052  0.00  0.00    +0.000 C 
ATOM      2  C   UNL     1       2.454   5.233  17.221  0.00  0.00    +0.000 C 
ATOM      3  C   UNL     1       1.935   3.866  17.663  0.00  0.00    +0.000 C 
ATOM      4  C   UNL     1       1.929   3.661  19.158  0.00  0.00    +0.000 A 
ATOM      5  C   UNL     1       1.363   2.482  19.662  0.00  0.00    +0.000 A 
ATOM      6  C   UNL     1       1.278   2.266  21.037  0.00  0.00    +0.000 A 
ATOM      7  C   UNL     1       1.746   3.232  21.922  0.00  0.00    +0.000 A 
ATOM      8  C   UNL     1       2.356   4.388  21.435  0.00  0.00    +0.000 A 
ATOM      9  C   UNL     1       2.486   4.598  20.051  0.00  0.00    +0.000 A 
ATOM     10  C   UNL     1       3.220   5.830  19.533  0.00  0.00    +0.000 C 
ENDROOT
BRANCH  10  11
ATOM     11  N   UNL     1       2.426   7.052  19.715  0.00  0.00    +0.000 N 
ATOM     12  C   UNL     1       2.264   8.052  18.791  0.00  0.00    +0.000 A 
ATOM     13  C   UNL     1       1.416   8.962  19.376  0.00  0.00    +0.000 A 
ATOM     14  N   UNL     1       1.041   8.539  20.622  0.00  0.00    +0.000 NA
ATOM     15  C   UNL     1       1.658   7.394  20.802  0.00  0.00    +0.000 A 
ENDBRANCH  10  11
BRANCH   1  16
ATOM     16  O   UNL     1       4.743   4.661  17.986  0.00  0.00    +0.000 OA
BRANCH  16  20
ATOM     17  C   UNL     1       6.981   4.926  14.484  0.00  0.00    +0.000 A 
ATOM     18  C   UNL     1       7.285   5.781  15.549  0.00  0.00    +0.000 A 
ATOM     19  C   UNL     1       6.582   5.668  16.751  0.00  0.00    +0.000 A 
ATOM     20  C   UNL     1       5.554   4.732  16.881  0.00  0.00    +0.000 A 
ATOM     21  C   UNL     1       5.294   3.838  15.835  0.00  0.00    +0.000 A 
ATOM     22  C   UNL     1       5.999   3.935  14.628  0.00  0.00    +0.000 A 
BRANCH  17  24
ATOM     23  O   UNL     1       7.302   4.398  12.246  0.00  0.00    +0.000 OA
ATOM     24  N   UNL     1       7.688   5.085  13.204  0.00  0.00    +0.000 N 
ATOM     25  O   UNL     1       8.634   5.883  13.162  0.00  0.00    +0.000 OA
ENDBRANCH  17  24
ENDBRANCH  16  20
ENDBRANCH   1  16
TORSDOF 4
ENDMDL
MODEL 4
REMARK VINA RESULT:      -7.8      3.805      7.641
REMARK  Name = 
REMARK  4 active torsions:
REMARK  status: ('A' for Active; 'I' for Inactive)
REMARK    1  A    between atoms: N_2  and  C_4
REMARK    2  A    between atoms: C_7  and  O_8
REMARK    3  A    between atoms: O_8  and  C_9
REMARK    4  A    between atoms: C_18  and  N_19
REMARK                            x       y       z     vdW  Elec       q    Type
REMARK                         _______ _______ _______ _____ _____    ______ ____
ROOT
ATOM      1  C   UNL     1       2.556   6.119  19.284  0.00  0.00    +0.000 C 
ATOM      2  C   UNL     1       2.409   6.312  17.768  0.00  0.00    +0.000 C 
ATOM      3  C   UNL     1       3.646   6.987  17.181  0.00  0.00    +0.000 C 
ATOM      4  C   UNL     1       4.952   6.485  17.748  0.00  0.00    +0.000 A 
ATOM      5  C   UNL     1       6.144   6.963  17.189  0.00  0.00    +0.000 A 
ATOM      6  C   UNL     1       7.378   6.492  17.634  0.00  0.00    +0.000 A 
ATOM      7  C   UNL     1       7.433   5.527  18.635  0.00  0.00    +0.000 A 
ATOM      8  C   UNL     1       6.257   5.076  19.235  0.00  0.00    +0.000 A 
ATOM      9  C   UNL     1       5.008   5.576  18.824  0.00  0.00    +0.000 A 
ATOM     10  C   UNL     1       3.737   5.131  19.538  0.00  0.00    +0.000 C 
ENDROOT
BRANCH  10  11
ATOM     11  N   UNL     1       3.376   3.750  19.194  0.00  0.00    +0.000 N 
ATOM     12  C   UNL     1       2.430   2.985  19.826  0.00  0.00    +0.000 A 
ATOM     13  C   UNL     1       2.406   1.791  19.145  0.00  0.00    +0.000 A 
ATOM     14  N   UNL     1       3.295   1.810  18.105  0.00  0.00    +0.000 NA
ATOM     15  C   UNL     1       3.864   2.994  18.156  0.00  0.00    +0.000 A 
ENDBRANCH  10  11
BRANCH   1  16
ATOM     16  O   UNL     1       2.817   7.378  19.970  0.00  0.00    +0.000 OA
BRANCH  16  20
ATOM     17  C   UNL     1      -0.269  10.145  20.373  0.00  0.00    +0.000 A 
ATOM     18  C   UNL     1       0.459  10.111  19.178  0.00  0.00    +0.000 A 
ATOM     19  C   UNL     1       1.461   9.153  19.004  0.00  0.00    +0.000 A 
ATOM     20  C   UNL     1       1.762   8.253  20.030  0.00  0.00    +0.000 A 
ATOM     21  C   UNL     1       0.992   8.252  21.199  0.00  0.00    +0.000 A 
ATOM     22  C   UNL     1      -0.022   9.202  21.381  0.00  0.00    +0.000 A 
BRANCH  17  24
ATOM     23  O   UNL     1      -1.849  11.641  19.562  0.00  0.00    +0.000 OA
ATOM     24  N   UNL     1      -1.284  11.190  20.571  0.00  0.00    +0.000 N 
ATOM     25  O   UNL     1      -1.505  11.569  21.729  0.00  0.00    +0.000 OA
ENDBRANCH  17  24
ENDBRANCH  16  20
ENDBRANCH   1  16
TORSDOF 4
ENDMDL
MODEL 5
REMARK VINA RESULT:      -7.8      0.577      1.082
REMARK  Name = 
REMARK  4 active torsions:
REMARK  status: ('A' for Active; 'I' for Inactive)
REMARK    1  A    between atoms: N_2  and  C_4
REMARK    2  A    between atoms: C_7  and  O_8
REMARK    3  A    between atoms: O_8  and  C_9
REMARK    4  A    between atoms: C_18  and  N_19
REMARK                            x       y       z     vdW  Elec       q    Type
REMARK                         _______ _______ _______ _____ _____    ______ ____
ROOT
ATOM      1  C   UNL     1       3.230   5.517  17.868  0.00  0.00    +0.000 C 
ATOM      2  C   UNL     1       1.880   5.070  17.289  0.00  0.00    +0.000 C 
ATOM      3  C   UNL     1       1.443   3.737  17.891  0.00  0.00    +0.000 C 
ATOM      4  C   UNL     1       1.699   3.615  19.373  0.00  0.00    +0.000 A 
ATOM      5  C   UNL     1       1.227   2.473  20.035  0.00  0.00    +0.000 A 
ATOM      6  C   UNL     1       1.385   2.333  21.413  0.00  0.00    +0.000 A 
ATOM      7  C   UNL     1       2.004   3.340  22.147  0.00  0.00    +0.000 A 
ATOM      8  C   UNL     1       2.521   4.461  21.496  0.00  0.00    +0.000 A 
ATOM      9  C   UNL     1       2.407   4.592  20.101  0.00  0.00    +0.000 A 
ATOM     10  C   UNL     1       3.042   5.784  19.394  0.00  0.00    +0.000 C 
ENDROOT
BRANCH  10  11
ATOM     11  N   UNL     1       2.296   7.024  19.643  0.00  0.00    +0.000 N 
ATOM     12  C   UNL     1       1.631   7.344  20.799  0.00  0.00    +0.000 A 
ATOM     13  C   UNL     1       1.121   8.605  20.594  0.00  0.00    +0.000 A 
ATOM     14  N   UNL     1       1.469   9.071  19.357  0.00  0.00    +0.000 NA
ATOM     15  C   UNL     1       2.172   8.107  18.806  0.00  0.00    +0.000 A 
ENDBRANCH  10  11
BRANCH   1  16
ATOM     16  O   UNL     1       4.266   4.512  17.672  0.00  0.00    +0.000 OA
BRANCH  16  20
ATOM     17  C   UNL     1       6.665   4.971  14.299  0.00  0.00    +0.000 A 
ATOM     18  C   UNL     1       6.256   3.685  14.670  0.00  0.00    +0.000 A 
ATOM     19  C   UNL     1       5.405   3.518  15.766  0.00  0.00    +0.000 A 
ATOM     20  C   UNL     1       4.992   4.623  16.513  0.00  0.00    +0.000 A 
ATOM     21  C   UNL     1       5.354   5.912  16.103  0.00  0.00    +0.000 A 
ATOM     22  C   UNL     1       6.199   6.093  14.999  0.00  0.00    +0.000 A 
BRANCH  17  24
ATOM     23  O   UNL     1       7.373   4.498  12.139  0.00  0.00    +0.000 OA
ATOM     24  N   UNL     1       7.603   5.136  13.178  0.00  0.00    +0.000 N 
ATOM     25  O   UNL     1       8.573   5.887  13.343  0.00  0.00    +0.000 OA
ENDBRANCH  17  24
ENDBRANCH  16  20
ENDBRANCH   1  16
TORSDOF 4
ENDMDL
MODEL 6
REMARK VINA RESULT:      -7.8      3.220      6.882
REMARK  Name = 
REMARK  4 active torsions:
REMARK  status: ('A' for Active; 'I' for Inactive)
REMARK    1  A    between atoms: N_2  and  C_4
REMARK    2  A    between atoms: C_7  and  O_8
REMARK    3  A    between atoms: O_8  and  C_9
REMARK    4  A    between atoms: C_18  and  N_19
REMARK                            x       y       z     vdW  Elec       q    Type
REMARK                         _______ _______ _______ _____ _____    ______ ____
ROOT
ATOM      1  C   UNL     1       2.512   5.499  18.394  0.00  0.00    +0.000 C 
ATOM      2  C   UNL     1       2.537   4.372  17.351  0.00  0.00    +0.000 C 
ATOM      3  C   UNL     1       3.841   4.392  16.559  0.00  0.00    +0.000 C 
ATOM      4  C   UNL     1       5.068   4.664  17.394  0.00  0.00    +0.000 A 
ATOM      5  C   UNL     1       6.323   4.587  16.774  0.00  0.00    +0.000 A 
ATOM      6  C   UNL     1       7.492   4.773  17.509  0.00  0.00    +0.000 A 
ATOM      7  C   UNL     1       7.421   5.025  18.876  0.00  0.00    +0.000 A 
ATOM      8  C   UNL     1       6.179   5.152  19.498  0.00  0.00    +0.000 A 
ATOM      9  C   UNL     1       4.991   5.010  18.759  0.00  0.00    +0.000 A 
ATOM     10  C   UNL     1       3.642   5.225  19.435  0.00  0.00    +0.000 C 
ENDROOT
BRANCH  10  11
ATOM     11  N   UNL     1       3.301   4.113  20.331  0.00  0.00    +0.000 N 
ATOM     12  C   UNL     1       3.799   2.838  20.257  0.00  0.00    +0.000 A 
ATOM     13  C   UNL     1       3.236   2.160  21.312  0.00  0.00    +0.000 A 
ATOM     14  N   UNL     1       2.424   2.987  22.039  0.00  0.00    +0.000 NA
ATOM     15  C   UNL     1       2.479   4.151  21.432  0.00  0.00    +0.000 A 
ENDBRANCH  10  11
BRANCH   1  16
ATOM     16  O   UNL     1       2.715   6.808  17.787  0.00  0.00    +0.000 OA
BRANCH  16  20
ATOM     17  C   UNL     1       1.012  10.010  19.834  0.00  0.00    +0.000 A 
ATOM     18  C   UNL     1       1.212  10.118  18.453  0.00  0.00    +0.000 A 
ATOM     19  C   UNL     1       1.730   9.033  17.742  0.00  0.00    +0.000 A 
ATOM     20  C   UNL     1       2.083   7.857  18.407  0.00  0.00    +0.000 A 
ATOM     21  C   UNL     1       1.825   7.731  19.777  0.00  0.00    +0.000 A 
ATOM     22  C   UNL     1       1.297   8.809  20.501  0.00  0.00    +0.000 A 
BRANCH  17  24
ATOM     23  O   UNL     1       0.573  11.122  21.824  0.00  0.00    +0.000 OA
ATOM     24  N   UNL     1       0.518  11.173  20.586  0.00  0.00    +0.000 N 
ATOM     25  O   UNL     1       0.062  12.127  19.941  0.00  0.00    +0.000 OA
ENDBRANCH  17  24
ENDBRANCH  16  20
ENDBRANCH   1  16
TORSDOF 4
ENDMDL
MODEL 7
REMARK VINA RESULT:      -7.6      3.892      7.903
REMARK  Name = 
REMARK  4 active torsions:
REMARK  status: ('A' for Active; 'I' for Inactive)
REMARK    1  A    between atoms: N_2  and  C_4
REMARK    2  A    between atoms: C_7  and  O_8
REMARK    3  A    between atoms: O_8  and  C_9
REMARK    4  A    between atoms: C_18  and  N_19
REMARK                            x       y       z     vdW  Elec       q    Type
REMARK                         _______ _______ _______ _____ _____    ______ ____
ROOT
ATOM      1  C   UNL     1       2.165   6.485  19.226  0.00  0.00    +0.000 C 
ATOM      2  C   UNL     1       2.108   6.834  17.731  0.00  0.00    +0.000 C 
ATOM      3  C   UNL     1       3.453   7.368  17.245  0.00  0.00    +0.000 C 
ATOM      4  C   UNL     1       4.648   6.629  17.795  0.00  0.00    +0.000 A 
ATOM      5  C   UNL     1       5.919   6.974  17.316  0.00  0.00    +0.000 A 
ATOM      6  C   UNL     1       7.052   6.286  17.747  0.00  0.00    +0.000 A 
ATOM      7  C   UNL     1       6.926   5.237  18.651  0.00  0.00    +0.000 A 
ATOM      8  C   UNL     1       5.674   4.913  19.175  0.00  0.00    +0.000 A 
ATOM      9  C   UNL     1       4.529   5.628  18.781  0.00  0.00    +0.000 A 
ATOM     10  C   UNL     1       3.178   5.314  19.415  0.00  0.00    +0.000 C 
ENDROOT
BRANCH  10  11
ATOM     11  N   UNL     1       2.635   4.038  18.931  0.00  0.00    +0.000 N 
ATOM     12  C   UNL     1       1.718   3.255  19.584  0.00  0.00    +0.000 A 
ATOM     13  C   UNL     1       1.477   2.192  18.746  0.00  0.00    +0.000 A 
ATOM     14  N   UNL     1       2.203   2.313  17.593  0.00  0.00    +0.000 NA
ATOM     15  C   UNL     1       2.889   3.425  17.728  0.00  0.00    +0.000 A 
ENDBRANCH  10  11
BRANCH   1  16
ATOM     16  O   UNL     1       2.578   7.623  20.035  0.00  0.00    +0.000 OA
BRANCH  16  20
ATOM     17  C   UNL     1      -0.314  10.250  21.478  0.00  0.00    +0.000 A 
ATOM     18  C   UNL     1       0.094  10.357  20.144  0.00  0.00    +0.000 A 
ATOM     19  C   UNL     1       1.022   9.449  19.628  0.00  0.00    +0.000 A 
ATOM     20  C   UNL     1       1.570   8.459  20.446  0.00  0.00    +0.000 A 
ATOM     21  C   UNL     1       1.115   8.317  21.763  0.00  0.00    +0.000 A 
ATOM     22  C   UNL     1       0.177   9.216  22.289  0.00  0.00    +0.000 A 
BRANCH  17  24
ATOM     23  O   UNL     1      -1.581  11.117  23.220  0.00  0.00    +0.000 OA
ATOM     24  N   UNL     1      -1.249  11.241  22.030  0.00  0.00    +0.000 N 
ATOM     25  O   UNL     1      -1.662  12.131  21.274  0.00  0.00    +0.000 OA
ENDBRANCH  17  24
ENDBRANCH  16  20
ENDBRANCH   1  16
TORSDOF 4
ENDMDL
MODEL 8
REMARK VINA RESULT:      -7.6      3.800      7.424
REMARK  Name = 
REMARK  4 active torsions:
REMARK  status: ('A' for Active; 'I' for Inactive)
REMARK    1  A    between atoms: N_2  and  C_4
REMARK    2  A    between atoms: C_7  and  O_8
REMARK    3  A    between atoms: O_8  and  C_9
REMARK    4  A    between atoms: C_18  and  N_19
REMARK                            x       y       z     vdW  Elec       q    Type
REMARK                         _______ _______ _______ _____ _____    ______ ____
ROOT
ATOM      1  C   UNL     1       2.495   6.247  19.210  0.00  0.00    +0.000 C 
ATOM      2  C   UNL     1       2.404   6.383  17.683  0.00  0.00    +0.000 C 
ATOM      3  C   UNL     1       3.677   7.006  17.115  0.00  0.00    +0.000 C 
ATOM      4  C   UNL     1       4.950   6.497  17.746  0.00  0.00    +0.000 A 
ATOM      5  C   UNL     1       6.172   6.926  17.210  0.00  0.00    +0.000 A 
ATOM      6  C   UNL     1       7.378   6.444  17.717  0.00  0.00    +0.000 A 
ATOM      7  C   UNL     1       7.375   5.518  18.755  0.00  0.00    +0.000 A 
ATOM      8  C   UNL     1       6.168   5.118  19.330  0.00  0.00    +0.000 A 
ATOM      9  C   UNL     1       4.947   5.630  18.857  0.00  0.00    +0.000 A 
ATOM     10  C   UNL     1       3.642   5.243  19.543  0.00  0.00    +0.000 C 
ENDROOT
BRANCH  10  11
ATOM     11  N   UNL     1       3.260   3.858  19.240  0.00  0.00    +0.000 N 
ATOM     12  C   UNL     1       2.267   3.143  19.860  0.00  0.00    +0.000 A 
ATOM     13  C   UNL     1       2.241   1.923  19.227  0.00  0.00    +0.000 A 
ATOM     14  N   UNL     1       3.174   1.877  18.228  0.00  0.00    +0.000 NA
ATOM     15  C   UNL     1       3.771   3.047  18.256  0.00  0.00    +0.000 A 
ENDBRANCH  10  11
BRANCH   1  16
ATOM     16  O   UNL     1       2.763   7.525  19.856  0.00  0.00    +0.000 OA
BRANCH  16  20
ATOM     17  C   UNL     1      -0.442  10.164  19.521  0.00  0.00    +0.000 A 
ATOM     18  C   UNL     1      -0.271   9.453  20.714  0.00  0.00    +0.000 A 
ATOM     19  C   UNL     1       0.830   8.606  20.864  0.00  0.00    +0.000 A 
ATOM     20  C   UNL     1       1.739   8.438  19.817  0.00  0.00    +0.000 A 
ATOM     21  C   UNL     1       1.598   9.196  18.649  0.00  0.00    +0.000 A 
ATOM     22  C   UNL     1       0.503  10.057  18.490  0.00  0.00    +0.000 A 
BRANCH  17  24
ATOM     23  O   UNL     1      -1.782  11.955  20.140  0.00  0.00    +0.000 OA
ATOM     24  N   UNL     1      -1.631  11.012  19.349  0.00  0.00    +0.000 N 
ATOM     25  O   UNL     1      -2.417  10.726  18.435  0.00  0.00    +0.000 OA
ENDBRANCH  17  24
ENDBRANCH  16  20
ENDBRANCH   1  16
TORSDOF 4
ENDMDL
MODEL 9
REMARK VINA RESULT:      -7.5      3.777      6.863
REMARK  Name = 
REMARK  4 active torsions:
REMARK  status: ('A' for Active; 'I' for Inactive)
REMARK    1  A    between atoms: N_2  and  C_4
REMARK    2  A    between atoms: C_7  and  O_8
REMARK    3  A    between atoms: O_8  and  C_9
REMARK    4  A    between atoms: C_18  and  N_19
REMARK                            x       y       z     vdW  Elec       q    Type
REMARK                         _______ _______ _______ _____ _____    ______ ____
ROOT
ATOM      1  C   UNL     1       3.077   7.305  18.451  0.00  0.00    +0.000 C 
ATOM      2  C   UNL     1       2.872   7.028  19.948  0.00  0.00    +0.000 C 
ATOM      3  C   UNL     1       1.841   5.923  20.162  0.00  0.00    +0.000 C 
ATOM      4  C   UNL     1       1.962   4.769  19.197  0.00  0.00    +0.000 A 
ATOM      5  C   UNL     1       1.132   3.656  19.389  0.00  0.00    +0.000 A 
ATOM      6  C   UNL     1       1.241   2.538  18.563  0.00  0.00    +0.000 A 
ATOM      7  C   UNL     1       2.189   2.515  17.546  0.00  0.00    +0.000 A 
ATOM      8  C   UNL     1       2.989   3.634  17.312  0.00  0.00    +0.000 A 
ATOM      9  C   UNL     1       2.859   4.784  18.110  0.00  0.00    +0.000 A 
ATOM     10  C   UNL     1       3.686   6.026  17.798  0.00  0.00    +0.000 C 
ENDROOT
BRANCH  10  11
ATOM     11  N   UNL     1       5.097   5.845  18.163  0.00  0.00    +0.000 N 
ATOM     12  C   UNL     1       6.172   6.400  17.519  0.00  0.00    +0.000 A 
ATOM     13  C   UNL     1       7.277   5.993  18.229  0.00  0.00    +0.000 A 
ATOM     14  N   UNL     1       6.908   5.222  19.296  0.00  0.00    +0.000 NA
ATOM     15  C   UNL     1       5.598   5.147  19.235  0.00  0.00    +0.000 A 
ENDBRANCH  10  11
BRANCH   1  16
ATOM     16  O   UNL     1       1.827   7.646  17.785  0.00  0.00    +0.000 OA
BRANCH  16  20
ATOM     17  C   UNL     1       0.386  11.474  18.569  0.00  0.00    +0.000 A 
ATOM     18  C   UNL     1       1.758  11.296  18.359  0.00  0.00    +0.000 A 
ATOM     19  C   UNL     1       2.252  10.029  18.040  0.00  0.00    +0.000 A 
ATOM     20  C   UNL     1       1.388   8.934  17.965  0.00  0.00    +0.000 A 
ATOM     21  C   UNL     1       0.010   9.126  18.117  0.00  0.00    +0.000 A 
ATOM     22  C   UNL     1      -0.499  10.395  18.428  0.00  0.00    +0.000 A 
BRANCH  17  24
ATOM     23  O   UNL     1      -0.108  13.085  20.166  0.00  0.00    +0.000 OA
ATOM     24  N   UNL     1      -0.120  12.799  18.958  0.00  0.00    +0.000 N 
ATOM     25  O   UNL     1      -0.541  13.542  18.062  0.00  0.00    +0.000 OA
ENDBRANCH  17  24
ENDBRANCH  16  20
ENDBRANCH   1  16
TORSDOF 4
ENDMDL
