MODEL 1
REMARK VINA RESULT:      -9.0      0.000      0.000
REMARK  Name = 
REMARK  8 active torsions:
REMARK  status: ('A' for Active; 'I' for Inactive)
REMARK    1  A    between atoms: C_1  and  O_2
REMARK    2  A    between atoms: O_2  and  C_3
REMARK    3  A    between atoms: C_5  and  O_6
REMARK    4  A    between atoms: C_13  and  N_14
REMARK    5  A    between atoms: N_15  and  C_16
REMARK    6  A    between atoms: C_17  and  O_18
REMARK    7  A    between atoms: C_20  and  S_21
REMARK    8  A    between atoms: S_21  and  O_24
REMARK                            x       y       z     vdW  Elec       q    Type
REMARK                         _______ _______ _______ _____ _____    ______ ____
ROOT
ATOM      1  C   UNL     1       1.501   8.931  19.500  0.00  0.00    +0.000 A 
ATOM      2  C   UNL     1       1.325   9.608  18.278  0.00  0.00    +0.000 A 
ATOM      3  C   UNL     1       0.442  10.667  18.147  0.00  0.00    +0.000 A 
ATOM      4  C   UNL     1      -0.298  11.087  19.255  0.00  0.00    +0.000 A 
ATOM      5  C   UNL     1      -0.143  10.473  20.526  0.00  0.00    +0.000 A 
ATOM      6  C   UNL     1      -0.847  10.876  21.692  0.00  0.00    +0.000 A 
ATOM      7  C   UNL     1      -0.654  10.252  22.926  0.00  0.00    +0.000 A 
ATOM      8  C   UNL     1       0.253   9.213  23.035  0.00  0.00    +0.000 A 
ATOM      9  C   UNL     1       0.958   8.792  21.907  0.00  0.00    +0.000 A 
ATOM     10  C   UNL     1       0.779   9.392  20.640  0.00  0.00    +0.000 A 
ENDROOT
BRANCH   4  11
ATOM     11  S   UNL     1      -1.461  12.405  19.008  0.00  0.00    +0.000 S 
ATOM     12  O   UNL     1      -2.790  11.865  19.209  0.00  0.00    +0.000 OA
ATOM     13  O   UNL     1      -0.979  13.561  19.731  0.00  0.00    +0.000 OA
BRANCH  11  14
ATOM     14  O   UNL     1      -1.405  12.749  17.433  0.00  0.00    +0.000 OA
ATOM     15  H   UNL     1      -0.820  12.085  17.010  0.00  0.00    +0.000 HD
ENDBRANCH  11  14
ENDBRANCH   4  11
BRANCH   1  17
ATOM     16  N   UNL     1       2.358   7.001  18.733  0.00  0.00    +0.000 NA
ATOM     17  N   UNL     1       2.395   7.832  19.661  0.00  0.00    +0.000 NA
BRANCH  16  27
ATOM     18  C   UNL     1       4.473   5.687  18.394  0.00  0.00    +0.000 A 
ATOM     19  C   UNL     1       5.193   4.508  18.625  0.00  0.00    +0.000 A 
ATOM     20  C   UNL     1       4.622   3.469  19.351  0.00  0.00    +0.000 A 
ATOM     21  C   UNL     1       3.331   3.573  19.887  0.00  0.00    +0.000 A 
ATOM     22  C   UNL     1       2.756   2.509  20.614  0.00  0.00    +0.000 A 
ATOM     23  C   UNL     1       1.475   2.605  21.151  0.00  0.00    +0.000 A 
ATOM     24  C   UNL     1       0.743   3.769  20.966  0.00  0.00    +0.000 A 
ATOM     25  C   UNL     1       1.294   4.833  20.245  0.00  0.00    +0.000 A 
ATOM     26  C   UNL     1       2.595   4.770  19.690  0.00  0.00    +0.000 A 
ATOM     27  C   UNL     1       3.174   5.849  18.946  0.00  0.00    +0.000 A 
BRANCH  18  29
ATOM     28  C   UNL     1       5.185   6.484  16.257  0.00  0.00    +0.000 C 
ATOM     29  O   UNL     1       4.986   6.721  17.646  0.00  0.00    +0.000 OA
ENDBRANCH  18  29
BRANCH  20  30
ATOM     30  O   UNL     1       5.336   2.313  19.540  0.00  0.00    +0.000 OA
ATOM     31  H   UNL     1       4.731   1.592  19.781  0.00  0.00    +0.000 HD
ENDBRANCH  20  30
ENDBRANCH  16  27
ENDBRANCH   1  17
BRANCH   2  32
ATOM     32  O   UNL     1       2.016   9.270  17.144  0.00  0.00    +0.000 OA
ATOM     33  H   UNL     1       2.960   9.422  17.350  0.00  0.00    +0.000 HD
ENDBRANCH   2  32
TORSDOF 7
ENDMDL
MODEL 2
REMARK VINA RESULT:      -8.8      1.093      2.901
REMARK  Name = 
REMARK  8 active torsions:
REMARK  status: ('A' for Active; 'I' for Inactive)
REMARK    1  A    between atoms: C_1  and  O_2
REMARK    2  A    between atoms: O_2  and  C_3
REMARK    3  A    between atoms: C_5  and  O_6
REMARK    4  A    between atoms: C_13  and  N_14
REMARK    5  A    between atoms: N_15  and  C_16
REMARK    6  A    between atoms: C_17  and  O_18
REMARK    7  A    between atoms: C_20  and  S_21
REMARK    8  A    between atoms: S_21  and  O_24
REMARK                            x       y       z     vdW  Elec       q    Type
REMARK                         _______ _______ _______ _____ _____    ______ ____
ROOT
ATOM      1  C   UNL     1       1.403   8.957  19.580  0.00  0.00    +0.000 A 
ATOM      2  C   UNL     1       1.297   9.664  18.367  0.00  0.00    +0.000 A 
ATOM      3  C   UNL     1       0.493  10.784  18.238  0.00  0.00    +0.000 A 
ATOM      4  C   UNL     1      -0.236  11.237  19.340  0.00  0.00    +0.000 A 
ATOM      5  C   UNL     1      -0.148  10.595  20.602  0.00  0.00    +0.000 A 
ATOM      6  C   UNL     1      -0.843  11.028  21.763  0.00  0.00    +0.000 A 
ATOM      7  C   UNL     1      -0.718  10.374  22.989  0.00  0.00    +0.000 A 
ATOM      8  C   UNL     1       0.112   9.272  23.097  0.00  0.00    +0.000 A 
ATOM      9  C   UNL     1       0.807   8.820  21.974  0.00  0.00    +0.000 A 
ATOM     10  C   UNL     1       0.694   9.450  20.714  0.00  0.00    +0.000 A 
ENDROOT
BRANCH   4  11
ATOM     11  S   UNL     1      -1.299  12.638  19.094  0.00  0.00    +0.000 S 
ATOM     12  O   UNL     1      -2.668  12.175  19.192  0.00  0.00    +0.000 OA
ATOM     13  O   UNL     1      -0.792  13.725  19.901  0.00  0.00    +0.000 OA
BRANCH  11  14
ATOM     14  O   UNL     1      -1.129  13.051  17.545  0.00  0.00    +0.000 OA
ATOM     15  H   UNL     1      -0.672  12.309  17.093  0.00  0.00    +0.000 HD
ENDBRANCH  11  14
ENDBRANCH   4  11
BRANCH   1  17
ATOM     16  N   UNL     1       2.293   7.082  18.719  0.00  0.00    +0.000 NA
ATOM     17  N   UNL     1       2.215   7.796  19.738  0.00  0.00    +0.000 NA
BRANCH  16  27
ATOM     18  C   UNL     1       2.529   4.764  19.660  0.00  0.00    +0.000 A 
ATOM     19  C   UNL     1       3.320   3.622  19.827  0.00  0.00    +0.000 A 
ATOM     20  C   UNL     1       4.607   3.578  19.304  0.00  0.00    +0.000 A 
ATOM     21  C   UNL     1       5.142   4.656  18.583  0.00  0.00    +0.000 A 
ATOM     22  C   UNL     1       6.454   4.606  18.064  0.00  0.00    +0.000 A 
ATOM     23  C   UNL     1       6.991   5.671  17.347  0.00  0.00    +0.000 A 
ATOM     24  C   UNL     1       6.226   6.809  17.138  0.00  0.00    +0.000 A 
ATOM     25  C   UNL     1       4.925   6.878  17.647  0.00  0.00    +0.000 A 
ATOM     26  C   UNL     1       4.346   5.812  18.378  0.00  0.00    +0.000 A 
ATOM     27  C   UNL     1       3.017   5.867  18.910  0.00  0.00    +0.000 A 
BRANCH  18  29
ATOM     28  C   UNL     1       0.572   3.648  20.457  0.00  0.00    +0.000 C 
ATOM     29  O   UNL     1       1.267   4.863  20.198  0.00  0.00    +0.000 OA
ENDBRANCH  18  29
BRANCH  20  30
ATOM     30  O   UNL     1       5.375   2.459  19.504  0.00  0.00    +0.000 OA
ATOM     31  H   UNL     1       5.027   1.725  18.971  0.00  0.00    +0.000 HD
ENDBRANCH  20  30
ENDBRANCH  16  27
ENDBRANCH   1  17
BRANCH   2  32
ATOM     32  O   UNL     1       1.984   9.295  17.239  0.00  0.00    +0.000 OA
ATOM     33  H   UNL     1       2.483  10.088  16.958  0.00  0.00    +0.000 HD
ENDBRANCH   2  32
TORSDOF 7
ENDMDL
MODEL 3
REMARK VINA RESULT:      -8.1      1.469      3.184
REMARK  Name = 
REMARK  8 active torsions:
REMARK  status: ('A' for Active; 'I' for Inactive)
REMARK    1  A    between atoms: C_1  and  O_2
REMARK    2  A    between atoms: O_2  and  C_3
REMARK    3  A    between atoms: C_5  and  O_6
REMARK    4  A    between atoms: C_13  and  N_14
REMARK    5  A    between atoms: N_15  and  C_16
REMARK    6  A    between atoms: C_17  and  O_18
REMARK    7  A    between atoms: C_20  and  S_21
REMARK    8  A    between atoms: S_21  and  O_24
REMARK                            x       y       z     vdW  Elec       q    Type
REMARK                         _______ _______ _______ _____ _____    ______ ____
ROOT
ATOM      1  C   UNL     1       1.392   8.966  19.235  0.00  0.00    +0.000 A 
ATOM      2  C   UNL     1       1.734   9.994  18.336  0.00  0.00    +0.000 A 
ATOM      3  C   UNL     1       1.419  11.320  18.584  0.00  0.00    +0.000 A 
ATOM      4  C   UNL     1       0.747  11.659  19.760  0.00  0.00    +0.000 A 
ATOM      5  C   UNL     1       0.404  10.679  20.727  0.00  0.00    +0.000 A 
ATOM      6  C   UNL     1      -0.254  10.968  21.953  0.00  0.00    +0.000 A 
ATOM      7  C   UNL     1      -0.561   9.974  22.882  0.00  0.00    +0.000 A 
ATOM      8  C   UNL     1      -0.212   8.660  22.621  0.00  0.00    +0.000 A 
ATOM      9  C   UNL     1       0.432   8.342  21.425  0.00  0.00    +0.000 A 
ATOM     10  C   UNL     1       0.747   9.322  20.456  0.00  0.00    +0.000 A 
ENDROOT
BRANCH   4  11
ATOM     11  S   UNL     1       0.313  13.366  19.990  0.00  0.00    +0.000 S 
ATOM     12  O   UNL     1      -1.126  13.475  19.869  0.00  0.00    +0.000 OA
ATOM     13  O   UNL     1       1.031  13.852  21.147  0.00  0.00    +0.000 OA
BRANCH  11  14
ATOM     14  O   UNL     1       0.881  14.140  18.694  0.00  0.00    +0.000 OA
ATOM     15  H   UNL     1       1.649  14.677  18.987  0.00  0.00    +0.000 HD
ENDBRANCH  11  14
ENDBRANCH   4  11
BRANCH   1  17
ATOM     16  N   UNL     1       2.908   7.318  19.061  0.00  0.00    +0.000 NA
ATOM     17  N   UNL     1       1.694   7.593  19.001  0.00  0.00    +0.000 NA
BRANCH  16  27
ATOM     18  C   UNL     1       2.874   4.849  19.528  0.00  0.00    +0.000 A 
ATOM     19  C   UNL     1       3.249   3.558  19.138  0.00  0.00    +0.000 A 
ATOM     20  C   UNL     1       4.005   3.365  17.988  0.00  0.00    +0.000 A 
ATOM     21  C   UNL     1       4.395   4.442  17.179  0.00  0.00    +0.000 A 
ATOM     22  C   UNL     1       5.172   4.238  16.018  0.00  0.00    +0.000 A 
ATOM     23  C   UNL     1       5.562   5.301  15.209  0.00  0.00    +0.000 A 
ATOM     24  C   UNL     1       5.185   6.592  15.550  0.00  0.00    +0.000 A 
ATOM     25  C   UNL     1       4.418   6.815  16.698  0.00  0.00    +0.000 A 
ATOM     26  C   UNL     1       4.001   5.756  17.540  0.00  0.00    +0.000 A 
ATOM     27  C   UNL     1       3.219   5.966  18.722  0.00  0.00    +0.000 A 
BRANCH  18  29
ATOM     28  C   UNL     1       1.833   3.959  21.487  0.00  0.00    +0.000 C 
ATOM     29  O   UNL     1       2.162   5.085  20.681  0.00  0.00    +0.000 OA
ENDBRANCH  18  29
BRANCH  20  30
ATOM     30  O   UNL     1       4.386   2.093  17.640  0.00  0.00    +0.000 OA
ATOM     31  H   UNL     1       4.948   1.719  18.338  0.00  0.00    +0.000 HD
ENDBRANCH  20  30
ENDBRANCH  16  27
ENDBRANCH   1  17
BRANCH   2  32
ATOM     32  O   UNL     1       2.402   9.754  17.164  0.00  0.00    +0.000 OA
ATOM     33  H   UNL     1       2.111  10.449  16.541  0.00  0.00    +0.000 HD
ENDBRANCH   2  32
TORSDOF 7
ENDMDL
MODEL 4
REMARK VINA RESULT:      -7.8      1.266      1.366
REMARK  Name = 
REMARK  8 active torsions:
REMARK  status: ('A' for Active; 'I' for Inactive)
REMARK    1  A    between atoms: C_1  and  O_2
REMARK    2  A    between atoms: O_2  and  C_3
REMARK    3  A    between atoms: C_5  and  O_6
REMARK    4  A    between atoms: C_13  and  N_14
REMARK    5  A    between atoms: N_15  and  C_16
REMARK    6  A    between atoms: C_17  and  O_18
REMARK    7  A    between atoms: C_20  and  S_21
REMARK    8  A    between atoms: S_21  and  O_24
REMARK                            x       y       z     vdW  Elec       q    Type
REMARK                         _______ _______ _______ _____ _____    ______ ____
ROOT
ATOM      1  C   UNL     1       1.391   9.090  19.167  0.00  0.00    +0.000 A 
ATOM      2  C   UNL     1       1.713  10.180  18.337  0.00  0.00    +0.000 A 
ATOM      3  C   UNL     1       1.367  11.480  18.665  0.00  0.00    +0.000 A 
ATOM      4  C   UNL     1       0.683  11.730  19.856  0.00  0.00    +0.000 A 
ATOM      5  C   UNL     1       0.359  10.684  20.759  0.00  0.00    +0.000 A 
ATOM      6  C   UNL     1      -0.311  10.881  21.996  0.00  0.00    +0.000 A 
ATOM      7  C   UNL     1      -0.598   9.824  22.860  0.00  0.00    +0.000 A 
ATOM      8  C   UNL     1      -0.218   8.537  22.520  0.00  0.00    +0.000 A 
ATOM      9  C   UNL     1       0.438   8.309  21.310  0.00  0.00    +0.000 A 
ATOM     10  C   UNL     1       0.734   9.354  20.405  0.00  0.00    +0.000 A 
ENDROOT
BRANCH   4  11
ATOM     11  S   UNL     1       0.209  13.408  20.189  0.00  0.00    +0.000 S 
ATOM     12  O   UNL     1      -1.235  13.485  20.102  0.00  0.00    +0.000 OA
ATOM     13  O   UNL     1       0.937  13.850  21.358  0.00  0.00    +0.000 OA
BRANCH  11  14
ATOM     14  O   UNL     1       0.729  14.268  18.928  0.00  0.00    +0.000 OA
ATOM     15  H   UNL     1       0.956  15.164  19.259  0.00  0.00    +0.000 HD
ENDBRANCH  11  14
ENDBRANCH   4  11
BRANCH   1  17
ATOM     16  N   UNL     1       2.929   7.459  19.016  0.00  0.00    +0.000 NA
ATOM     17  N   UNL     1       1.726   7.742  18.850  0.00  0.00    +0.000 NA
BRANCH  16  27
ATOM     18  C   UNL     1       4.176   5.865  17.527  0.00  0.00    +0.000 A 
ATOM     19  C   UNL     1       4.443   4.541  17.159  0.00  0.00    +0.000 A 
ATOM     20  C   UNL     1       3.799   3.490  17.803  0.00  0.00    +0.000 A 
ATOM     21  C   UNL     1       2.887   3.718  18.843  0.00  0.00    +0.000 A 
ATOM     22  C   UNL     1       2.230   2.646  19.484  0.00  0.00    +0.000 A 
ATOM     23  C   UNL     1       1.324   2.864  20.518  0.00  0.00    +0.000 A 
ATOM     24  C   UNL     1       1.056   4.162  20.928  0.00  0.00    +0.000 A 
ATOM     25  C   UNL     1       1.694   5.237  20.303  0.00  0.00    +0.000 A 
ATOM     26  C   UNL     1       2.623   5.052  19.251  0.00  0.00    +0.000 A 
ATOM     27  C   UNL     1       3.284   6.141  18.597  0.00  0.00    +0.000 A 
BRANCH  18  29
ATOM     28  C   UNL     1       6.156   7.131  17.092  0.00  0.00    +0.000 C 
ATOM     29  O   UNL     1       4.761   6.932  16.888  0.00  0.00    +0.000 OA
ENDBRANCH  18  29
BRANCH  20  30
ATOM     30  O   UNL     1       4.056   2.203  17.405  0.00  0.00    +0.000 OA
ATOM     31  H   UNL     1       3.893   1.594  18.145  0.00  0.00    +0.000 HD
ENDBRANCH  20  30
ENDBRANCH  16  27
ENDBRANCH   1  17
BRANCH   2  32
ATOM     32  O   UNL     1       2.392  10.028  17.155  0.00  0.00    +0.000 OA
ATOM     33  H   UNL     1       2.731  10.916  16.925  0.00  0.00    +0.000 HD
ENDBRANCH   2  32
TORSDOF 7
ENDMDL
MODEL 5
REMARK VINA RESULT:      -7.6      2.710      7.924
REMARK  Name = 
REMARK  8 active torsions:
REMARK  status: ('A' for Active; 'I' for Inactive)
REMARK    1  A    between atoms: C_1  and  O_2
REMARK    2  A    between atoms: O_2  and  C_3
REMARK    3  A    between atoms: C_5  and  O_6
REMARK    4  A    between atoms: C_13  and  N_14
REMARK    5  A    between atoms: N_15  and  C_16
REMARK    6  A    between atoms: C_17  and  O_18
REMARK    7  A    between atoms: C_20  and  S_21
REMARK    8  A    between atoms: S_21  and  O_24
REMARK                            x       y       z     vdW  Elec       q    Type
REMARK                         _______ _______ _______ _____ _____    ______ ____
ROOT
ATOM      1  C   UNL     1       2.290   7.324  18.915  0.00  0.00    +0.000 A 
ATOM      2  C   UNL     1       3.116   7.697  17.838  0.00  0.00    +0.000 A 
ATOM      3  C   UNL     1       4.131   6.877  17.373  0.00  0.00    +0.000 A 
ATOM      4  C   UNL     1       4.346   5.639  17.981  0.00  0.00    +0.000 A 
ATOM      5  C   UNL     1       3.529   5.183  19.047  0.00  0.00    +0.000 A 
ATOM      6  C   UNL     1       3.683   3.923  19.684  0.00  0.00    +0.000 A 
ATOM      7  C   UNL     1       2.847   3.509  20.722  0.00  0.00    +0.000 A 
ATOM      8  C   UNL     1       1.824   4.337  21.150  0.00  0.00    +0.000 A 
ATOM      9  C   UNL     1       1.648   5.583  20.547  0.00  0.00    +0.000 A 
ATOM     10  C   UNL     1       2.483   6.039  19.502  0.00  0.00    +0.000 A 
ENDROOT
BRANCH   4  11
ATOM     11  S   UNL     1       5.704   4.662  17.384  0.00  0.00    +0.000 S 
ATOM     12  O   UNL     1       6.197   5.286  16.173  0.00  0.00    +0.000 OA
ATOM     13  O   UNL     1       6.566   4.369  18.508  0.00  0.00    +0.000 OA
BRANCH  11  14
ATOM     14  O   UNL     1       5.057   3.273  16.881  0.00  0.00    +0.000 OA
ATOM     15  H   UNL     1       4.933   3.343  15.910  0.00  0.00    +0.000 HD
ENDBRANCH  11  14
ENDBRANCH   4  11
BRANCH   1  17
ATOM     16  N   UNL     1       1.345   9.354  19.105  0.00  0.00    +0.000 NA
ATOM     17  N   UNL     1       1.245   8.152  19.420  0.00  0.00    +0.000 NA
BRANCH  16  27
ATOM     18  C   UNL     1       0.417  10.660  21.041  0.00  0.00    +0.000 A 
ATOM     19  C   UNL     1      -0.611  11.458  21.555  0.00  0.00    +0.000 A 
ATOM     20  C   UNL     1      -1.720  11.763  20.773  0.00  0.00    +0.000 A 
ATOM     21  C   UNL     1      -1.834  11.302  19.454  0.00  0.00    +0.000 A 
ATOM     22  C   UNL     1      -2.968  11.607  18.671  0.00  0.00    +0.000 A 
ATOM     23  C   UNL     1      -3.089  11.156  17.360  0.00  0.00    +0.000 A 
ATOM     24  C   UNL     1      -2.076  10.384  16.808  0.00  0.00    +0.000 A 
ATOM     25  C   UNL     1      -0.946  10.069  17.569  0.00  0.00    +0.000 A 
ATOM     26  C   UNL     1      -0.790  10.515  18.903  0.00  0.00    +0.000 A 
ATOM     27  C   UNL     1       0.359  10.199  19.698  0.00  0.00    +0.000 A 
BRANCH  18  29
ATOM     28  C   UNL     1       1.346   9.228  22.713  0.00  0.00    +0.000 C 
ATOM     29  O   UNL     1       1.510  10.303  21.795  0.00  0.00    +0.000 OA
ENDBRANCH  18  29
BRANCH  20  30
ATOM     30  O   UNL     1      -2.729  12.523  21.308  0.00  0.00    +0.000 OA
ATOM     31  H   UNL     1      -2.661  12.520  22.277  0.00  0.00    +0.000 HD
ENDBRANCH  20  30
ENDBRANCH  16  27
ENDBRANCH   1  17
BRANCH   2  32
ATOM     32  O   UNL     1       2.968   8.889  17.177  0.00  0.00    +0.000 OA
ATOM     33  H   UNL     1       3.874   9.201  16.980  0.00  0.00    +0.000 HD
ENDBRANCH   2  32
TORSDOF 7
ENDMDL
MODEL 6
REMARK VINA RESULT:      -7.2      1.357      3.155
REMARK  Name = 
REMARK  8 active torsions:
REMARK  status: ('A' for Active; 'I' for Inactive)
REMARK    1  A    between atoms: C_1  and  O_2
REMARK    2  A    between atoms: O_2  and  C_3
REMARK    3  A    between atoms: C_5  and  O_6
REMARK    4  A    between atoms: C_13  and  N_14
REMARK    5  A    between atoms: N_15  and  C_16
REMARK    6  A    between atoms: C_17  and  O_18
REMARK    7  A    between atoms: C_20  and  S_21
REMARK    8  A    between atoms: S_21  and  O_24
REMARK                            x       y       z     vdW  Elec       q    Type
REMARK                         _______ _______ _______ _____ _____    ______ ____
ROOT
ATOM      1  C   UNL     1       1.541   9.053  19.325  0.00  0.00    +0.000 A 
ATOM      2  C   UNL     1       1.631  10.014  18.300  0.00  0.00    +0.000 A 
ATOM      3  C   UNL     1       1.003  11.245  18.391  0.00  0.00    +0.000 A 
ATOM      4  C   UNL     1       0.259  11.555  19.531  0.00  0.00    +0.000 A 
ATOM      5  C   UNL     1       0.156  10.649  20.619  0.00  0.00    +0.000 A 
ATOM      6  C   UNL     1      -0.562  10.921  21.814  0.00  0.00    +0.000 A 
ATOM      7  C   UNL     1      -0.627  10.005  22.864  0.00  0.00    +0.000 A 
ATOM      8  C   UNL     1       0.032   8.792  22.758  0.00  0.00    +0.000 A 
ATOM      9  C   UNL     1       0.743   8.493  21.596  0.00  0.00    +0.000 A 
ATOM     10  C   UNL     1       0.819   9.391  20.508  0.00  0.00    +0.000 A 
ENDROOT
BRANCH   4  11
ATOM     11  S   UNL     1      -0.577  13.121  19.560  0.00  0.00    +0.000 S 
ATOM     12  O   UNL     1      -0.399  13.692  20.879  0.00  0.00    +0.000 OA
ATOM     13  O   UNL     1      -0.219  13.835  18.354  0.00  0.00    +0.000 OA
BRANCH  11  14
ATOM     14  O   UNL     1      -2.151  12.779  19.483  0.00  0.00    +0.000 OA
ATOM     15  H   UNL     1      -2.640  13.614  19.645  0.00  0.00    +0.000 HD
ENDBRANCH  11  14
ENDBRANCH   4  11
BRANCH   1  17
ATOM     16  N   UNL     1       2.131   7.247  18.126  0.00  0.00    +0.000 NA
ATOM     17  N   UNL     1       2.169   7.775  19.254  0.00  0.00    +0.000 NA
BRANCH  16  27
ATOM     18  C   UNL     1       2.128   4.829  18.810  0.00  0.00    +0.000 A 
ATOM     19  C   UNL     1       2.734   3.570  18.736  0.00  0.00    +0.000 A 
ATOM     20  C   UNL     1       3.894   3.393  17.989  0.00  0.00    +0.000 A 
ATOM     21  C   UNL     1       4.476   4.453  17.279  0.00  0.00    +0.000 A 
ATOM     22  C   UNL     1       5.659   4.267  16.532  0.00  0.00    +0.000 A 
ATOM     23  C   UNL     1       6.243   5.313  15.824  0.00  0.00    +0.000 A 
ATOM     24  C   UNL     1       5.654   6.569  15.852  0.00  0.00    +0.000 A 
ATOM     25  C   UNL     1       4.483   6.774  16.589  0.00  0.00    +0.000 A 
ATOM     26  C   UNL     1       3.861   5.731  17.318  0.00  0.00    +0.000 A 
ATOM     27  C   UNL     1       2.664   5.924  18.081  0.00  0.00    +0.000 A 
BRANCH  18  29
ATOM     28  C   UNL     1       1.001   4.542  20.898  0.00  0.00    +0.000 C 
ATOM     29  O   UNL     1       1.004   5.054  19.570  0.00  0.00    +0.000 OA
ENDBRANCH  18  29
BRANCH  20  30
ATOM     30  O   UNL     1       4.486   2.157  17.954  0.00  0.00    +0.000 OA
ATOM     31  H   UNL     1       4.500   1.827  17.040  0.00  0.00    +0.000 HD
ENDBRANCH  20  30
ENDBRANCH  16  27
ENDBRANCH   1  17
BRANCH   2  32
ATOM     32  O   UNL     1       2.348   9.798  17.152  0.00  0.00    +0.000 OA
ATOM     33  H   UNL     1       1.693   9.541  16.472  0.00  0.00    +0.000 HD
ENDBRANCH   2  32
TORSDOF 7
ENDMDL
MODEL 7
REMARK VINA RESULT:      -7.0      2.812      8.303
REMARK  Name = 
REMARK  8 active torsions:
REMARK  status: ('A' for Active; 'I' for Inactive)
REMARK    1  A    between atoms: C_1  and  O_2
REMARK    2  A    between atoms: O_2  and  C_3
REMARK    3  A    between atoms: C_5  and  O_6
REMARK    4  A    between atoms: C_13  and  N_14
REMARK    5  A    between atoms: N_15  and  C_16
REMARK    6  A    between atoms: C_17  and  O_18
REMARK    7  A    between atoms: C_20  and  S_21
REMARK    8  A    between atoms: S_21  and  O_24
REMARK                            x       y       z     vdW  Elec       q    Type
REMARK                         _______ _______ _______ _____ _____    ______ ____
ROOT
ATOM      1  C   UNL     1       2.307   7.144  19.356  0.00  0.00    +0.000 A 
ATOM      2  C   UNL     1       1.932   6.172  20.301  0.00  0.00    +0.000 A 
ATOM      3  C   UNL     1       2.371   4.861  20.220  0.00  0.00    +0.000 A 
ATOM      4  C   UNL     1       3.216   4.483  19.174  0.00  0.00    +0.000 A 
ATOM      5  C   UNL     1       3.664   5.419  18.207  0.00  0.00    +0.000 A 
ATOM      6  C   UNL     1       4.544   5.099  17.139  0.00  0.00    +0.000 A 
ATOM      7  C   UNL     1       4.969   6.055  16.217  0.00  0.00    +0.000 A 
ATOM      8  C   UNL     1       4.536   7.364  16.336  0.00  0.00    +0.000 A 
ATOM      9  C   UNL     1       3.668   7.710  17.372  0.00  0.00    +0.000 A 
ATOM     10  C   UNL     1       3.207   6.766  18.316  0.00  0.00    +0.000 A 
ENDROOT
BRANCH   4  11
ATOM     11  S   UNL     1       3.692   2.774  19.086  0.00  0.00    +0.000 S 
ATOM     12  O   UNL     1       3.200   2.118  20.280  0.00  0.00    +0.000 OA
ATOM     13  O   UNL     1       3.380   2.297  17.758  0.00  0.00    +0.000 OA
BRANCH  11  14
ATOM     14  O   UNL     1       5.295   2.757  19.255  0.00  0.00    +0.000 OA
ATOM     15  H   UNL     1       5.684   2.924  18.370  0.00  0.00    +0.000 HD
ENDBRANCH  11  14
ENDBRANCH   4  11
BRANCH   1  17
ATOM     16  N   UNL     1       0.712   8.642  19.868  0.00  0.00    +0.000 NA
ATOM     17  N   UNL     1       1.862   8.498  19.409  0.00  0.00    +0.000 NA
BRANCH  16  27
ATOM     18  C   UNL     1       0.486  10.953  20.828  0.00  0.00    +0.000 A 
ATOM     19  C   UNL     1      -0.058  12.238  20.722  0.00  0.00    +0.000 A 
ATOM     20  C   UNL     1      -0.896  12.560  19.660  0.00  0.00    +0.000 A 
ATOM     21  C   UNL     1      -1.204  11.625  18.662  0.00  0.00    +0.000 A 
ATOM     22  C   UNL     1      -2.064  11.957  17.593  0.00  0.00    +0.000 A 
ATOM     23  C   UNL     1      -2.374  11.035  16.597  0.00  0.00    +0.000 A 
ATOM     24  C   UNL     1      -1.831   9.760  16.655  0.00  0.00    +0.000 A 
ATOM     25  C   UNL     1      -0.979   9.411  17.708  0.00  0.00    +0.000 A 
ATOM     26  C   UNL     1      -0.640  10.325  18.734  0.00  0.00    +0.000 A 
ATOM     27  C   UNL     1       0.227   9.984  19.822  0.00  0.00    +0.000 A 
BRANCH  18  29
ATOM     28  C   UNL     1       0.729   9.691  22.842  0.00  0.00    +0.000 C 
ATOM     29  O   UNL     1       1.286  10.583  21.884  0.00  0.00    +0.000 OA
ENDBRANCH  18  29
BRANCH  20  30
ATOM     30  O   UNL     1      -1.440  13.817  19.593  0.00  0.00    +0.000 OA
ATOM     31  H   UNL     1      -2.389  13.752  19.399  0.00  0.00    +0.000 HD
ENDBRANCH  20  30
ENDBRANCH  16  27
ENDBRANCH   1  17
BRANCH   2  32
ATOM     32  O   UNL     1       1.115   6.458  21.365  0.00  0.00    +0.000 OA
ATOM     33  H   UNL     1       1.710   6.655  22.115  0.00  0.00    +0.000 HD
ENDBRANCH   2  32
TORSDOF 7
ENDMDL
MODEL 8
REMARK VINA RESULT:      -6.9      1.899      2.947
REMARK  Name = 
REMARK  8 active torsions:
REMARK  status: ('A' for Active; 'I' for Inactive)
REMARK    1  A    between atoms: C_1  and  O_2
REMARK    2  A    between atoms: O_2  and  C_3
REMARK    3  A    between atoms: C_5  and  O_6
REMARK    4  A    between atoms: C_13  and  N_14
REMARK    5  A    between atoms: N_15  and  C_16
REMARK    6  A    between atoms: C_17  and  O_18
REMARK    7  A    between atoms: C_20  and  S_21
REMARK    8  A    between atoms: S_21  and  O_24
REMARK                            x       y       z     vdW  Elec       q    Type
REMARK                         _______ _______ _______ _____ _____    ______ ____
ROOT
ATOM      1  C   UNL     1       1.007   9.050  19.892  0.00  0.00    +0.000 A 
ATOM      2  C   UNL     1       0.159   9.037  21.016  0.00  0.00    +0.000 A 
ATOM      3  C   UNL     1      -0.292  10.206  21.608  0.00  0.00    +0.000 A 
ATOM      4  C   UNL     1       0.097  11.438  21.079  0.00  0.00    +0.000 A 
ATOM      5  C   UNL     1       0.920  11.526  19.927  0.00  0.00    +0.000 A 
ATOM      6  C   UNL     1       1.323  12.750  19.329  0.00  0.00    +0.000 A 
ATOM      7  C   UNL     1       2.124  12.789  18.187  0.00  0.00    +0.000 A 
ATOM      8  C   UNL     1       2.540  11.606  17.600  0.00  0.00    +0.000 A 
ATOM      9  C   UNL     1       2.163  10.387  18.165  0.00  0.00    +0.000 A 
ATOM     10  C   UNL     1       1.364  10.310  19.328  0.00  0.00    +0.000 A 
ENDROOT
BRANCH   4  11
ATOM     11  S   UNL     1      -0.460  12.899  21.922  0.00  0.00    +0.000 S 
ATOM     12  O   UNL     1       0.710  13.671  22.287  0.00  0.00    +0.000 OA
ATOM     13  O   UNL     1      -1.549  13.463  21.156  0.00  0.00    +0.000 OA
BRANCH  11  14
ATOM     14  O   UNL     1      -1.056  12.391  23.331  0.00  0.00    +0.000 OA
ATOM     15  H   UNL     1      -1.637  13.103  23.677  0.00  0.00    +0.000 HD
ENDBRANCH  11  14
ENDBRANCH   4  11
BRANCH   1  17
ATOM     16  N   UNL     1       2.326   7.232  19.948  0.00  0.00    +0.000 NA
ATOM     17  N   UNL     1       1.494   7.864  19.269  0.00  0.00    +0.000 NA
BRANCH  16  27
ATOM     18  C   UNL     1       3.755   6.202  18.156  0.00  0.00    +0.000 A 
ATOM     19  C   UNL     1       4.239   5.043  17.539  0.00  0.00    +0.000 A 
ATOM     20  C   UNL     1       3.839   3.789  17.989  0.00  0.00    +0.000 A 
ATOM     21  C   UNL     1       2.964   3.647  19.075  0.00  0.00    +0.000 A 
ATOM     22  C   UNL     1       2.555   2.371  19.519  0.00  0.00    +0.000 A 
ATOM     23  C   UNL     1       1.688   2.220  20.597  0.00  0.00    +0.000 A 
ATOM     24  C   UNL     1       1.210   3.347  21.251  0.00  0.00    +0.000 A 
ATOM     25  C   UNL     1       1.601   4.620  20.824  0.00  0.00    +0.000 A 
ATOM     26  C   UNL     1       2.484   4.809  19.734  0.00  0.00    +0.000 A 
ATOM     27  C   UNL     1       2.892   6.105  19.281  0.00  0.00    +0.000 A 
BRANCH  18  29
ATOM     28  C   UNL     1       5.301   7.586  16.970  0.00  0.00    +0.000 C 
ATOM     29  O   UNL     1       4.094   7.460  17.715  0.00  0.00    +0.000 OA
ENDBRANCH  18  29
BRANCH  20  30
ATOM     30  O   UNL     1       4.304   2.668  17.350  0.00  0.00    +0.000 OA
ATOM     31  H   UNL     1       5.271   2.628  17.423  0.00  0.00    +0.000 HD
ENDBRANCH  20  30
ENDBRANCH  16  27
ENDBRANCH   1  17
BRANCH   2  32
ATOM     32  O   UNL     1      -0.279   7.874  21.592  0.00  0.00    +0.000 OA
ATOM     33  H   UNL     1      -0.026   7.157  20.977  0.00  0.00    +0.000 HD
ENDBRANCH   2  32
TORSDOF 7
ENDMDL
MODEL 9
REMARK VINA RESULT:      -6.9      2.057      4.105
REMARK  Name = 
REMARK  8 active torsions:
REMARK  status: ('A' for Active; 'I' for Inactive)
REMARK    1  A    between atoms: C_1  and  O_2
REMARK    2  A    between atoms: O_2  and  C_3
REMARK    3  A    between atoms: C_5  and  O_6
REMARK    4  A    between atoms: C_13  and  N_14
REMARK    5  A    between atoms: N_15  and  C_16
REMARK    6  A    between atoms: C_17  and  O_18
REMARK    7  A    between atoms: C_20  and  S_21
REMARK    8  A    between atoms: S_21  and  O_24
REMARK                            x       y       z     vdW  Elec       q    Type
REMARK                         _______ _______ _______ _____ _____    ______ ____
ROOT
ATOM      1  C   UNL     1       0.872   8.920  20.026  0.00  0.00    +0.000 A 
ATOM      2  C   UNL     1       0.033   9.011  21.152  0.00  0.00    +0.000 A 
ATOM      3  C   UNL     1      -0.344  10.231  21.689  0.00  0.00    +0.000 A 
ATOM      4  C   UNL     1       0.112  11.412  21.100  0.00  0.00    +0.000 A 
ATOM      5  C   UNL     1       0.930  11.395  19.941  0.00  0.00    +0.000 A 
ATOM      6  C   UNL     1       1.400  12.563  19.283  0.00  0.00    +0.000 A 
ATOM      7  C   UNL     1       2.193  12.500  18.137  0.00  0.00    +0.000 A 
ATOM      8  C   UNL     1       2.534  11.268  17.606  0.00  0.00    +0.000 A 
ATOM      9  C   UNL     1       2.091  10.102  18.230  0.00  0.00    +0.000 A 
ATOM     10  C   UNL     1       1.298  10.128  19.399  0.00  0.00    +0.000 A 
ENDROOT
BRANCH   4  11
ATOM     11  S   UNL     1      -0.352  12.941  21.873  0.00  0.00    +0.000 S 
ATOM     12  O   UNL     1       0.864  13.646  22.221  0.00  0.00    +0.000 OA
ATOM     13  O   UNL     1      -1.393  13.545  21.071  0.00  0.00    +0.000 OA
BRANCH  11  14
ATOM     14  O   UNL     1      -0.997  12.536  23.295  0.00  0.00    +0.000 OA
ATOM     15  H   UNL     1      -1.332  11.617  23.213  0.00  0.00    +0.000 HD
ENDBRANCH  11  14
ENDBRANCH   4  11
BRANCH   1  17
ATOM     16  N   UNL     1       2.185   7.097  20.095  0.00  0.00    +0.000 NA
ATOM     17  N   UNL     1       1.284   7.679  19.459  0.00  0.00    +0.000 NA
BRANCH  16  27
ATOM     18  C   UNL     1       2.458   4.602  19.983  0.00  0.00    +0.000 A 
ATOM     19  C   UNL     1       3.000   3.492  19.325  0.00  0.00    +0.000 A 
ATOM     20  C   UNL     1       3.792   3.664  18.195  0.00  0.00    +0.000 A 
ATOM     21  C   UNL     1       4.054   4.939  17.673  0.00  0.00    +0.000 A 
ATOM     22  C   UNL     1       4.868   5.105  16.531  0.00  0.00    +0.000 A 
ATOM     23  C   UNL     1       5.132   6.366  16.005  0.00  0.00    +0.000 A 
ATOM     24  C   UNL     1       4.588   7.488  16.615  0.00  0.00    +0.000 A 
ATOM     25  C   UNL     1       3.782   7.344  17.749  0.00  0.00    +0.000 A 
ATOM     26  C   UNL     1       3.491   6.076  18.308  0.00  0.00    +0.000 A 
ATOM     27  C   UNL     1       2.671   5.910  19.470  0.00  0.00    +0.000 A 
BRANCH  18  29
ATOM     28  C   UNL     1       1.427   3.157  21.583  0.00  0.00    +0.000 C 
ATOM     29  O   UNL     1       1.704   4.476  21.127  0.00  0.00    +0.000 OA
ENDBRANCH  18  29
BRANCH  20  30
ATOM     30  O   UNL     1       4.336   2.564  17.584  0.00  0.00    +0.000 OA
ATOM     31  H   UNL     1       4.565   1.898  18.253  0.00  0.00    +0.000 HD
ENDBRANCH  20  30
ENDBRANCH  16  27
ENDBRANCH   1  17
BRANCH   2  32
ATOM     32  O   UNL     1      -0.468   7.904  21.787  0.00  0.00    +0.000 OA
ATOM     33  H   UNL     1      -1.280   8.202  22.244  0.00  0.00    +0.000 HD
ENDBRANCH   2  32
TORSDOF 7
ENDMDL
