MODEL 1
REMARK VINA RESULT:      -5.4      0.000      0.000
REMARK  Name = 
REMARK  8 active torsions:
REMARK  status: ('A' for Active; 'I' for Inactive)
REMARK    1  A    between atoms: C_1  and  N_2
REMARK    2  A    between atoms: N_2  and  C_3
REMARK    3  A    between atoms: N_2  and  C_4
REMARK    4  A    between atoms: C_4  and  C_5
REMARK    5  A    between atoms: C_5  and  N_6
REMARK    6  A    between atoms: N_6  and  C_7
REMARK    7  A    between atoms: C_7  and  C_8
REMARK    8  A    between atoms: C_8  and  C_9
REMARK                            x       y       z     vdW  Elec       q    Type
REMARK                         _______ _______ _______ _____ _____    ______ ____
ROOT
ATOM      1  C   UNL     1       4.198   5.313  17.428  0.00  0.00    +0.000 C 
ENDROOT
BRANCH   1   2
ATOM      2  C   UNL     1       3.307   6.233  18.232  0.00  0.00    +0.000 A 
ATOM      3  C   UNL     1       2.857   5.851  19.503  0.00  0.00    +0.000 A 
ATOM      4  C   UNL     1       2.095   6.731  20.274  0.00  0.00    +0.000 A 
ATOM      5  C   UNL     1       1.779   8.002  19.787  0.00  0.00    +0.000 A 
ATOM      6 CL   UNL     1       0.844   9.043  20.801  0.00  0.00    +0.000 Cl
ATOM      7  C   UNL     1       2.226   8.392  18.521  0.00  0.00    +0.000 A 
ATOM      8 CL   UNL     1       1.889   9.951  17.857  0.00  0.00    +0.000 Cl
ATOM      9  C   UNL     1       2.991   7.509  17.750  0.00  0.00    +0.000 A 
ENDBRANCH   1   2
BRANCH   1  10
ATOM     10  C   UNL     1       4.553   4.075  18.260  0.00  0.00    +0.000 C 
BRANCH  10  11
ATOM     11  N   UNL     1       4.401   2.838  17.488  0.00  0.00    +0.000 NA
ATOM     12  H   UNL     1       3.927   3.069  16.607  0.00  0.00    +0.000 HD
BRANCH  11  13
ATOM     13  C   UNL     1       3.519   1.889  18.194  0.00  0.00    +0.000 C 
BRANCH  13  14
ATOM     14  C   UNL     1       3.162   2.308  19.643  0.00  0.00    +0.000 C 
BRANCH  14  16
ATOM     15  C   UNL     1       1.394   2.884  21.202  0.00  0.00    +0.000 C 
ATOM     16  N   UNL     1       1.722   2.165  19.966  0.00  0.00    +0.000 NA
ATOM     17  C   UNL     1       0.914   2.687  18.862  0.00  0.00    +0.000 C 
ENDBRANCH  14  16
ENDBRANCH  13  14
ENDBRANCH  11  13
ENDBRANCH  10  11
ENDBRANCH   1  10
TORSDOF 6
ENDMDL
MODEL 2
REMARK VINA RESULT:      -5.4      3.251      4.423
REMARK  Name = 
REMARK  8 active torsions:
REMARK  status: ('A' for Active; 'I' for Inactive)
REMARK    1  A    between atoms: C_1  and  N_2
REMARK    2  A    between atoms: N_2  and  C_3
REMARK    3  A    between atoms: N_2  and  C_4
REMARK    4  A    between atoms: C_4  and  C_5
REMARK    5  A    between atoms: C_5  and  N_6
REMARK    6  A    between atoms: N_6  and  C_7
REMARK    7  A    between atoms: C_7  and  C_8
REMARK    8  A    between atoms: C_8  and  C_9
REMARK                            x       y       z     vdW  Elec       q    Type
REMARK                         _______ _______ _______ _____ _____    ______ ____
ROOT
ATOM      1  C   UNL     1       2.232   5.869  18.514  0.00  0.00    +0.000 C 
ENDROOT
BRANCH   1   2
ATOM      2  C   UNL     1       3.685   5.540  18.250  0.00  0.00    +0.000 A 
ATOM      3  C   UNL     1       4.635   5.655  19.275  0.00  0.00    +0.000 A 
ATOM      4  C   UNL     1       5.961   5.282  19.049  0.00  0.00    +0.000 A 
ATOM      5  C   UNL     1       6.352   4.785  17.803  0.00  0.00    +0.000 A 
ATOM      6 CL   UNL     1       8.006   4.331  17.600  0.00  0.00    +0.000 Cl
ATOM      7  C   UNL     1       5.410   4.665  16.777  0.00  0.00    +0.000 A 
ATOM      8 CL   UNL     1       5.812   4.046  15.215  0.00  0.00    +0.000 Cl
ATOM      9  C   UNL     1       4.080   5.038  17.004  0.00  0.00    +0.000 A 
ENDBRANCH   1   2
BRANCH   1  10
ATOM     10  C   UNL     1       2.087   6.506  19.901  0.00  0.00    +0.000 C 
BRANCH  10  11
ATOM     11  N   UNL     1       1.989   5.495  20.958  0.00  0.00    +0.000 NA
ATOM     12  H   UNL     1       2.923   5.095  21.103  0.00  0.00    +0.000 HD
BRANCH  11  13
ATOM     13  C   UNL     1       1.125   4.378  20.531  0.00  0.00    +0.000 C 
BRANCH  13  14
ATOM     14  C   UNL     1       1.647   2.977  20.942  0.00  0.00    +0.000 C 
BRANCH  14  16
ATOM     15  C   UNL     1       0.944   2.406  18.691  0.00  0.00    +0.000 C 
ATOM     16  N   UNL     1       1.843   2.056  19.796  0.00  0.00    +0.000 NA
ATOM     17  C   UNL     1       3.233   2.122  19.341  0.00  0.00    +0.000 C 
ENDBRANCH  14  16
ENDBRANCH  13  14
ENDBRANCH  11  13
ENDBRANCH  10  11
ENDBRANCH   1  10
TORSDOF 6
ENDMDL
MODEL 3
REMARK VINA RESULT:      -5.4      4.418      5.596
REMARK  Name = 
REMARK  8 active torsions:
REMARK  status: ('A' for Active; 'I' for Inactive)
REMARK    1  A    between atoms: C_1  and  N_2
REMARK    2  A    between atoms: N_2  and  C_3
REMARK    3  A    between atoms: N_2  and  C_4
REMARK    4  A    between atoms: C_4  and  C_5
REMARK    5  A    between atoms: C_5  and  N_6
REMARK    6  A    between atoms: N_6  and  C_7
REMARK    7  A    between atoms: C_7  and  C_8
REMARK    8  A    between atoms: C_8  and  C_9
REMARK                            x       y       z     vdW  Elec       q    Type
REMARK                         _______ _______ _______ _____ _____    ______ ____
ROOT
ATOM      1  C   UNL     1       4.479   3.502  17.135  0.00  0.00    +0.000 C 
ENDROOT
BRANCH   1   2
ATOM      2  C   UNL     1       5.369   4.038  16.036  0.00  0.00    +0.000 A 
ATOM      3  C   UNL     1       6.377   4.966  16.331  0.00  0.00    +0.000 A 
ATOM      4  C   UNL     1       7.244   5.405  15.328  0.00  0.00    +0.000 A 
ATOM      5  C   UNL     1       7.118   4.919  14.024  0.00  0.00    +0.000 A 
ATOM      6 CL   UNL     1       8.234   5.496  12.838  0.00  0.00    +0.000 Cl
ATOM      7  C   UNL     1       6.116   3.991  13.723  0.00  0.00    +0.000 A 
ATOM      8 CL   UNL     1       5.906   3.333  12.139  0.00  0.00    +0.000 Cl
ATOM      9  C   UNL     1       5.248   3.551  14.729  0.00  0.00    +0.000 A 
ENDBRANCH   1   2
BRANCH   1  10
ATOM     10  C   UNL     1       4.950   4.036  18.493  0.00  0.00    +0.000 C 
BRANCH  10  11
ATOM     11  N   UNL     1       5.132   2.958  19.469  0.00  0.00    +0.000 NA
ATOM     12  H   UNL     1       5.410   2.112  18.960  0.00  0.00    +0.000 HD
BRANCH  11  13
ATOM     13  C   UNL     1       3.855   2.637  20.135  0.00  0.00    +0.000 C 
BRANCH  13  14
ATOM     14  C   UNL     1       2.906   3.850  20.309  0.00  0.00    +0.000 C 
BRANCH  14  16
ATOM     15  C   UNL     1       1.017   2.726  19.282  0.00  0.00    +0.000 C 
ATOM     16  N   UNL     1       1.479   3.472  20.457  0.00  0.00    +0.000 NA
ATOM     17  C   UNL     1       1.307   2.656  21.660  0.00  0.00    +0.000 C 
ENDBRANCH  14  16
ENDBRANCH  13  14
ENDBRANCH  11  13
ENDBRANCH  10  11
ENDBRANCH   1  10
TORSDOF 6
ENDMDL
MODEL 4
REMARK VINA RESULT:      -5.4      2.958      4.494
REMARK  Name = 
REMARK  8 active torsions:
REMARK  status: ('A' for Active; 'I' for Inactive)
REMARK    1  A    between atoms: C_1  and  N_2
REMARK    2  A    between atoms: N_2  and  C_3
REMARK    3  A    between atoms: N_2  and  C_4
REMARK    4  A    between atoms: C_4  and  C_5
REMARK    5  A    between atoms: C_5  and  N_6
REMARK    6  A    between atoms: N_6  and  C_7
REMARK    7  A    between atoms: C_7  and  C_8
REMARK    8  A    between atoms: C_8  and  C_9
REMARK                            x       y       z     vdW  Elec       q    Type
REMARK                         _______ _______ _______ _____ _____    ______ ____
ROOT
ATOM      1  C   UNL     1       2.725   5.676  18.562  0.00  0.00    +0.000 C 
ENDROOT
BRANCH   1   2
ATOM      2  C   UNL     1       3.942   5.450  17.694  0.00  0.00    +0.000 A 
ATOM      3  C   UNL     1       3.935   4.453  16.709  0.00  0.00    +0.000 A 
ATOM      4  C   UNL     1       5.033   4.294  15.860  0.00  0.00    +0.000 A 
ATOM      5  C   UNL     1       6.144   5.132  15.981  0.00  0.00    +0.000 A 
ATOM      6 CL   UNL     1       7.460   4.887  14.889  0.00  0.00    +0.000 Cl
ATOM      7  C   UNL     1       6.158   6.131  16.960  0.00  0.00    +0.000 A 
ATOM      8 CL   UNL     1       7.488   7.215  17.162  0.00  0.00    +0.000 Cl
ATOM      9  C   UNL     1       5.057   6.290  17.809  0.00  0.00    +0.000 A 
ENDBRANCH   1   2
BRANCH   1  10
ATOM     10  C   UNL     1       3.138   5.707  20.038  0.00  0.00    +0.000 C 
BRANCH  10  11
ATOM     11  N   UNL     1       1.984   5.554  20.930  0.00  0.00    +0.000 NA
ATOM     12  H   UNL     1       2.334   5.301  21.861  0.00  0.00    +0.000 HD
BRANCH  11  13
ATOM     13  C   UNL     1       1.131   4.434  20.492  0.00  0.00    +0.000 C 
BRANCH  13  14
ATOM     14  C   UNL     1       1.634   3.037  20.940  0.00  0.00    +0.000 C 
BRANCH  14  16
ATOM     15  C   UNL     1       0.929   2.438  18.697  0.00  0.00    +0.000 C 
ATOM     16  N   UNL     1       1.799   2.078  19.822  0.00  0.00    +0.000 NA
ATOM     17  C   UNL     1       3.196   2.068  19.382  0.00  0.00    +0.000 C 
ENDBRANCH  14  16
ENDBRANCH  13  14
ENDBRANCH  11  13
ENDBRANCH  10  11
ENDBRANCH   1  10
TORSDOF 6
ENDMDL
MODEL 5
REMARK VINA RESULT:      -5.4      4.011      5.426
REMARK  Name = 
REMARK  8 active torsions:
REMARK  status: ('A' for Active; 'I' for Inactive)
REMARK    1  A    between atoms: C_1  and  N_2
REMARK    2  A    between atoms: N_2  and  C_3
REMARK    3  A    between atoms: N_2  and  C_4
REMARK    4  A    between atoms: C_4  and  C_5
REMARK    5  A    between atoms: C_5  and  N_6
REMARK    6  A    between atoms: N_6  and  C_7
REMARK    7  A    between atoms: C_7  and  C_8
REMARK    8  A    between atoms: C_8  and  C_9
REMARK                            x       y       z     vdW  Elec       q    Type
REMARK                         _______ _______ _______ _____ _____    ______ ____
ROOT
ATOM      1  C   UNL     1       4.651   3.953  17.964  0.00  0.00    +0.000 C 
ENDROOT
BRANCH   1   2
ATOM      2  C   UNL     1       5.438   4.331  16.730  0.00  0.00    +0.000 A 
ATOM      3  C   UNL     1       6.644   5.036  16.846  0.00  0.00    +0.000 A 
ATOM      4  C   UNL     1       7.405   5.320  15.710  0.00  0.00    +0.000 A 
ATOM      5  C   UNL     1       6.975   4.898  14.450  0.00  0.00    +0.000 A 
ATOM      6 CL   UNL     1       7.975   5.273  13.091  0.00  0.00    +0.000 Cl
ATOM      7  C   UNL     1       5.775   4.192  14.326  0.00  0.00    +0.000 A 
ATOM      8 CL   UNL     1       5.185   3.624  12.804  0.00  0.00    +0.000 Cl
ATOM      9  C   UNL     1       5.013   3.907  15.464  0.00  0.00    +0.000 A 
ENDBRANCH   1   2
BRANCH   1  10
ATOM     10  C   UNL     1       5.106   4.809  19.152  0.00  0.00    +0.000 C 
BRANCH  10  11
ATOM     11  N   UNL     1       3.976   5.471  19.811  0.00  0.00    +0.000 NA
ATOM     12  H   UNL     1       4.017   5.249  20.812  0.00  0.00    +0.000 HD
BRANCH  11  13
ATOM     13  C   UNL     1       2.695   4.928  19.320  0.00  0.00    +0.000 C 
BRANCH  13  14
ATOM     14  C   UNL     1       1.592   4.822  20.404  0.00  0.00    +0.000 C 
BRANCH  14  16
ATOM     15  C   UNL     1       1.098   2.774  19.201  0.00  0.00    +0.000 C 
ATOM     16  N   UNL     1       0.958   3.483  20.478  0.00  0.00    +0.000 NA
ATOM     17  C   UNL     1       1.579   2.701  21.548  0.00  0.00    +0.000 C 
ENDBRANCH  14  16
ENDBRANCH  13  14
ENDBRANCH  11  13
ENDBRANCH  10  11
ENDBRANCH   1  10
TORSDOF 6
ENDMDL
MODEL 6
REMARK VINA RESULT:      -5.4      2.932      3.872
REMARK  Name = 
REMARK  8 active torsions:
REMARK  status: ('A' for Active; 'I' for Inactive)
REMARK    1  A    between atoms: C_1  and  N_2
REMARK    2  A    between atoms: N_2  and  C_3
REMARK    3  A    between atoms: N_2  and  C_4
REMARK    4  A    between atoms: C_4  and  C_5
REMARK    5  A    between atoms: C_5  and  N_6
REMARK    6  A    between atoms: N_6  and  C_7
REMARK    7  A    between atoms: C_7  and  C_8
REMARK    8  A    between atoms: C_8  and  C_9
REMARK                            x       y       z     vdW  Elec       q    Type
REMARK                         _______ _______ _______ _____ _____    ______ ____
ROOT
ATOM      1  C   UNL     1       4.340   2.849  18.976  0.00  0.00    +0.000 C 
ENDROOT
BRANCH   1   2
ATOM      2  C   UNL     1       5.096   4.098  18.583  0.00  0.00    +0.000 A 
ATOM      3  C   UNL     1       6.141   4.577  19.385  0.00  0.00    +0.000 A 
ATOM      4  C   UNL     1       6.885   5.688  18.983  0.00  0.00    +0.000 A 
ATOM      5  C   UNL     1       6.599   6.328  17.774  0.00  0.00    +0.000 A 
ATOM      6 CL   UNL     1       7.569   7.688  17.334  0.00  0.00    +0.000 Cl
ATOM      7  C   UNL     1       5.560   5.855  16.967  0.00  0.00    +0.000 A 
ATOM      8 CL   UNL     1       5.156   6.583  15.453  0.00  0.00    +0.000 Cl
ATOM      9  C   UNL     1       4.815   4.741  17.370  0.00  0.00    +0.000 A 
ENDBRANCH   1   2
BRANCH   1  10
ATOM     10  C   UNL     1       3.511   2.347  17.788  0.00  0.00    +0.000 C 
BRANCH  10  11
ATOM     11  N   UNL     1       2.190   1.871  18.208  0.00  0.00    +0.000 NA
ATOM     12  H   UNL     1       1.782   1.339  17.431  0.00  0.00    +0.000 HD
BRANCH  11  13
ATOM     13  C   UNL     1       1.280   3.006  18.453  0.00  0.00    +0.000 C 
BRANCH  13  14
ATOM     14  C   UNL     1       0.617   2.999  19.855  0.00  0.00    +0.000 C 
BRANCH  14  16
ATOM     15  C   UNL     1       2.123   3.446  21.704  0.00  0.00    +0.000 C 
ATOM     16  N   UNL     1       1.155   4.033  20.771  0.00  0.00    +0.000 NA
ATOM     17  C   UNL     1       1.798   5.095  19.995  0.00  0.00    +0.000 C 
ENDBRANCH  14  16
ENDBRANCH  13  14
ENDBRANCH  11  13
ENDBRANCH  10  11
ENDBRANCH   1  10
TORSDOF 6
ENDMDL
MODEL 7
REMARK VINA RESULT:      -5.3      3.186      4.179
REMARK  Name = 
REMARK  8 active torsions:
REMARK  status: ('A' for Active; 'I' for Inactive)
REMARK    1  A    between atoms: C_1  and  N_2
REMARK    2  A    between atoms: N_2  and  C_3
REMARK    3  A    between atoms: N_2  and  C_4
REMARK    4  A    between atoms: C_4  and  C_5
REMARK    5  A    between atoms: C_5  and  N_6
REMARK    6  A    between atoms: N_6  and  C_7
REMARK    7  A    between atoms: C_7  and  C_8
REMARK    8  A    between atoms: C_8  and  C_9
REMARK                            x       y       z     vdW  Elec       q    Type
REMARK                         _______ _______ _______ _____ _____    ______ ____
ROOT
ATOM      1  C   UNL     1       2.726   3.370  17.066  0.00  0.00    +0.000 C 
ENDROOT
BRANCH   1   2
ATOM      2  C   UNL     1       3.919   4.299  17.080  0.00  0.00    +0.000 A 
ATOM      3  C   UNL     1       4.112   5.189  18.145  0.00  0.00    +0.000 A 
ATOM      4  C   UNL     1       5.252   5.994  18.192  0.00  0.00    +0.000 A 
ATOM      5  C   UNL     1       6.214   5.914  17.181  0.00  0.00    +0.000 A 
ATOM      6 CL   UNL     1       7.605   6.930  17.312  0.00  0.00    +0.000 Cl
ATOM      7  C   UNL     1       6.030   5.026  16.117  0.00  0.00    +0.000 A 
ATOM      8 CL   UNL     1       7.181   4.860  14.838  0.00  0.00    +0.000 Cl
ATOM      9  C   UNL     1       4.888   4.220  16.071  0.00  0.00    +0.000 A 
ENDBRANCH   1   2
BRANCH   1  10
ATOM     10  C   UNL     1       3.076   2.064  17.787  0.00  0.00    +0.000 C 
BRANCH  10  11
ATOM     11  N   UNL     1       1.944   1.551  18.566  0.00  0.00    +0.000 NA
ATOM     12  H   UNL     1       1.402   0.923  17.963  0.00  0.00    +0.000 HD
BRANCH  11  13
ATOM     13  C   UNL     1       1.032   2.648  18.943  0.00  0.00    +0.000 C 
BRANCH  13  14
ATOM     14  C   UNL     1       0.688   2.699  20.454  0.00  0.00    +0.000 C 
BRANCH  14  16
ATOM     15  C   UNL     1       2.907   3.134  21.334  0.00  0.00    +0.000 C 
ATOM     16  N   UNL     1       1.535   3.642  21.224  0.00  0.00    +0.000 NA
ATOM     17  C   UNL     1       1.544   4.949  20.566  0.00  0.00    +0.000 C 
ENDBRANCH  14  16
ENDBRANCH  13  14
ENDBRANCH  11  13
ENDBRANCH  10  11
ENDBRANCH   1  10
TORSDOF 6
ENDMDL
MODEL 8
REMARK VINA RESULT:      -5.3      3.311      4.249
REMARK  Name = 
REMARK  8 active torsions:
REMARK  status: ('A' for Active; 'I' for Inactive)
REMARK    1  A    between atoms: C_1  and  N_2
REMARK    2  A    between atoms: N_2  and  C_3
REMARK    3  A    between atoms: N_2  and  C_4
REMARK    4  A    between atoms: C_4  and  C_5
REMARK    5  A    between atoms: C_5  and  N_6
REMARK    6  A    between atoms: N_6  and  C_7
REMARK    7  A    between atoms: C_7  and  C_8
REMARK    8  A    between atoms: C_8  and  C_9
REMARK                            x       y       z     vdW  Elec       q    Type
REMARK                         _______ _______ _______ _____ _____    ______ ____
ROOT
ATOM      1  C   UNL     1       4.554   3.394  16.515  0.00  0.00    +0.000 C 
ENDROOT
BRANCH   1   2
ATOM      2  C   UNL     1       5.403   4.614  16.790  0.00  0.00    +0.000 A 
ATOM      3  C   UNL     1       5.225   5.785  16.039  0.00  0.00    +0.000 A 
ATOM      4  C   UNL     1       5.959   6.934  16.342  0.00  0.00    +0.000 A 
ATOM      5  C   UNL     1       6.873   6.928  17.399  0.00  0.00    +0.000 A 
ATOM      6 CL   UNL     1       7.736   8.389  17.725  0.00  0.00    +0.000 Cl
ATOM      7  C   UNL     1       7.054   5.765  18.154  0.00  0.00    +0.000 A 
ATOM      8 CL   UNL     1       8.153   5.685  19.485  0.00  0.00    +0.000 Cl
ATOM      9  C   UNL     1       6.317   4.615  17.851  0.00  0.00    +0.000 A 
ENDBRANCH   1   2
BRANCH   1  10
ATOM     10  C   UNL     1       3.613   3.139  17.698  0.00  0.00    +0.000 C 
BRANCH  10  11
ATOM     11  N   UNL     1       4.101   2.057  18.559  0.00  0.00    +0.000 NA
ATOM     12  H   UNL     1       3.524   1.227  18.383  0.00  0.00    +0.000 HD
BRANCH  11  13
ATOM     13  C   UNL     1       3.909   2.398  19.982  0.00  0.00    +0.000 C 
BRANCH  13  14
ATOM     14  C   UNL     1       3.436   3.854  20.230  0.00  0.00    +0.000 C 
BRANCH  14  16
ATOM     15  C   UNL     1       1.159   4.650  20.488  0.00  0.00    +0.000 C 
ATOM     16  N   UNL     1       2.271   3.952  21.143  0.00  0.00    +0.000 NA
ATOM     17  C   UNL     1       1.845   2.611  21.546  0.00  0.00    +0.000 C 
ENDBRANCH  14  16
ENDBRANCH  13  14
ENDBRANCH  11  13
ENDBRANCH  10  11
ENDBRANCH   1  10
TORSDOF 6
ENDMDL
MODEL 9
REMARK VINA RESULT:      -5.3      2.133      3.929
REMARK  Name = 
REMARK  8 active torsions:
REMARK  status: ('A' for Active; 'I' for Inactive)
REMARK    1  A    between atoms: C_1  and  N_2
REMARK    2  A    between atoms: N_2  and  C_3
REMARK    3  A    between atoms: N_2  and  C_4
REMARK    4  A    between atoms: C_4  and  C_5
REMARK    5  A    between atoms: C_5  and  N_6
REMARK    6  A    between atoms: N_6  and  C_7
REMARK    7  A    between atoms: C_7  and  C_8
REMARK    8  A    between atoms: C_8  and  C_9
REMARK                            x       y       z     vdW  Elec       q    Type
REMARK                         _______ _______ _______ _____ _____    ______ ____
ROOT
ATOM      1  C   UNL     1       2.647   3.424  17.492  0.00  0.00    +0.000 C 
ENDROOT
BRANCH   1   2
ATOM      2  C   UNL     1       2.339   4.626  18.355  0.00  0.00    +0.000 A 
ATOM      3  C   UNL     1       1.996   4.461  19.704  0.00  0.00    +0.000 A 
ATOM      4  C   UNL     1       1.783   5.576  20.518  0.00  0.00    +0.000 A 
ATOM      5  C   UNL     1       1.917   6.865  19.996  0.00  0.00    +0.000 A 
ATOM      6 CL   UNL     1       1.652   8.197  21.064  0.00  0.00    +0.000 Cl
ATOM      7  C   UNL     1       2.261   7.038  18.652  0.00  0.00    +0.000 A 
ATOM      8 CL   UNL     1       2.460   8.600  17.938  0.00  0.00    +0.000 Cl
ATOM      9  C   UNL     1       2.475   5.921  17.838  0.00  0.00    +0.000 A 
ENDBRANCH   1   2
BRANCH   1  10
ATOM     10  C   UNL     1       4.008   2.837  17.884  0.00  0.00    +0.000 C 
BRANCH  10  11
ATOM     11  N   UNL     1       5.093   3.382  17.063  0.00  0.00    +0.000 NA
ATOM     12  H   UNL     1       5.727   2.612  16.822  0.00  0.00    +0.000 HD
BRANCH  11  13
ATOM     13  C   UNL     1       5.894   4.350  17.835  0.00  0.00    +0.000 C 
BRANCH  13  14
ATOM     14  C   UNL     1       7.189   4.817  17.122  0.00  0.00    +0.000 C 
BRANCH  14  16
ATOM     15  C   UNL     1       5.939   6.845  16.663  0.00  0.00    +0.000 C 
ATOM     16  N   UNL     1       7.268   6.286  16.934  0.00  0.00    +0.000 NA
ATOM     17  C   UNL     1       7.830   6.908  18.134  0.00  0.00    +0.000 C 
ENDBRANCH  14  16
ENDBRANCH  13  14
ENDBRANCH  11  13
ENDBRANCH  10  11
ENDBRANCH   1  10
TORSDOF 6
ENDMDL
