MODEL 1
REMARK VINA RESULT:      -8.4      0.000      0.000
REMARK  Name = 
REMARK  14 active torsions:
REMARK  status: ('A' for Active; 'I' for Inactive)
REMARK    1  A    between atoms: C_1  and  C_2
REMARK    2  A    between atoms: C_2  and  C_3
REMARK    3  A    between atoms: C_3  and  C_4
REMARK    4  A    between atoms: C_4  and  C_5
REMARK    5  A    between atoms: N_7  and  C_8
REMARK    6  A    between atoms: N_7  and  C_27
REMARK    7  A    between atoms: C_8  and  C_9
REMARK    8  A    between atoms: C_12  and  C_13
REMARK    9  A    between atoms: C_18  and  C_19
REMARK   10  A    between atoms: C_27  and  C_28
REMARK   11  A    between atoms: C_27  and  C_31
REMARK   12  A    between atoms: C_28  and  O_30
REMARK   13  A    between atoms: C_31  and  C_32
REMARK   14  A    between atoms: C_31  and  C_33
REMARK                            x       y       z     vdW  Elec       q    Type
REMARK                         _______ _______ _______ _____ _____    ______ ____
ROOT
ATOM      1  C   UNL     1       2.249   7.063  18.576  0.00  0.00    +0.000 A 
ATOM      2  C   UNL     1       1.866   7.310  19.895  0.00  0.00    +0.000 A 
ATOM      3  C   UNL     1       1.353   8.567  20.273  0.00  0.00    +0.000 A 
ATOM      4  C   UNL     1       1.107   9.592  19.343  0.00  0.00    +0.000 A 
ATOM      5  C   UNL     1       1.544   9.327  18.030  0.00  0.00    +0.000 A 
ATOM      6  C   UNL     1       2.184   8.131  17.677  0.00  0.00    +0.000 A 
ENDROOT
BRANCH   4   7
ATOM      7  C   UNL     1       0.511  10.923  19.706  0.00  0.00    +0.000 A 
ATOM      8  C   UNL     1       1.205  11.724  20.656  0.00  0.00    +0.000 A 
ATOM      9  C   UNL     1       0.702  12.926  21.164  0.00  0.00    +0.000 A 
ATOM     10  C   UNL     1      -0.543  13.371  20.765  0.00  0.00    +0.000 A 
ATOM     11  C   UNL     1      -1.248  12.645  19.811  0.00  0.00    +0.000 A 
ATOM     12  C   UNL     1      -0.723  11.454  19.252  0.00  0.00    +0.000 A 
BRANCH  12  13
ATOM     13  C   UNL     1      -1.548  10.901  18.145  0.00  0.00    +0.000 A 
ATOM     14  N   UNL     1      -1.789  11.530  17.031  0.00  0.00    +0.000 NA
ATOM     15  C   UNL     1      -2.546  10.663  16.274  0.00  0.00    +0.000 A 
ATOM     16  O   UNL     1      -2.960  10.853  15.142  0.00  0.00    +0.000 OA
ATOM     17  O   UNL     1      -2.734   9.486  16.975  0.00  0.00    +0.000 OA
ATOM     18  N   UNL     1      -2.167   9.679  18.241  0.00  0.00    +0.000 N 
ATOM     19  H   UNL     1      -1.602   8.901  18.570  0.00  0.00    +0.000 HD
ENDBRANCH  12  13
ENDBRANCH   4   7
BRANCH   1  20
ATOM     20  C   UNL     1       2.641   5.684  18.092  0.00  0.00    +0.000 C 
BRANCH  20  23
ATOM     21  C   UNL     1       5.127   5.535  18.792  0.00  0.00    +0.000 C 
ATOM     22  O   UNL     1       5.950   5.097  19.586  0.00  0.00    +0.000 OA
ATOM     23  N   UNL     1       3.816   5.039  18.756  0.00  0.00    +0.000 N 
BRANCH  21  24
ATOM     24  C   UNL     1       5.526   6.574  17.766  0.00  0.00    +0.000 C 
BRANCH  24  25
ATOM     25  C   UNL     1       6.390   6.099  16.608  0.00  0.00    +0.000 C 
BRANCH  25  27
ATOM     26  C   UNL     1       5.653   3.986  15.472  0.00  0.00    +0.000 C 
ATOM     27  C   UNL     1       5.552   5.499  15.480  0.00  0.00    +0.000 C 
ENDBRANCH  25  27
ENDBRANCH  24  25
ENDBRANCH  21  24
BRANCH  23  28
ATOM     28  C   UNL     1       3.518   3.926  19.708  0.00  0.00    +0.000 C 
BRANCH  28  29
ATOM     29  C   UNL     1       2.042   3.828  20.183  0.00  0.00    +0.000 C 
ATOM     30  C   UNL     1       1.254   2.805  19.345  0.00  0.00    +0.000 C 
ATOM     31  C   UNL     1       1.935   3.387  21.651  0.00  0.00    +0.000 C 
ENDBRANCH  28  29
BRANCH  28  32
ATOM     32  C   UNL     1       4.098   2.652  19.062  0.00  0.00    +0.000 C 
ATOM     33  O   UNL     1       3.779   2.206  17.972  0.00  0.00    +0.000 OA
BRANCH  32  34
ATOM     34  O   UNL     1       4.985   2.017  19.863  0.00  0.00    +0.000 OA
ATOM     35  H   UNL     1       5.388   2.633  20.511  0.00  0.00    +0.000 HD
ENDBRANCH  32  34
ENDBRANCH  28  32
ENDBRANCH  23  28
ENDBRANCH  20  23
ENDBRANCH   1  20
TORSDOF 11
ENDMDL
MODEL 2
REMARK VINA RESULT:      -8.4      0.814      1.294
REMARK  Name = 
REMARK  14 active torsions:
REMARK  status: ('A' for Active; 'I' for Inactive)
REMARK    1  A    between atoms: C_1  and  C_2
REMARK    2  A    between atoms: C_2  and  C_3
REMARK    3  A    between atoms: C_3  and  C_4
REMARK    4  A    between atoms: C_4  and  C_5
REMARK    5  A    between atoms: N_7  and  C_8
REMARK    6  A    between atoms: N_7  and  C_27
REMARK    7  A    between atoms: C_8  and  C_9
REMARK    8  A    between atoms: C_12  and  C_13
REMARK    9  A    between atoms: C_18  and  C_19
REMARK   10  A    between atoms: C_27  and  C_28
REMARK   11  A    between atoms: C_27  and  C_31
REMARK   12  A    between atoms: C_28  and  O_30
REMARK   13  A    between atoms: C_31  and  C_32
REMARK   14  A    between atoms: C_31  and  C_33
REMARK                            x       y       z     vdW  Elec       q    Type
REMARK                         _______ _______ _______ _____ _____    ______ ____
ROOT
ATOM      1  C   UNL     1       2.317   7.216  18.494  0.00  0.00    +0.000 A 
ATOM      2  C   UNL     1       1.918   7.419  19.816  0.00  0.00    +0.000 A 
ATOM      3  C   UNL     1       1.378   8.656  20.223  0.00  0.00    +0.000 A 
ATOM      4  C   UNL     1       1.121   9.701  19.319  0.00  0.00    +0.000 A 
ATOM      5  C   UNL     1       1.576   9.480  18.003  0.00  0.00    +0.000 A 
ATOM      6  C   UNL     1       2.240   8.307  17.624  0.00  0.00    +0.000 A 
ENDROOT
BRANCH   4   7
ATOM      7  C   UNL     1       0.498  11.011  19.713  0.00  0.00    +0.000 A 
ATOM      8  C   UNL     1       1.184  11.813  20.667  0.00  0.00    +0.000 A 
ATOM      9  C   UNL     1       0.659  12.993  21.201  0.00  0.00    +0.000 A 
ATOM     10  C   UNL     1      -0.602  13.414  20.827  0.00  0.00    +0.000 A 
ATOM     11  C   UNL     1      -1.301  12.686  19.870  0.00  0.00    +0.000 A 
ATOM     12  C   UNL     1      -0.755  11.518  19.284  0.00  0.00    +0.000 A 
BRANCH  12  13
ATOM     13  C   UNL     1      -1.581  10.963  18.179  0.00  0.00    +0.000 A 
ATOM     14  N   UNL     1      -1.821  11.589  17.063  0.00  0.00    +0.000 NA
ATOM     15  C   UNL     1      -2.580  10.720  16.309  0.00  0.00    +0.000 A 
ATOM     16  O   UNL     1      -2.994  10.908  15.176  0.00  0.00    +0.000 OA
ATOM     17  O   UNL     1      -2.770   9.546  17.014  0.00  0.00    +0.000 OA
ATOM     18  N   UNL     1      -2.202   9.742  18.279  0.00  0.00    +0.000 N 
ATOM     19  H   UNL     1      -1.639   8.964  18.610  0.00  0.00    +0.000 HD
ENDBRANCH  12  13
ENDBRANCH   4   7
BRANCH   1  20
ATOM     20  C   UNL     1       2.739   5.857  17.976  0.00  0.00    +0.000 C 
BRANCH  20  23
ATOM     21  C   UNL     1       5.193   5.692  18.777  0.00  0.00    +0.000 C 
ATOM     22  O   UNL     1       5.984   5.229  19.590  0.00  0.00    +0.000 OA
ATOM     23  N   UNL     1       3.888   5.194  18.667  0.00  0.00    +0.000 N 
BRANCH  21  24
ATOM     24  C   UNL     1       5.631   6.767  17.806  0.00  0.00    +0.000 C 
BRANCH  24  25
ATOM     25  C   UNL     1       7.057   6.681  17.283  0.00  0.00    +0.000 C 
BRANCH  25  27
ATOM     26  C   UNL     1       8.005   8.943  17.816  0.00  0.00    +0.000 C 
ATOM     27  C   UNL     1       8.033   7.467  18.159  0.00  0.00    +0.000 C 
ENDBRANCH  25  27
ENDBRANCH  24  25
ENDBRANCH  21  24
BRANCH  23  28
ATOM     28  C   UNL     1       3.554   4.047  19.566  0.00  0.00    +0.000 C 
BRANCH  28  29
ATOM     29  C   UNL     1       2.098   4.021  20.107  0.00  0.00    +0.000 C 
ATOM     30  C   UNL     1       1.236   3.003  19.338  0.00  0.00    +0.000 C 
ATOM     31  C   UNL     1       2.039   3.631  21.592  0.00  0.00    +0.000 C 
ENDBRANCH  28  29
BRANCH  28  32
ATOM     32  C   UNL     1       4.012   2.778  18.818  0.00  0.00    +0.000 C 
ATOM     33  O   UNL     1       3.858   2.568  17.627  0.00  0.00    +0.000 OA
BRANCH  32  34
ATOM     34  O   UNL     1       4.570   1.860  19.641  0.00  0.00    +0.000 OA
ATOM     35  H   UNL     1       3.889   1.290  20.058  0.00  0.00    +0.000 HD
ENDBRANCH  32  34
ENDBRANCH  28  32
ENDBRANCH  23  28
ENDBRANCH  20  23
ENDBRANCH   1  20
TORSDOF 11
ENDMDL
MODEL 3
REMARK VINA RESULT:      -8.4      2.188      8.760
REMARK  Name = 
REMARK  14 active torsions:
REMARK  status: ('A' for Active; 'I' for Inactive)
REMARK    1  A    between atoms: C_1  and  C_2
REMARK    2  A    between atoms: C_2  and  C_3
REMARK    3  A    between atoms: C_3  and  C_4
REMARK    4  A    between atoms: C_4  and  C_5
REMARK    5  A    between atoms: N_7  and  C_8
REMARK    6  A    between atoms: N_7  and  C_27
REMARK    7  A    between atoms: C_8  and  C_9
REMARK    8  A    between atoms: C_12  and  C_13
REMARK    9  A    between atoms: C_18  and  C_19
REMARK   10  A    between atoms: C_27  and  C_28
REMARK   11  A    between atoms: C_27  and  C_31
REMARK   12  A    between atoms: C_28  and  O_30
REMARK   13  A    between atoms: C_31  and  C_32
REMARK   14  A    between atoms: C_31  and  C_33
REMARK                            x       y       z     vdW  Elec       q    Type
REMARK                         _______ _______ _______ _____ _____    ______ ____
ROOT
ATOM      1  C   UNL     1       0.780   9.484  19.929  0.00  0.00    +0.000 A 
ATOM      2  C   UNL     1       1.178   9.657  18.602  0.00  0.00    +0.000 A 
ATOM      3  C   UNL     1       2.051   8.737  17.986  0.00  0.00    +0.000 A 
ATOM      4  C   UNL     1       2.482   7.562  18.625  0.00  0.00    +0.000 A 
ATOM      5  C   UNL     1       2.098   7.439  19.975  0.00  0.00    +0.000 A 
ATOM      6  C   UNL     1       1.347   8.420  20.636  0.00  0.00    +0.000 A 
ENDROOT
BRANCH   4   7
ATOM      7  C   UNL     1       3.369   6.537  17.976  0.00  0.00    +0.000 A 
ATOM      8  C   UNL     1       4.321   6.991  17.021  0.00  0.00    +0.000 A 
ATOM      9  C   UNL     1       5.123   6.131  16.265  0.00  0.00    +0.000 A 
ATOM     10  C   UNL     1       4.988   4.764  16.407  0.00  0.00    +0.000 A 
ATOM     11  C   UNL     1       4.098   4.267  17.353  0.00  0.00    +0.000 A 
ATOM     12  C   UNL     1       3.319   5.131  18.161  0.00  0.00    +0.000 A 
BRANCH  12  13
ATOM     13  C   UNL     1       2.541   4.424  19.212  0.00  0.00    +0.000 A 
ATOM     14  N   UNL     1       3.019   4.096  20.378  0.00  0.00    +0.000 NA
ATOM     15  C   UNL     1       1.974   3.503  21.052  0.00  0.00    +0.000 A 
ATOM     16  O   UNL     1       1.991   3.078  22.196  0.00  0.00    +0.000 OA
ATOM     17  O   UNL     1       0.849   3.503  20.247  0.00  0.00    +0.000 OA
ATOM     18  N   UNL     1       1.246   4.014  19.005  0.00  0.00    +0.000 N 
ATOM     19  H   UNL     1       0.605   4.695  18.608  0.00  0.00    +0.000 HD
ENDBRANCH  12  13
ENDBRANCH   4   7
BRANCH   1  20
ATOM     20  C   UNL     1      -0.284  10.345  20.573  0.00  0.00    +0.000 C 
BRANCH  20  23
ATOM     21  C   UNL     1      -1.888  11.306  18.785  0.00  0.00    +0.000 C 
ATOM     22  O   UNL     1      -2.493  12.283  18.361  0.00  0.00    +0.000 OA
ATOM     23  N   UNL     1      -0.869  11.440  19.738  0.00  0.00    +0.000 N 
BRANCH  21  24
ATOM     24  C   UNL     1      -2.170   9.927  18.230  0.00  0.00    +0.000 C 
BRANCH  24  25
ATOM     25  C   UNL     1      -2.043   9.754  16.724  0.00  0.00    +0.000 C 
BRANCH  25  27
ATOM     26  C   UNL     1      -3.188  10.175  14.530  0.00  0.00    +0.000 C 
ATOM     27  C   UNL     1      -3.385   9.939  16.015  0.00  0.00    +0.000 C 
ENDBRANCH  25  27
ENDBRANCH  24  25
ENDBRANCH  21  24
BRANCH  23  28
ATOM     28  C   UNL     1      -0.550  12.840  20.154  0.00  0.00    +0.000 C 
BRANCH  28  29
ATOM     29  C   UNL     1       0.151  12.986  21.533  0.00  0.00    +0.000 C 
ATOM     30  C   UNL     1       1.121  14.182  21.541  0.00  0.00    +0.000 C 
ATOM     31  C   UNL     1      -0.854  13.212  22.672  0.00  0.00    +0.000 C 
ENDBRANCH  28  29
BRANCH  28  32
ATOM     32  C   UNL     1       0.186  13.478  18.959  0.00  0.00    +0.000 C 
ATOM     33  O   UNL     1       1.262  13.112  18.516  0.00  0.00    +0.000 OA
BRANCH  32  34
ATOM     34  O   UNL     1      -0.464  14.556  18.461  0.00  0.00    +0.000 OA
ATOM     35  H   UNL     1      -1.435  14.417  18.452  0.00  0.00    +0.000 HD
ENDBRANCH  32  34
ENDBRANCH  28  32
ENDBRANCH  23  28
ENDBRANCH  20  23
ENDBRANCH   1  20
TORSDOF 11
ENDMDL
MODEL 4
REMARK VINA RESULT:      -8.3      3.067      8.361
REMARK  Name = 
REMARK  14 active torsions:
REMARK  status: ('A' for Active; 'I' for Inactive)
REMARK    1  A    between atoms: C_1  and  C_2
REMARK    2  A    between atoms: C_2  and  C_3
REMARK    3  A    between atoms: C_3  and  C_4
REMARK    4  A    between atoms: C_4  and  C_5
REMARK    5  A    between atoms: N_7  and  C_8
REMARK    6  A    between atoms: N_7  and  C_27
REMARK    7  A    between atoms: C_8  and  C_9
REMARK    8  A    between atoms: C_12  and  C_13
REMARK    9  A    between atoms: C_18  and  C_19
REMARK   10  A    between atoms: C_27  and  C_28
REMARK   11  A    between atoms: C_27  and  C_31
REMARK   12  A    between atoms: C_28  and  O_30
REMARK   13  A    between atoms: C_31  and  C_32
REMARK   14  A    between atoms: C_31  and  C_33
REMARK                            x       y       z     vdW  Elec       q    Type
REMARK                         _______ _______ _______ _____ _____    ______ ____
ROOT
ATOM      1  C   UNL     1       0.897   9.416  19.422  0.00  0.00    +0.000 A 
ATOM      2  C   UNL     1       1.289   9.441  18.083  0.00  0.00    +0.000 A 
ATOM      3  C   UNL     1       2.168   8.465  17.571  0.00  0.00    +0.000 A 
ATOM      4  C   UNL     1       2.612   7.374  18.337  0.00  0.00    +0.000 A 
ATOM      5  C   UNL     1       2.234   7.402  19.695  0.00  0.00    +0.000 A 
ATOM      6  C   UNL     1       1.476   8.445  20.243  0.00  0.00    +0.000 A 
ENDROOT
BRANCH   4   7
ATOM      7  C   UNL     1       3.507   6.290  17.805  0.00  0.00    +0.000 A 
ATOM      8  C   UNL     1       4.510   6.657  16.867  0.00  0.00    +0.000 A 
ATOM      9  C   UNL     1       5.328   5.732  16.211  0.00  0.00    +0.000 A 
ATOM     10  C   UNL     1       5.159   4.381  16.444  0.00  0.00    +0.000 A 
ATOM     11  C   UNL     1       4.216   3.969  17.379  0.00  0.00    +0.000 A 
ATOM     12  C   UNL     1       3.418   4.902  18.086  0.00  0.00    +0.000 A 
BRANCH  12  13
ATOM     13  C   UNL     1       2.578   4.285  19.147  0.00  0.00    +0.000 A 
ATOM     14  N   UNL     1       3.019   3.953  20.326  0.00  0.00    +0.000 NA
ATOM     15  C   UNL     1       1.925   3.461  21.003  0.00  0.00    +0.000 A 
ATOM     16  O   UNL     1       1.899   3.066  22.158  0.00  0.00    +0.000 OA
ATOM     17  O   UNL     1       0.811   3.527  20.186  0.00  0.00    +0.000 OA
ATOM     18  N   UNL     1       1.258   3.971  18.936  0.00  0.00    +0.000 N 
ATOM     19  H   UNL     1       0.675   4.690  18.515  0.00  0.00    +0.000 HD
ENDBRANCH  12  13
ENDBRANCH   4   7
BRANCH   1  20
ATOM     20  C   UNL     1      -0.173  10.336  19.969  0.00  0.00    +0.000 C 
BRANCH  20  23
ATOM     21  C   UNL     1       1.058  12.473  20.750  0.00  0.00    +0.000 C 
ATOM     22  O   UNL     1       1.122  13.387  21.563  0.00  0.00    +0.000 OA
ATOM     23  N   UNL     1       0.255  11.347  20.984  0.00  0.00    +0.000 N 
BRANCH  21  24
ATOM     24  C   UNL     1       1.910  12.494  19.500  0.00  0.00    +0.000 C 
BRANCH  24  25
ATOM     25  C   UNL     1       1.892  13.775  18.679  0.00  0.00    +0.000 C 
BRANCH  25  27
ATOM     26  C   UNL     1       3.417  15.470  17.629  0.00  0.00    +0.000 C 
ATOM     27  C   UNL     1       3.195  14.562  18.823  0.00  0.00    +0.000 C 
ENDBRANCH  25  27
ENDBRANCH  24  25
ENDBRANCH  21  24
BRANCH  23  28
ATOM     28  C   UNL     1      -0.465  11.326  22.295  0.00  0.00    +0.000 C 
BRANCH  28  29
ATOM     29  C   UNL     1      -1.993  11.601  22.224  0.00  0.00    +0.000 C 
ATOM     30  C   UNL     1      -2.511  12.208  23.541  0.00  0.00    +0.000 C 
ATOM     31  C   UNL     1      -2.352  12.585  21.100  0.00  0.00    +0.000 C 
ENDBRANCH  28  29
BRANCH  28  32
ATOM     32  C   UNL     1      -0.054  10.007  22.980  0.00  0.00    +0.000 C 
ATOM     33  O   UNL     1       1.068   9.738  23.375  0.00  0.00    +0.000 OA
BRANCH  32  34
ATOM     34  O   UNL     1      -1.073   9.119  23.056  0.00  0.00    +0.000 OA
ATOM     35  H   UNL     1      -0.748   8.195  23.000  0.00  0.00    +0.000 HD
ENDBRANCH  32  34
ENDBRANCH  28  32
ENDBRANCH  23  28
ENDBRANCH  20  23
ENDBRANCH   1  20
TORSDOF 11
ENDMDL
MODEL 5
REMARK VINA RESULT:      -8.3      2.435      8.675
REMARK  Name = 
REMARK  14 active torsions:
REMARK  status: ('A' for Active; 'I' for Inactive)
REMARK    1  A    between atoms: C_1  and  C_2
REMARK    2  A    between atoms: C_2  and  C_3
REMARK    3  A    between atoms: C_3  and  C_4
REMARK    4  A    between atoms: C_4  and  C_5
REMARK    5  A    between atoms: N_7  and  C_8
REMARK    6  A    between atoms: N_7  and  C_27
REMARK    7  A    between atoms: C_8  and  C_9
REMARK    8  A    between atoms: C_12  and  C_13
REMARK    9  A    between atoms: C_18  and  C_19
REMARK   10  A    between atoms: C_27  and  C_28
REMARK   11  A    between atoms: C_27  and  C_31
REMARK   12  A    between atoms: C_28  and  O_30
REMARK   13  A    between atoms: C_31  and  C_32
REMARK   14  A    between atoms: C_31  and  C_33
REMARK                            x       y       z     vdW  Elec       q    Type
REMARK                         _______ _______ _______ _____ _____    ______ ____
ROOT
ATOM      1  C   UNL     1       1.277   8.809  19.719  0.00  0.00    +0.000 A 
ATOM      2  C   UNL     1       1.755   7.640  20.314  0.00  0.00    +0.000 A 
ATOM      3  C   UNL     1       2.572   6.747  19.591  0.00  0.00    +0.000 A 
ATOM      4  C   UNL     1       3.026   7.025  18.290  0.00  0.00    +0.000 A 
ATOM      5  C   UNL     1       2.490   8.189  17.704  0.00  0.00    +0.000 A 
ATOM      6  C   UNL     1       1.567   9.008  18.367  0.00  0.00    +0.000 A 
ENDROOT
BRANCH   4   7
ATOM      7  C   UNL     1       3.939   6.118  17.514  0.00  0.00    +0.000 A 
ATOM      8  C   UNL     1       5.008   6.714  16.788  0.00  0.00    +0.000 A 
ATOM      9  C   UNL     1       5.855   5.997  15.938  0.00  0.00    +0.000 A 
ATOM     10  C   UNL     1       5.653   4.644  15.749  0.00  0.00    +0.000 A 
ATOM     11  C   UNL     1       4.646   4.005  16.463  0.00  0.00    +0.000 A 
ATOM     12  C   UNL     1       3.815   4.712  17.365  0.00  0.00    +0.000 A 
BRANCH  12  13
ATOM     13  C   UNL     1       2.899   3.838  18.144  0.00  0.00    +0.000 A 
ATOM     14  N   UNL     1       1.682   3.551  17.781  0.00  0.00    +0.000 NA
ATOM     15  C   UNL     1       1.203   2.692  18.747  0.00  0.00    +0.000 A 
ATOM     16  O   UNL     1       0.104   2.160  18.769  0.00  0.00    +0.000 OA
ATOM     17  O   UNL     1       2.187   2.467  19.691  0.00  0.00    +0.000 OA
ATOM     18  N   UNL     1       3.264   3.296  19.352  0.00  0.00    +0.000 N 
ATOM     19  H   UNL     1       4.172   2.842  19.398  0.00  0.00    +0.000 HD
ENDBRANCH  12  13
ENDBRANCH   4   7
BRANCH   1  20
ATOM     20  C   UNL     1       0.544   9.875  20.506  0.00  0.00    +0.000 C 
BRANCH  20  23
ATOM     21  C   UNL     1      -0.865  11.511  19.081  0.00  0.00    +0.000 C 
ATOM     22  O   UNL     1      -1.114  12.675  18.792  0.00  0.00    +0.000 OA
ATOM     23  N   UNL     1       0.284  11.173  19.810  0.00  0.00    +0.000 N 
BRANCH  21  24
ATOM     24  C   UNL     1      -1.753  10.390  18.589  0.00  0.00    +0.000 C 
BRANCH  24  25
ATOM     25  C   UNL     1      -1.618   9.999  17.124  0.00  0.00    +0.000 C 
BRANCH  25  27
ATOM     26  C   UNL     1      -2.970  10.503  15.071  0.00  0.00    +0.000 C 
ATOM     27  C   UNL     1      -2.979   9.859  16.444  0.00  0.00    +0.000 C 
ENDBRANCH  25  27
ENDBRANCH  24  25
ENDBRANCH  21  24
BRANCH  23  28
ATOM     28  C   UNL     1       1.188  12.312  20.159  0.00  0.00    +0.000 C 
BRANCH  28  29
ATOM     29  C   UNL     1       1.805  13.071  18.952  0.00  0.00    +0.000 C 
ATOM     30  C   UNL     1       2.886  14.067  19.413  0.00  0.00    +0.000 C 
ATOM     31  C   UNL     1       2.470  12.117  17.947  0.00  0.00    +0.000 C 
ENDBRANCH  28  29
BRANCH  28  32
ATOM     32  C   UNL     1       0.405  13.179  21.165  0.00  0.00    +0.000 C 
ATOM     33  O   UNL     1       0.087  12.839  22.292  0.00  0.00    +0.000 OA
BRANCH  32  34
ATOM     34  O   UNL     1       0.040  14.376  20.648  0.00  0.00    +0.000 OA
ATOM     35  H   UNL     1       0.811  14.973  20.546  0.00  0.00    +0.000 HD
ENDBRANCH  32  34
ENDBRANCH  28  32
ENDBRANCH  23  28
ENDBRANCH  20  23
ENDBRANCH   1  20
TORSDOF 11
ENDMDL
MODEL 6
REMARK VINA RESULT:      -8.2      2.561      4.555
REMARK  Name = 
REMARK  14 active torsions:
REMARK  status: ('A' for Active; 'I' for Inactive)
REMARK    1  A    between atoms: C_1  and  C_2
REMARK    2  A    between atoms: C_2  and  C_3
REMARK    3  A    between atoms: C_3  and  C_4
REMARK    4  A    between atoms: C_4  and  C_5
REMARK    5  A    between atoms: N_7  and  C_8
REMARK    6  A    between atoms: N_7  and  C_27
REMARK    7  A    between atoms: C_8  and  C_9
REMARK    8  A    between atoms: C_12  and  C_13
REMARK    9  A    between atoms: C_18  and  C_19
REMARK   10  A    between atoms: C_27  and  C_28
REMARK   11  A    between atoms: C_27  and  C_31
REMARK   12  A    between atoms: C_28  and  O_30
REMARK   13  A    between atoms: C_31  and  C_32
REMARK   14  A    between atoms: C_31  and  C_33
REMARK                            x       y       z     vdW  Elec       q    Type
REMARK                         _______ _______ _______ _____ _____    ______ ____
ROOT
ATOM      1  C   UNL     1       2.861   7.119  19.202  0.00  0.00    +0.000 A 
ATOM      2  C   UNL     1       2.007   7.531  20.226  0.00  0.00    +0.000 A 
ATOM      3  C   UNL     1       1.055   8.546  20.004  0.00  0.00    +0.000 A 
ATOM      4  C   UNL     1       0.845   9.121  18.738  0.00  0.00    +0.000 A 
ATOM      5  C   UNL     1       1.752   8.715  17.739  0.00  0.00    +0.000 A 
ATOM      6  C   UNL     1       2.791   7.810  17.989  0.00  0.00    +0.000 A 
ENDROOT
BRANCH   4   7
ATOM      7  C   UNL     1      -0.198  10.167  18.459  0.00  0.00    +0.000 A 
ATOM      8  C   UNL     1      -1.390   9.757  17.801  0.00  0.00    +0.000 A 
ATOM      9  C   UNL     1      -2.384  10.648  17.383  0.00  0.00    +0.000 A 
ATOM     10  C   UNL     1      -2.215  12.004  17.577  0.00  0.00    +0.000 A 
ATOM     11  C   UNL     1      -1.084  12.456  18.248  0.00  0.00    +0.000 A 
ATOM     12  C   UNL     1      -0.097  11.558  18.722  0.00  0.00    +0.000 A 
BRANCH  12  13
ATOM     13  C   UNL     1       0.959  12.210  19.541  0.00  0.00    +0.000 A 
ATOM     14  N   UNL     1       1.893  12.974  19.053  0.00  0.00    +0.000 NA
ATOM     15  C   UNL     1       2.627  13.398  20.139  0.00  0.00    +0.000 A 
ATOM     16  O   UNL     1       3.581  14.160  20.122  0.00  0.00    +0.000 OA
ATOM     17  O   UNL     1       2.084  12.869  21.295  0.00  0.00    +0.000 OA
ATOM     18  N   UNL     1       1.054  12.008  20.896  0.00  0.00    +0.000 N 
ATOM     19  H   UNL     1       0.198  12.101  21.437  0.00  0.00    +0.000 HD
ENDBRANCH  12  13
ENDBRANCH   4   7
BRANCH   1  20
ATOM     20  C   UNL     1       3.776   5.921  19.344  0.00  0.00    +0.000 C 
BRANCH  20  23
ATOM     21  C   UNL     1       2.464   4.164  17.971  0.00  0.00    +0.000 C 
ATOM     22  O   UNL     1       2.391   3.507  16.940  0.00  0.00    +0.000 OA
ATOM     23  N   UNL     1       3.642   4.840  18.319  0.00  0.00    +0.000 N 
BRANCH  21  24
ATOM     24  C   UNL     1       1.306   4.201  18.943  0.00  0.00    +0.000 C 
BRANCH  24  25
ATOM     25  C   UNL     1       0.930   2.888  19.613  0.00  0.00    +0.000 C 
BRANCH  25  27
ATOM     26  C   UNL     1       2.611   2.862  21.477  0.00  0.00    +0.000 C 
ATOM     27  C   UNL     1       1.138   2.940  21.127  0.00  0.00    +0.000 C 
ENDBRANCH  25  27
ENDBRANCH  24  25
ENDBRANCH  21  24
BRANCH  23  28
ATOM     28  C   UNL     1       4.793   4.662  17.382  0.00  0.00    +0.000 C 
BRANCH  28  29
ATOM     29  C   UNL     1       5.088   5.868  16.448  0.00  0.00    +0.000 C 
ATOM     30  C   UNL     1       6.149   6.801  17.062  0.00  0.00    +0.000 C 
ATOM     31  C   UNL     1       5.620   5.422  15.077  0.00  0.00    +0.000 C 
ENDBRANCH  28  29
BRANCH  28  32
ATOM     32  C   UNL     1       5.974   4.184  18.249  0.00  0.00    +0.000 C 
ATOM     33  O   UNL     1       7.146   4.467  18.065  0.00  0.00    +0.000 OA
BRANCH  32  34
ATOM     34  O   UNL     1       5.588   3.344  19.239  0.00  0.00    +0.000 OA
ATOM     35  H   UNL     1       6.184   3.407  20.016  0.00  0.00    +0.000 HD
ENDBRANCH  32  34
ENDBRANCH  28  32
ENDBRANCH  23  28
ENDBRANCH  20  23
ENDBRANCH   1  20
TORSDOF 11
ENDMDL
MODEL 7
REMARK VINA RESULT:      -8.2      2.376      8.653
REMARK  Name = 
REMARK  14 active torsions:
REMARK  status: ('A' for Active; 'I' for Inactive)
REMARK    1  A    between atoms: C_1  and  C_2
REMARK    2  A    between atoms: C_2  and  C_3
REMARK    3  A    between atoms: C_3  and  C_4
REMARK    4  A    between atoms: C_4  and  C_5
REMARK    5  A    between atoms: N_7  and  C_8
REMARK    6  A    between atoms: N_7  and  C_27
REMARK    7  A    between atoms: C_8  and  C_9
REMARK    8  A    between atoms: C_12  and  C_13
REMARK    9  A    between atoms: C_18  and  C_19
REMARK   10  A    between atoms: C_27  and  C_28
REMARK   11  A    between atoms: C_27  and  C_31
REMARK   12  A    between atoms: C_28  and  O_30
REMARK   13  A    between atoms: C_31  and  C_32
REMARK   14  A    between atoms: C_31  and  C_33
REMARK                            x       y       z     vdW  Elec       q    Type
REMARK                         _______ _______ _______ _____ _____    ______ ____
ROOT
ATOM      1  C   UNL     1       1.219   9.245  19.560  0.00  0.00    +0.000 A 
ATOM      2  C   UNL     1       1.616   8.168  20.354  0.00  0.00    +0.000 A 
ATOM      3  C   UNL     1       2.328   7.087  19.796  0.00  0.00    +0.000 A 
ATOM      4  C   UNL     1       2.760   7.077  18.458  0.00  0.00    +0.000 A 
ATOM      5  C   UNL     1       2.306   8.157  17.675  0.00  0.00    +0.000 A 
ATOM      6  C   UNL     1       1.480   9.165  18.189  0.00  0.00    +0.000 A 
ENDROOT
BRANCH   4   7
ATOM      7  C   UNL     1       3.566   5.964  17.849  0.00  0.00    +0.000 A 
ATOM      8  C   UNL     1       4.574   6.312  16.908  0.00  0.00    +0.000 A 
ATOM      9  C   UNL     1       5.312   5.369  16.186  0.00  0.00    +0.000 A 
ATOM     10  C   UNL     1       5.054   4.022  16.353  0.00  0.00    +0.000 A 
ATOM     11  C   UNL     1       4.104   3.626  17.288  0.00  0.00    +0.000 A 
ATOM     12  C   UNL     1       3.388   4.573  18.061  0.00  0.00    +0.000 A 
BRANCH  12  13
ATOM     13  C   UNL     1       2.528   3.960  19.108  0.00  0.00    +0.000 A 
ATOM     14  N   UNL     1       2.960   3.582  20.277  0.00  0.00    +0.000 NA
ATOM     15  C   UNL     1       1.850   3.112  20.945  0.00  0.00    +0.000 A 
ATOM     16  O   UNL     1       1.813   2.689  22.089  0.00  0.00    +0.000 OA
ATOM     17  O   UNL     1       0.737   3.239  20.134  0.00  0.00    +0.000 OA
ATOM     18  N   UNL     1       1.197   3.700  18.894  0.00  0.00    +0.000 N 
ATOM     19  H   UNL     1       0.640   4.449  18.493  0.00  0.00    +0.000 HD
ENDBRANCH  12  13
ENDBRANCH   4   7
BRANCH   1  20
ATOM     20  C   UNL     1       0.608  10.500  20.146  0.00  0.00    +0.000 C 
BRANCH  20  23
ATOM     21  C   UNL     1      -0.846  11.766  18.422  0.00  0.00    +0.000 C 
ATOM     22  O   UNL     1      -1.126  12.838  17.898  0.00  0.00    +0.000 OA
ATOM     23  N   UNL     1       0.312  11.618  19.198  0.00  0.00    +0.000 N 
BRANCH  21  24
ATOM     24  C   UNL     1      -1.703  10.544  18.178  0.00  0.00    +0.000 C 
BRANCH  24  25
ATOM     25  C   UNL     1      -2.978  10.750  17.373  0.00  0.00    +0.000 C 
BRANCH  25  27
ATOM     26  C   UNL     1      -2.937  10.358  14.895  0.00  0.00    +0.000 C 
ATOM     27  C   UNL     1      -3.120   9.717  16.256  0.00  0.00    +0.000 C 
ENDBRANCH  25  27
ENDBRANCH  24  25
ENDBRANCH  21  24
BRANCH  23  28
ATOM     28  C   UNL     1       1.186  12.827  19.297  0.00  0.00    +0.000 C 
BRANCH  28  29
ATOM     29  C   UNL     1       1.805  13.092  20.698  0.00  0.00    +0.000 C 
ATOM     30  C   UNL     1       3.062  13.976  20.592  0.00  0.00    +0.000 C 
ATOM     31  C   UNL     1       0.825  13.812  21.637  0.00  0.00    +0.000 C 
ENDBRANCH  28  29
BRANCH  28  32
ATOM     32  C   UNL     1       2.189  12.720  18.132  0.00  0.00    +0.000 C 
ATOM     33  O   UNL     1       3.081  11.893  18.043  0.00  0.00    +0.000 OA
BRANCH  32  34
ATOM     34  O   UNL     1       2.023  13.695  17.208  0.00  0.00    +0.000 OA
ATOM     35  H   UNL     1       1.707  13.330  16.354  0.00  0.00    +0.000 HD
ENDBRANCH  32  34
ENDBRANCH  28  32
ENDBRANCH  23  28
ENDBRANCH  20  23
ENDBRANCH   1  20
TORSDOF 11
ENDMDL
MODEL 8
REMARK VINA RESULT:      -8.2      2.455      8.907
REMARK  Name = 
REMARK  14 active torsions:
REMARK  status: ('A' for Active; 'I' for Inactive)
REMARK    1  A    between atoms: C_1  and  C_2
REMARK    2  A    between atoms: C_2  and  C_3
REMARK    3  A    between atoms: C_3  and  C_4
REMARK    4  A    between atoms: C_4  and  C_5
REMARK    5  A    between atoms: N_7  and  C_8
REMARK    6  A    between atoms: N_7  and  C_27
REMARK    7  A    between atoms: C_8  and  C_9
REMARK    8  A    between atoms: C_12  and  C_13
REMARK    9  A    between atoms: C_18  and  C_19
REMARK   10  A    between atoms: C_27  and  C_28
REMARK   11  A    between atoms: C_27  and  C_31
REMARK   12  A    between atoms: C_28  and  O_30
REMARK   13  A    between atoms: C_31  and  C_32
REMARK   14  A    between atoms: C_31  and  C_33
REMARK                            x       y       z     vdW  Elec       q    Type
REMARK                         _______ _______ _______ _____ _____    ______ ____
ROOT
ATOM      1  C   UNL     1       1.227   9.064  19.576  0.00  0.00    +0.000 A 
ATOM      2  C   UNL     1       1.694   9.168  18.265  0.00  0.00    +0.000 A 
ATOM      3  C   UNL     1       2.509   8.161  17.709  0.00  0.00    +0.000 A 
ATOM      4  C   UNL     1       2.808   6.969  18.393  0.00  0.00    +0.000 A 
ATOM      5  C   UNL     1       2.358   6.916  19.727  0.00  0.00    +0.000 A 
ATOM      6  C   UNL     1       1.668   7.974  20.331  0.00  0.00    +0.000 A 
ENDROOT
BRANCH   4   7
ATOM      7  C   UNL     1       3.629   5.855  17.807  0.00  0.00    +0.000 A 
ATOM      8  C   UNL     1       4.652   6.199  16.880  0.00  0.00    +0.000 A 
ATOM      9  C   UNL     1       5.407   5.253  16.180  0.00  0.00    +0.000 A 
ATOM     10  C   UNL     1       5.151   3.907  16.352  0.00  0.00    +0.000 A 
ATOM     11  C   UNL     1       4.186   3.515  17.274  0.00  0.00    +0.000 A 
ATOM     12  C   UNL     1       3.453   4.464  18.026  0.00  0.00    +0.000 A 
BRANCH  12  13
ATOM     13  C   UNL     1       2.577   3.856  19.063  0.00  0.00    +0.000 A 
ATOM     14  N   UNL     1       2.990   3.485  20.240  0.00  0.00    +0.000 NA
ATOM     15  C   UNL     1       1.871   3.017  20.893  0.00  0.00    +0.000 A 
ATOM     16  O   UNL     1       1.816   2.601  22.039  0.00  0.00    +0.000 OA
ATOM     17  O   UNL     1       0.771   3.138  20.063  0.00  0.00    +0.000 OA
ATOM     18  N   UNL     1       1.250   3.592  18.828  0.00  0.00    +0.000 N 
ATOM     19  H   UNL     1       0.698   4.338  18.414  0.00  0.00    +0.000 HD
ENDBRANCH  12  13
ENDBRANCH   4   7
BRANCH   1  20
ATOM     20  C   UNL     1       0.215  10.031  20.152  0.00  0.00    +0.000 C 
BRANCH  20  23
ATOM     21  C   UNL     1      -0.921  11.700  18.535  0.00  0.00    +0.000 C 
ATOM     22  O   UNL     1      -1.133  12.871  18.243  0.00  0.00    +0.000 OA
ATOM     23  N   UNL     1       0.069  11.351  19.465  0.00  0.00    +0.000 N 
BRANCH  21  24
ATOM     24  C   UNL     1      -1.671  10.586  17.838  0.00  0.00    +0.000 C 
BRANCH  24  25
ATOM     25  C   UNL     1      -2.606  10.990  16.709  0.00  0.00    +0.000 C 
BRANCH  25  27
ATOM     26  C   UNL     1      -3.061  10.162  14.384  0.00  0.00    +0.000 C 
ATOM     27  C   UNL     1      -3.018   9.792  15.853  0.00  0.00    +0.000 C 
ENDBRANCH  25  27
ENDBRANCH  24  25
ENDBRANCH  21  24
BRANCH  23  28
ATOM     28  C   UNL     1       0.862  12.488  20.025  0.00  0.00    +0.000 C 
BRANCH  28  29
ATOM     29  C   UNL     1       1.426  13.489  18.979  0.00  0.00    +0.000 C 
ATOM     30  C   UNL     1       2.079  14.703  19.667  0.00  0.00    +0.000 C 
ATOM     31  C   UNL     1       2.498  12.848  18.083  0.00  0.00    +0.000 C 
ENDBRANCH  28  29
BRANCH  28  32
ATOM     32  C   UNL     1      -0.010  13.103  21.137  0.00  0.00    +0.000 C 
ATOM     33  O   UNL     1      -0.035  12.735  22.299  0.00  0.00    +0.000 OA
BRANCH  32  34
ATOM     34  O   UNL     1      -0.818  14.089  20.681  0.00  0.00    +0.000 OA
ATOM     35  H   UNL     1      -1.106  14.682  21.407  0.00  0.00    +0.000 HD
ENDBRANCH  32  34
ENDBRANCH  28  32
ENDBRANCH  23  28
ENDBRANCH  20  23
ENDBRANCH   1  20
TORSDOF 11
ENDMDL
MODEL 9
REMARK VINA RESULT:      -8.2      2.373      4.257
REMARK  Name = 
REMARK  14 active torsions:
REMARK  status: ('A' for Active; 'I' for Inactive)
REMARK    1  A    between atoms: C_1  and  C_2
REMARK    2  A    between atoms: C_2  and  C_3
REMARK    3  A    between atoms: C_3  and  C_4
REMARK    4  A    between atoms: C_4  and  C_5
REMARK    5  A    between atoms: N_7  and  C_8
REMARK    6  A    between atoms: N_7  and  C_27
REMARK    7  A    between atoms: C_8  and  C_9
REMARK    8  A    between atoms: C_12  and  C_13
REMARK    9  A    between atoms: C_18  and  C_19
REMARK   10  A    between atoms: C_27  and  C_28
REMARK   11  A    between atoms: C_27  and  C_31
REMARK   12  A    between atoms: C_28  and  O_30
REMARK   13  A    between atoms: C_31  and  C_32
REMARK   14  A    between atoms: C_31  and  C_33
REMARK                            x       y       z     vdW  Elec       q    Type
REMARK                         _______ _______ _______ _____ _____    ______ ____
ROOT
ATOM      1  C   UNL     1       2.665   6.989  18.242  0.00  0.00    +0.000 A 
ATOM      2  C   UNL     1       2.575   6.652  19.593  0.00  0.00    +0.000 A 
ATOM      3  C   UNL     1       1.962   7.525  20.514  0.00  0.00    +0.000 A 
ATOM      4  C   UNL     1       1.329   8.717  20.118  0.00  0.00    +0.000 A 
ATOM      5  C   UNL     1       1.476   9.048  18.757  0.00  0.00    +0.000 A 
ATOM      6  C   UNL     1       2.205   8.253  17.863  0.00  0.00    +0.000 A 
ENDROOT
BRANCH   4   7
ATOM      7  C   UNL     1       0.622   9.641  21.069  0.00  0.00    +0.000 A 
ATOM      8  C   UNL     1       0.066   9.080  22.252  0.00  0.00    +0.000 A 
ATOM      9  C   UNL     1      -0.713   9.807  23.157  0.00  0.00    +0.000 A 
ATOM     10  C   UNL     1      -0.999  11.134  22.904  0.00  0.00    +0.000 A 
ATOM     11  C   UNL     1      -0.450  11.742  21.780  0.00  0.00    +0.000 A 
ATOM     12  C   UNL     1       0.382  11.027  20.885  0.00  0.00    +0.000 A 
BRANCH  12  13
ATOM     13  C   UNL     1       0.993  11.879  19.830  0.00  0.00    +0.000 A 
ATOM     14  N   UNL     1       2.129  12.501  19.962  0.00  0.00    +0.000 NA
ATOM     15  C   UNL     1       2.345  13.133  18.757  0.00  0.00    +0.000 A 
ATOM     16  O   UNL     1       3.318  13.804  18.450  0.00  0.00    +0.000 OA
ATOM     17  O   UNL     1       1.301  12.850  17.896  0.00  0.00    +0.000 OA
ATOM     18  N   UNL     1       0.365  12.112  18.631  0.00  0.00    +0.000 N 
ATOM     19  H   UNL     1      -0.009  11.304  18.142  0.00  0.00    +0.000 HD
ENDBRANCH  12  13
ENDBRANCH   4   7
BRANCH   1  20
ATOM     20  C   UNL     1       3.157   6.013  17.195  0.00  0.00    +0.000 C 
BRANCH  20  23
ATOM     21  C   UNL     1       2.689   3.569  17.901  0.00  0.00    +0.000 C 
ATOM     22  O   UNL     1       3.118   2.427  18.012  0.00  0.00    +0.000 OA
ATOM     23  N   UNL     1       3.551   4.650  17.670  0.00  0.00    +0.000 N 
BRANCH  21  24
ATOM     24  C   UNL     1       1.216   3.858  18.093  0.00  0.00    +0.000 C 
BRANCH  24  25
ATOM     25  C   UNL     1       0.607   3.463  19.430  0.00  0.00    +0.000 C 
BRANCH  25  27
ATOM     26  C   UNL     1       1.468   2.557  21.607  0.00  0.00    +0.000 C 
ATOM     27  C   UNL     1       1.586   3.671  20.586  0.00  0.00    +0.000 C 
ENDBRANCH  25  27
ENDBRANCH  24  25
ENDBRANCH  21  24
BRANCH  23  28
ATOM     28  C   UNL     1       5.007   4.318  17.617  0.00  0.00    +0.000 C 
BRANCH  28  29
ATOM     29  C   UNL     1       5.844   5.139  16.596  0.00  0.00    +0.000 C 
ATOM     30  C   UNL     1       7.354   4.967  16.848  0.00  0.00    +0.000 C 
ATOM     31  C   UNL     1       5.576   4.704  15.147  0.00  0.00    +0.000 C 
ENDBRANCH  28  29
BRANCH  28  32
ATOM     32  C   UNL     1       5.503   4.362  19.076  0.00  0.00    +0.000 C 
ATOM     33  O   UNL     1       5.977   5.338  19.631  0.00  0.00    +0.000 OA
BRANCH  32  34
ATOM     34  O   UNL     1       5.415   3.160  19.693  0.00  0.00    +0.000 OA
ATOM     35  H   UNL     1       6.281   2.700  19.710  0.00  0.00    +0.000 HD
ENDBRANCH  32  34
ENDBRANCH  28  32
ENDBRANCH  23  28
ENDBRANCH  20  23
ENDBRANCH   1  20
TORSDOF 11
ENDMDL
