MODEL 1
REMARK VINA RESULT:      -7.3      0.000      0.000
REMARK  Name = 
REMARK  4 active torsions:
REMARK  status: ('A' for Active; 'I' for Inactive)
REMARK    1  A    between atoms: C_1  and  N_2
REMARK    2  A    between atoms: C_11  and  O_12
REMARK    3  A    between atoms: O_12  and  C_13
REMARK    4  A    between atoms: C_18  and  C_19
REMARK                            x       y       z     vdW  Elec       q    Type
REMARK                         _______ _______ _______ _____ _____    ______ ____
ROOT
ATOM      1  C   UNL     1       8.877   5.803  12.749  0.00  0.00    +0.000 C 
ATOM      2  N   UNL     1       7.682   5.108  13.182  0.00  0.00    +0.000 N 
ATOM      3  C   UNL     1       7.013   4.237  12.354  0.00  0.00    +0.000 A 
ATOM      4  C   UNL     1       5.943   3.556  12.784  0.00  0.00    +0.000 A 
ATOM      5 CL   UNL     1       5.107   2.512  11.686  0.00  0.00    +0.000 Cl
ATOM      6  N   UNL     1       5.418   3.633  14.045  0.00  0.00    +0.000 NA
ATOM      7  C   UNL     1       5.970   4.474  14.878  0.00  0.00    +0.000 A 
ATOM      8  N   UNL     1       5.474   4.660  16.160  0.00  0.00    +0.000 N 
ATOM      9  C   UNL     1       4.985   5.980  16.535  0.00  0.00    +0.000 C 
ATOM     10  C   UNL     1       5.388   6.241  17.973  0.00  0.00    +0.000 C 
ATOM     11  C   UNL     1       4.815   5.163  18.908  0.00  0.00    +0.000 C 
ATOM     12  C   UNL     1       5.227   3.768  18.400  0.00  0.00    +0.000 C 
ATOM     13  C   UNL     1       4.875   3.569  16.920  0.00  0.00    +0.000 C 
ATOM     14  C   UNL     1       7.237   5.312  14.481  0.00  0.00    +0.000 A 
ATOM     15  O   UNL     1       7.771   6.058  15.293  0.00  0.00    +0.000 OA
ENDROOT
BRANCH  11  16
ATOM     16  O   UNL     1       3.379   5.191  18.947  0.00  0.00    +0.000 OA
BRANCH  16  17
ATOM     17  C   UNL     1       2.720   4.356  19.806  0.00  0.00    +0.000 A 
ATOM     18  C   UNL     1       3.053   4.220  21.159  0.00  0.00    +0.000 A 
ATOM     19  C   UNL     1       2.292   3.427  22.017  0.00  0.00    +0.000 A 
ATOM     20  C   UNL     1       1.194   2.734  21.529  0.00  0.00    +0.000 A 
ATOM     21  C   UNL     1       0.864   2.840  20.179  0.00  0.00    +0.000 A 
ATOM     22  C   UNL     1       1.615   3.652  19.301  0.00  0.00    +0.000 A 
BRANCH  22  23
ATOM     23  C   UNL     1       1.191   3.679  17.851  0.00  0.00    +0.000 C 
ATOM     24  F   UNL     1       1.067   4.907  17.278  0.00  0.00    +0.000 F 
ATOM     25  F   UNL     1       2.072   2.998  17.058  0.00  0.00    +0.000 F 
ATOM     26  F   UNL     1      -0.010   3.061  17.659  0.00  0.00    +0.000 F 
ENDBRANCH  22  23
ENDBRANCH  16  17
ENDBRANCH  11  16
TORSDOF 3
ENDMDL
MODEL 2
REMARK VINA RESULT:      -7.2      6.200      8.158
REMARK  Name = 
REMARK  4 active torsions:
REMARK  status: ('A' for Active; 'I' for Inactive)
REMARK    1  A    between atoms: C_1  and  N_2
REMARK    2  A    between atoms: C_11  and  O_12
REMARK    3  A    between atoms: O_12  and  C_13
REMARK    4  A    between atoms: C_18  and  C_19
REMARK                            x       y       z     vdW  Elec       q    Type
REMARK                         _______ _______ _______ _____ _____    ______ ____
ROOT
ATOM      1  C   UNL     1      -0.252  13.420  21.866  0.00  0.00    +0.000 C 
ATOM      2  N   UNL     1      -0.533  12.452  20.826  0.00  0.00    +0.000 N 
ATOM      3  C   UNL     1      -1.571  12.624  19.940  0.00  0.00    +0.000 A 
ATOM      4  C   UNL     1      -1.785  11.751  18.947  0.00  0.00    +0.000 A 
ATOM      5 CL   UNL     1      -3.136  11.987  17.891  0.00  0.00    +0.000 Cl
ATOM      6  N   UNL     1      -1.026  10.641  18.699  0.00  0.00    +0.000 NA
ATOM      7  C   UNL     1      -0.048  10.382  19.525  0.00  0.00    +0.000 A 
ATOM      8  N   UNL     1       0.742   9.250  19.386  0.00  0.00    +0.000 N 
ATOM      9  C   UNL     1       0.752   8.268  20.463  0.00  0.00    +0.000 C 
ATOM     10  C   UNL     1       2.167   7.743  20.609  0.00  0.00    +0.000 C 
ATOM     11  C   UNL     1       2.657   7.114  19.294  0.00  0.00    +0.000 C 
ATOM     12  C   UNL     1       2.496   8.128  18.146  0.00  0.00    +0.000 C 
ATOM     13  C   UNL     1       1.073   8.697  18.078  0.00  0.00    +0.000 C 
ATOM     14  C   UNL     1       0.300  11.346  20.716  0.00  0.00    +0.000 A 
ATOM     15  O   UNL     1       1.252  11.113  21.449  0.00  0.00    +0.000 OA
ENDROOT
BRANCH  11  16
ATOM     16  O   UNL     1       1.896   5.948  18.938  0.00  0.00    +0.000 OA
BRANCH  16  17
ATOM     17  C   UNL     1       2.557   4.800  18.596  0.00  0.00    +0.000 A 
ATOM     18  C   UNL     1       3.295   4.658  17.415  0.00  0.00    +0.000 A 
ATOM     19  C   UNL     1       4.030   3.501  17.155  0.00  0.00    +0.000 A 
ATOM     20  C   UNL     1       4.019   2.454  18.064  0.00  0.00    +0.000 A 
ATOM     21  C   UNL     1       3.268   2.571  19.232  0.00  0.00    +0.000 A 
ATOM     22  C   UNL     1       2.533   3.742  19.519  0.00  0.00    +0.000 A 
BRANCH  22  23
ATOM     23  C   UNL     1       1.732   3.761  20.799  0.00  0.00    +0.000 C 
ATOM     24  F   UNL     1       1.584   2.570  21.440  0.00  0.00    +0.000 F 
ATOM     25  F   UNL     1       2.284   4.602  21.724  0.00  0.00    +0.000 F 
ATOM     26  F   UNL     1       0.466   4.232  20.603  0.00  0.00    +0.000 F 
ENDBRANCH  22  23
ENDBRANCH  16  17
ENDBRANCH  11  16
TORSDOF 3
ENDMDL
MODEL 3
REMARK VINA RESULT:      -7.1      6.322      8.414
REMARK  Name = 
REMARK  4 active torsions:
REMARK  status: ('A' for Active; 'I' for Inactive)
REMARK    1  A    between atoms: C_1  and  N_2
REMARK    2  A    between atoms: C_11  and  O_12
REMARK    3  A    between atoms: O_12  and  C_13
REMARK    4  A    between atoms: C_18  and  C_19
REMARK                            x       y       z     vdW  Elec       q    Type
REMARK                         _______ _______ _______ _____ _____    ______ ____
ROOT
ATOM      1  C   UNL     1      -0.822  13.204  22.443  0.00  0.00    +0.000 C 
ATOM      2  N   UNL     1      -1.026  12.326  21.309  0.00  0.00    +0.000 N 
ATOM      3  C   UNL     1      -2.058  12.521  20.422  0.00  0.00    +0.000 A 
ATOM      4  C   UNL     1      -2.202  11.737  19.345  0.00  0.00    +0.000 A 
ATOM      5 CL   UNL     1      -3.548  11.993  18.287  0.00  0.00    +0.000 Cl
ATOM      6  N   UNL     1      -1.371  10.705  19.008  0.00  0.00    +0.000 NA
ATOM      7  C   UNL     1      -0.392  10.426  19.826  0.00  0.00    +0.000 A 
ATOM      8  N   UNL     1       0.469   9.363  19.597  0.00  0.00    +0.000 N 
ATOM      9  C   UNL     1       0.523   8.283  20.574  0.00  0.00    +0.000 C 
ATOM     10  C   UNL     1       1.964   7.833  20.699  0.00  0.00    +0.000 C 
ATOM     11  C   UNL     1       2.514   7.365  19.341  0.00  0.00    +0.000 C 
ATOM     12  C   UNL     1       2.308   8.475  18.292  0.00  0.00    +0.000 C 
ATOM     13  C   UNL     1       0.853   8.961  18.249  0.00  0.00    +0.000 C 
ATOM     14  C   UNL     1      -0.124  11.289  21.111  0.00  0.00    +0.000 A 
ATOM     15  O   UNL     1       0.829  11.043  21.839  0.00  0.00    +0.000 OA
ENDROOT
BRANCH  11  16
ATOM     16  O   UNL     1       1.832   6.195  18.858  0.00  0.00    +0.000 OA
BRANCH  16  17
ATOM     17  C   UNL     1       2.568   5.114  18.459  0.00  0.00    +0.000 A 
ATOM     18  C   UNL     1       3.563   5.177  17.477  0.00  0.00    +0.000 A 
ATOM     19  C   UNL     1       4.352   4.067  17.171  0.00  0.00    +0.000 A 
ATOM     20  C   UNL     1       4.140   2.865  17.829  0.00  0.00    +0.000 A 
ATOM     21  C   UNL     1       3.136   2.780  18.791  0.00  0.00    +0.000 A 
ATOM     22  C   UNL     1       2.341   3.898  19.124  0.00  0.00    +0.000 A 
BRANCH  22  23
ATOM     23  C   UNL     1       1.263   3.696  20.162  0.00  0.00    +0.000 C 
ATOM     24  F   UNL     1       0.736   4.822  20.718  0.00  0.00    +0.000 F 
ATOM     25  F   UNL     1       0.195   3.013  19.651  0.00  0.00    +0.000 F 
ATOM     26  F   UNL     1       1.699   2.939  21.211  0.00  0.00    +0.000 F 
ENDBRANCH  22  23
ENDBRANCH  16  17
ENDBRANCH  11  16
TORSDOF 3
ENDMDL
MODEL 4
REMARK VINA RESULT:      -7.1      5.745      6.775
REMARK  Name = 
REMARK  4 active torsions:
REMARK  status: ('A' for Active; 'I' for Inactive)
REMARK    1  A    between atoms: C_1  and  N_2
REMARK    2  A    between atoms: C_11  and  O_12
REMARK    3  A    between atoms: O_12  and  C_13
REMARK    4  A    between atoms: C_18  and  C_19
REMARK                            x       y       z     vdW  Elec       q    Type
REMARK                         _______ _______ _______ _____ _____    ______ ____
ROOT
ATOM      1  C   UNL     1       5.973   4.508  16.650  0.00  0.00    +0.000 C 
ATOM      2  N   UNL     1       4.733   4.524  17.398  0.00  0.00    +0.000 N 
ATOM      3  C   UNL     1       4.123   3.362  17.810  0.00  0.00    +0.000 A 
ATOM      4  C   UNL     1       3.007   3.390  18.550  0.00  0.00    +0.000 A 
ATOM      5 CL   UNL     1       2.252   1.899  18.999  0.00  0.00    +0.000 Cl
ATOM      6  N   UNL     1       2.376   4.526  18.976  0.00  0.00    +0.000 NA
ATOM      7  C   UNL     1       2.868   5.672  18.587  0.00  0.00    +0.000 A 
ATOM      8  N   UNL     1       2.264   6.875  18.923  0.00  0.00    +0.000 N 
ATOM      9  C   UNL     1       1.768   7.731  17.854  0.00  0.00    +0.000 C 
ATOM     10  C   UNL     1       2.048   9.172  18.235  0.00  0.00    +0.000 C 
ATOM     11  C   UNL     1       1.377   9.527  19.571  0.00  0.00    +0.000 C 
ATOM     12  C   UNL     1       1.806   8.513  20.650  0.00  0.00    +0.000 C 
ATOM     13  C   UNL     1       1.581   7.065  20.198  0.00  0.00    +0.000 C 
ATOM     14  C   UNL     1       4.180   5.754  17.728  0.00  0.00    +0.000 A 
ATOM     15  O   UNL     1       4.653   6.840  17.416  0.00  0.00    +0.000 OA
ENDROOT
BRANCH  11  16
ATOM     16  O   UNL     1      -0.057   9.470  19.486  0.00  0.00    +0.000 OA
BRANCH  16  17
ATOM     17  C   UNL     1      -0.787  10.586  19.792  0.00  0.00    +0.000 A 
ATOM     18  C   UNL     1      -0.560  11.368  20.930  0.00  0.00    +0.000 A 
ATOM     19  C   UNL     1      -1.267  12.550  21.150  0.00  0.00    +0.000 A 
ATOM     20  C   UNL     1      -2.235  12.957  20.244  0.00  0.00    +0.000 A 
ATOM     21  C   UNL     1      -2.489  12.176  19.119  0.00  0.00    +0.000 A 
ATOM     22  C   UNL     1      -1.770  10.985  18.873  0.00  0.00    +0.000 A 
BRANCH  22  23
ATOM     23  C   UNL     1      -2.138  10.197  17.639  0.00  0.00    +0.000 C 
ATOM     24  F   UNL     1      -1.118   9.566  16.994  0.00  0.00    +0.000 F 
ATOM     25  F   UNL     1      -3.046   9.215  17.922  0.00  0.00    +0.000 F 
ATOM     26  F   UNL     1      -2.742  10.977  16.695  0.00  0.00    +0.000 F 
ENDBRANCH  22  23
ENDBRANCH  16  17
ENDBRANCH  11  16
TORSDOF 3
ENDMDL
MODEL 5
REMARK VINA RESULT:      -7.1      2.078      2.488
REMARK  Name = 
REMARK  4 active torsions:
REMARK  status: ('A' for Active; 'I' for Inactive)
REMARK    1  A    between atoms: C_1  and  N_2
REMARK    2  A    between atoms: C_11  and  O_12
REMARK    3  A    between atoms: O_12  and  C_13
REMARK    4  A    between atoms: C_18  and  C_19
REMARK                            x       y       z     vdW  Elec       q    Type
REMARK                         _______ _______ _______ _____ _____    ______ ____
ROOT
ATOM      1  C   UNL     1       8.993   5.752  12.657  0.00  0.00    +0.000 C 
ATOM      2  N   UNL     1       7.766   5.080  13.033  0.00  0.00    +0.000 N 
ATOM      3  C   UNL     1       7.126   4.213  12.179  0.00  0.00    +0.000 A 
ATOM      4  C   UNL     1       6.024   3.554  12.559  0.00  0.00    +0.000 A 
ATOM      5 CL   UNL     1       5.229   2.513  11.427  0.00  0.00    +0.000 Cl
ATOM      6  N   UNL     1       5.437   3.649  13.790  0.00  0.00    +0.000 NA
ATOM      7  C   UNL     1       5.959   4.489  14.644  0.00  0.00    +0.000 A 
ATOM      8  N   UNL     1       5.400   4.694  15.897  0.00  0.00    +0.000 N 
ATOM      9  C   UNL     1       4.914   6.025  16.236  0.00  0.00    +0.000 C 
ATOM     10  C   UNL     1       5.247   6.292  17.691  0.00  0.00    +0.000 C 
ATOM     11  C   UNL     1       4.609   5.232  18.604  0.00  0.00    +0.000 C 
ATOM     12  C   UNL     1       5.024   3.826  18.128  0.00  0.00    +0.000 C 
ATOM     13  C   UNL     1       4.745   3.620  16.634  0.00  0.00    +0.000 C 
ATOM     14  C   UNL     1       7.258   5.303  14.307  0.00  0.00    +0.000 A 
ATOM     15  O   UNL     1       7.762   6.047  15.139  0.00  0.00    +0.000 OA
ENDROOT
BRANCH  11  16
ATOM     16  O   UNL     1       3.173   5.284  18.568  0.00  0.00    +0.000 OA
BRANCH  16  17
ATOM     17  C   UNL     1       2.520   6.190  19.356  0.00  0.00    +0.000 A 
ATOM     18  C   UNL     1       2.466   7.561  19.074  0.00  0.00    +0.000 A 
ATOM     19  C   UNL     1       1.707   8.432  19.856  0.00  0.00    +0.000 A 
ATOM     20  C   UNL     1       1.007   7.949  20.951  0.00  0.00    +0.000 A 
ATOM     21  C   UNL     1       1.071   6.592  21.259  0.00  0.00    +0.000 A 
ATOM     22  C   UNL     1       1.821   5.694  20.468  0.00  0.00    +0.000 A 
BRANCH  22  23
ATOM     23  C   UNL     1       1.847   4.247  20.899  0.00  0.00    +0.000 C 
ATOM     24  F   UNL     1       2.553   3.391  20.112  0.00  0.00    +0.000 F 
ATOM     25  F   UNL     1       2.377   4.106  22.152  0.00  0.00    +0.000 F 
ATOM     26  F   UNL     1       0.591   3.716  20.984  0.00  0.00    +0.000 F 
ENDBRANCH  22  23
ENDBRANCH  16  17
ENDBRANCH  11  16
TORSDOF 3
ENDMDL
MODEL 6
REMARK VINA RESULT:      -6.9      6.051      7.231
REMARK  Name = 
REMARK  4 active torsions:
REMARK  status: ('A' for Active; 'I' for Inactive)
REMARK    1  A    between atoms: C_1  and  N_2
REMARK    2  A    between atoms: C_11  and  O_12
REMARK    3  A    between atoms: O_12  and  C_13
REMARK    4  A    between atoms: C_18  and  C_19
REMARK                            x       y       z     vdW  Elec       q    Type
REMARK                         _______ _______ _______ _____ _____    ______ ____
ROOT
ATOM      1  C   UNL     1       6.156   4.519  17.925  0.00  0.00    +0.000 C 
ATOM      2  N   UNL     1       4.894   4.696  18.612  0.00  0.00    +0.000 N 
ATOM      3  C   UNL     1       4.332   3.689  19.362  0.00  0.00    +0.000 A 
ATOM      4  C   UNL     1       3.193   3.882  20.040  0.00  0.00    +0.000 A 
ATOM      5 CL   UNL     1       2.503   2.566  20.927  0.00  0.00    +0.000 Cl
ATOM      6  N   UNL     1       2.490   5.055  20.075  0.00  0.00    +0.000 NA
ATOM      7  C   UNL     1       2.934   6.046  19.350  0.00  0.00    +0.000 A 
ATOM      8  N   UNL     1       2.258   7.256  19.279  0.00  0.00    +0.000 N 
ATOM      9  C   UNL     1       1.752   7.700  17.987  0.00  0.00    +0.000 C 
ATOM     10  C   UNL     1       1.944   9.200  17.895  0.00  0.00    +0.000 C 
ATOM     11  C   UNL     1       1.212   9.919  19.041  0.00  0.00    +0.000 C 
ATOM     12  C   UNL     1       1.659   9.324  20.391  0.00  0.00    +0.000 C 
ATOM     13  C   UNL     1       1.525   7.796  20.418  0.00  0.00    +0.000 C 
ATOM     14  C   UNL     1       4.267   5.932  18.527  0.00  0.00    +0.000 A 
ATOM     15  O   UNL     1       4.693   6.889  17.894  0.00  0.00    +0.000 OA
ENDROOT
BRANCH  11  16
ATOM     16  O   UNL     1      -0.213   9.752  18.958  0.00  0.00    +0.000 OA
BRANCH  16  17
ATOM     17  C   UNL     1      -1.028  10.746  19.426  0.00  0.00    +0.000 A 
ATOM     18  C   UNL     1      -0.731  11.520  20.554  0.00  0.00    +0.000 A 
ATOM     19  C   UNL     1      -1.546  12.585  20.937  0.00  0.00    +0.000 A 
ATOM     20  C   UNL     1      -2.690  12.879  20.209  0.00  0.00    +0.000 A 
ATOM     21  C   UNL     1      -3.012  12.101  19.098  0.00  0.00    +0.000 A 
ATOM     22  C   UNL     1      -2.188  11.030  18.687  0.00  0.00    +0.000 A 
BRANCH  22  23
ATOM     23  C   UNL     1      -2.637  10.233  17.486  0.00  0.00    +0.000 C 
ATOM     24  F   UNL     1      -3.430  10.880  16.589  0.00  0.00    +0.000 F 
ATOM     25  F   UNL     1      -1.572   9.775  16.761  0.00  0.00    +0.000 F 
ATOM     26  F   UNL     1      -3.329   9.112  17.846  0.00  0.00    +0.000 F 
ENDBRANCH  22  23
ENDBRANCH  16  17
ENDBRANCH  11  16
TORSDOF 3
ENDMDL
MODEL 7
REMARK VINA RESULT:      -6.9      6.269      8.182
REMARK  Name = 
REMARK  4 active torsions:
REMARK  status: ('A' for Active; 'I' for Inactive)
REMARK    1  A    between atoms: C_1  and  N_2
REMARK    2  A    between atoms: C_11  and  O_12
REMARK    3  A    between atoms: O_12  and  C_13
REMARK    4  A    between atoms: C_18  and  C_19
REMARK                            x       y       z     vdW  Elec       q    Type
REMARK                         _______ _______ _______ _____ _____    ______ ____
ROOT
ATOM      1  C   UNL     1      -0.604  13.359  22.093  0.00  0.00    +0.000 C 
ATOM      2  N   UNL     1      -0.849  12.421  21.017  0.00  0.00    +0.000 N 
ATOM      3  C   UNL     1      -1.925  12.556  20.172  0.00  0.00    +0.000 A 
ATOM      4  C   UNL     1      -2.109  11.716  19.145  0.00  0.00    +0.000 A 
ATOM      5 CL   UNL     1      -3.507  11.900  18.142  0.00  0.00    +0.000 Cl
ATOM      6  N   UNL     1      -1.281  10.676  18.823  0.00  0.00    +0.000 NA
ATOM      7  C   UNL     1      -0.260  10.453  19.607  0.00  0.00    +0.000 A 
ATOM      8  N   UNL     1       0.604   9.389  19.392  0.00  0.00    +0.000 N 
ATOM      9  C   UNL     1       0.719   8.363  20.420  0.00  0.00    +0.000 C 
ATOM     10  C   UNL     1       2.171   7.936  20.499  0.00  0.00    +0.000 C 
ATOM     11  C   UNL     1       2.662   7.403  19.143  0.00  0.00    +0.000 C 
ATOM     12  C   UNL     1       2.391   8.454  18.048  0.00  0.00    +0.000 C 
ATOM     13  C   UNL     1       0.929   8.920  18.050  0.00  0.00    +0.000 C 
ATOM     14  C   UNL     1       0.057  11.385  20.830  0.00  0.00    +0.000 A 
ATOM     15  O   UNL     1       1.047  11.189  21.524  0.00  0.00    +0.000 OA
ENDROOT
BRANCH  11  16
ATOM     16  O   UNL     1       1.975   6.202  18.754  0.00  0.00    +0.000 OA
BRANCH  16  17
ATOM     17  C   UNL     1       2.153   5.065  19.493  0.00  0.00    +0.000 A 
ATOM     18  C   UNL     1       1.269   4.650  20.496  0.00  0.00    +0.000 A 
ATOM     19  C   UNL     1       1.443   3.433  21.157  0.00  0.00    +0.000 A 
ATOM     20  C   UNL     1       2.521   2.621  20.840  0.00  0.00    +0.000 A 
ATOM     21  C   UNL     1       3.423   3.033  19.861  0.00  0.00    +0.000 A 
ATOM     22  C   UNL     1       3.252   4.253  19.171  0.00  0.00    +0.000 A 
BRANCH  22  23
ATOM     23  C   UNL     1       4.298   4.621  18.146  0.00  0.00    +0.000 C 
ATOM     24  F   UNL     1       5.115   5.663  18.459  0.00  0.00    +0.000 F 
ATOM     25  F   UNL     1       5.136   3.572  17.885  0.00  0.00    +0.000 F 
ATOM     26  F   UNL     1       3.742   4.939  16.940  0.00  0.00    +0.000 F 
ENDBRANCH  22  23
ENDBRANCH  16  17
ENDBRANCH  11  16
TORSDOF 3
ENDMDL
MODEL 8
REMARK VINA RESULT:      -6.7      5.872      8.003
REMARK  Name = 
REMARK  4 active torsions:
REMARK  status: ('A' for Active; 'I' for Inactive)
REMARK    1  A    between atoms: C_1  and  N_2
REMARK    2  A    between atoms: C_11  and  O_12
REMARK    3  A    between atoms: O_12  and  C_13
REMARK    4  A    between atoms: C_18  and  C_19
REMARK                            x       y       z     vdW  Elec       q    Type
REMARK                         _______ _______ _______ _____ _____    ______ ____
ROOT
ATOM      1  C   UNL     1      -0.655  12.043  22.668  0.00  0.00    +0.000 C 
ATOM      2  N   UNL     1      -0.718  11.464  21.343  0.00  0.00    +0.000 N 
ATOM      3  C   UNL     1      -1.630  11.896  20.408  0.00  0.00    +0.000 A 
ATOM      4  C   UNL     1      -1.641  11.392  19.167  0.00  0.00    +0.000 A 
ATOM      5 CL   UNL     1      -2.841  11.935  18.044  0.00  0.00    +0.000 Cl
ATOM      6  N   UNL     1      -0.779  10.439  18.698  0.00  0.00    +0.000 NA
ATOM      7  C   UNL     1       0.088   9.943  19.540  0.00  0.00    +0.000 A 
ATOM      8  N   UNL     1       0.966   8.935  19.171  0.00  0.00    +0.000 N 
ATOM      9  C   UNL     1       0.892   7.655  19.864  0.00  0.00    +0.000 C 
ATOM     10  C   UNL     1       2.304   7.138  20.053  0.00  0.00    +0.000 C 
ATOM     11  C   UNL     1       3.018   6.983  18.700  0.00  0.00    +0.000 C 
ATOM     12  C   UNL     1       2.951   8.314  17.926  0.00  0.00    +0.000 C 
ATOM     13  C   UNL     1       1.516   8.846  17.824  0.00  0.00    +0.000 C 
ATOM     14  C   UNL     1       0.196  10.471  21.015  0.00  0.00    +0.000 A 
ATOM     15  O   UNL     1       1.049  10.029  21.775  0.00  0.00    +0.000 OA
ENDROOT
BRANCH  11  16
ATOM     16  O   UNL     1       2.397   5.983  17.875  0.00  0.00    +0.000 OA
BRANCH  16  17
ATOM     17  C   UNL     1       2.478   4.670  18.246  0.00  0.00    +0.000 A 
ATOM     18  C   UNL     1       1.468   4.003  18.950  0.00  0.00    +0.000 A 
ATOM     19  C   UNL     1       1.555   2.637  19.223  0.00  0.00    +0.000 A 
ATOM     20  C   UNL     1       2.669   1.919  18.816  0.00  0.00    +0.000 A 
ATOM     21  C   UNL     1       3.694   2.574  18.136  0.00  0.00    +0.000 A 
ATOM     22  C   UNL     1       3.614   3.952  17.837  0.00  0.00    +0.000 A 
BRANCH  22  23
ATOM     23  C   UNL     1       4.787   4.574  17.118  0.00  0.00    +0.000 C 
ATOM     24  F   UNL     1       4.493   5.470  16.137  0.00  0.00    +0.000 F 
ATOM     25  F   UNL     1       5.609   5.242  17.983  0.00  0.00    +0.000 F 
ATOM     26  F   UNL     1       5.583   3.633  16.530  0.00  0.00    +0.000 F 
ENDBRANCH  22  23
ENDBRANCH  16  17
ENDBRANCH  11  16
TORSDOF 3
ENDMDL
MODEL 9
REMARK VINA RESULT:      -6.6      7.324      9.439
REMARK  Name = 
REMARK  4 active torsions:
REMARK  status: ('A' for Active; 'I' for Inactive)
REMARK    1  A    between atoms: C_1  and  N_2
REMARK    2  A    between atoms: C_11  and  O_12
REMARK    3  A    between atoms: O_12  and  C_13
REMARK    4  A    between atoms: C_18  and  C_19
REMARK                            x       y       z     vdW  Elec       q    Type
REMARK                         _______ _______ _______ _____ _____    ______ ____
ROOT
ATOM      1  C   UNL     1      -3.395  14.009  21.376  0.00  0.00    +0.000 C 
ATOM      2  N   UNL     1      -3.258  12.947  20.400  0.00  0.00    +0.000 N 
ATOM      3  C   UNL     1      -4.269  12.640  19.520  0.00  0.00    +0.000 A 
ATOM      4  C   UNL     1      -4.110  11.695  18.584  0.00  0.00    +0.000 A 
ATOM      5 CL   UNL     1      -5.432  11.312  17.535  0.00  0.00    +0.000 Cl
ATOM      6  N   UNL     1      -2.970  10.964  18.393  0.00  0.00    +0.000 NA
ATOM      7  C   UNL     1      -1.978  11.164  19.219  0.00  0.00    +0.000 A 
ATOM      8  N   UNL     1      -0.803  10.432  19.137  0.00  0.00    +0.000 N 
ATOM      9  C   UNL     1      -0.417   9.601  20.270  0.00  0.00    +0.000 C 
ATOM     10  C   UNL     1       1.089   9.689  20.428  0.00  0.00    +0.000 C 
ATOM     11  C   UNL     1       1.803   9.227  19.147  0.00  0.00    +0.000 C 
ATOM     12  C   UNL     1       1.265  10.023  17.942  0.00  0.00    +0.000 C 
ATOM     13  C   UNL     1      -0.266   9.977  17.860  0.00  0.00    +0.000 C 
ATOM     14  C   UNL     1      -2.054  12.257  20.344  0.00  0.00    +0.000 A 
ATOM     15  O   UNL     1      -1.095  12.465  21.077  0.00  0.00    +0.000 OA
ENDROOT
BRANCH  11  16
ATOM     16  O   UNL     1       1.570   7.836  18.872  0.00  0.00    +0.000 OA
BRANCH  16  17
ATOM     17  C   UNL     1       2.629   7.036  18.544  0.00  0.00    +0.000 A 
ATOM     18  C   UNL     1       3.513   7.317  17.496  0.00  0.00    +0.000 A 
ATOM     19  C   UNL     1       4.635   6.522  17.260  0.00  0.00    +0.000 A 
ATOM     20  C   UNL     1       4.877   5.413  18.056  0.00  0.00    +0.000 A 
ATOM     21  C   UNL     1       3.992   5.105  19.088  0.00  0.00    +0.000 A 
ATOM     22  C   UNL     1       2.862   5.910  19.350  0.00  0.00    +0.000 A 
BRANCH  22  23
ATOM     23  C   UNL     1       1.951   5.479  20.474  0.00  0.00    +0.000 C 
ATOM     24  F   UNL     1       0.750   4.948  20.114  0.00  0.00    +0.000 F 
ATOM     25  F   UNL     1       2.541   4.531  21.263  0.00  0.00    +0.000 F 
ATOM     26  F   UNL     1       1.657   6.510  21.319  0.00  0.00    +0.000 F 
ENDBRANCH  22  23
ENDBRANCH  16  17
ENDBRANCH  11  16
TORSDOF 3
ENDMDL
