MODEL 1
REMARK VINA RESULT:      -6.9      0.000      0.000
REMARK  Name = 
REMARK  2 active torsions:
REMARK  status: ('A' for Active; 'I' for Inactive)
REMARK    1  A    between atoms: C_2  and  C_3
REMARK    2  A    between atoms: C_20  and  C_21
REMARK                            x       y       z     vdW  Elec       q    Type
REMARK                         _______ _______ _______ _____ _____    ______ ____
ROOT
ATOM      1  O   UNL     1       1.927  12.198  18.125  0.00  0.00    +0.000 OA
ATOM      2  C   UNL     1       1.937  13.105  18.953  0.00  0.00    +0.000 C 
ATOM      3  N   UNL     1       1.020  13.150  20.001  0.00  0.00    +0.000 N 
ATOM      4  C   UNL     1       0.882  14.307  20.884  0.00  0.00    +0.000 C 
ATOM      5  C   UNL     1      -0.393  14.087  21.657  0.00  0.00    +0.000 C 
ATOM      6  N   UNL     1      -1.073  13.005  20.960  0.00  0.00    +0.000 N 
ATOM      7  C   UNL     1      -1.774  12.196  21.868  0.00  0.00    +0.000 C 
ATOM      8  O   UNL     1      -2.787  12.477  22.481  0.00  0.00    +0.000 OA
ATOM      9  C   UNL     1      -0.896  11.077  22.165  0.00  0.00    +0.000 A 
ATOM     10  C   UNL     1      -0.974  10.224  23.240  0.00  0.00    +0.000 A 
ATOM     11  C   UNL     1       0.138   9.432  23.420  0.00  0.00    +0.000 A 
ATOM     12  N   UNL     1       1.238   9.462  22.612  0.00  0.00    +0.000 NA
ATOM     13  C   UNL     1       1.258  10.320  21.559  0.00  0.00    +0.000 A 
ATOM     14  C   UNL     1       0.206  11.154  21.308  0.00  0.00    +0.000 A 
ATOM     15  C   UNL     1      -0.068  12.184  20.232  0.00  0.00    +0.000 C 
ENDROOT
BRANCH  15  16
ATOM     16  C   UNL     1      -0.754  11.555  18.981  0.00  0.00    +0.000 A 
ATOM     17  C   UNL     1      -0.516  10.211  18.594  0.00  0.00    +0.000 A 
ATOM     18  C   UNL     1      -1.176   9.610  17.519  0.00  0.00    +0.000 A 
ATOM     19  C   UNL     1      -2.087  10.346  16.779  0.00  0.00    +0.000 A 
ATOM     20 CL   UNL     1      -2.909   9.610  15.462  0.00  0.00    +0.000 Cl
ATOM     21  C   UNL     1      -2.339  11.675  17.112  0.00  0.00    +0.000 A 
ATOM     22  C   UNL     1      -1.688  12.271  18.209  0.00  0.00    +0.000 A 
ENDBRANCH  15  16
BRANCH   2  23
ATOM     23  C   UNL     1       2.877  14.213  18.831  0.00  0.00    +0.000 A 
ATOM     24  C   UNL     1       2.953  15.282  17.961  0.00  0.00    +0.000 A 
ATOM     25  C   UNL     1       4.101  15.989  18.370  0.00  0.00    +0.000 A 
ATOM     26  N   UNL     1       4.702  15.403  19.404  0.00  0.00    +0.000 NA
ATOM     27  O   UNL     1       3.952  14.274  19.672  0.00  0.00    +0.000 OA
ENDBRANCH   2  23
TORSDOF 2
ENDMDL
MODEL 2
REMARK VINA RESULT:      -6.5      1.311      1.597
REMARK  Name = 
REMARK  2 active torsions:
REMARK  status: ('A' for Active; 'I' for Inactive)
REMARK    1  A    between atoms: C_2  and  C_3
REMARK    2  A    between atoms: C_20  and  C_21
REMARK                            x       y       z     vdW  Elec       q    Type
REMARK                         _______ _______ _______ _____ _____    ______ ____
ROOT
ATOM      1  O   UNL     1       0.924  12.888  18.134  0.00  0.00    +0.000 OA
ATOM      2  C   UNL     1       0.871  13.713  19.042  0.00  0.00    +0.000 C 
ATOM      3  N   UNL     1       0.116  13.489  20.192  0.00  0.00    +0.000 N 
ATOM      4  C   UNL     1      -0.121  14.522  21.198  0.00  0.00    +0.000 C 
ATOM      5  C   UNL     1      -1.210  13.985  22.092  0.00  0.00    +0.000 C 
ATOM      6  N   UNL     1      -1.756  12.842  21.375  0.00  0.00    +0.000 N 
ATOM      7  C   UNL     1      -2.152  11.840  22.274  0.00  0.00    +0.000 C 
ATOM      8  O   UNL     1      -3.107  11.858  23.029  0.00  0.00    +0.000 OA
ATOM      9  C   UNL     1      -1.042  10.908  22.348  0.00  0.00    +0.000 A 
ATOM     10  C   UNL     1      -0.802   9.978  23.332  0.00  0.00    +0.000 A 
ATOM     11  C   UNL     1       0.457   9.421  23.296  0.00  0.00    +0.000 A 
ATOM     12  N   UNL     1       1.408   9.738  22.369  0.00  0.00    +0.000 NA
ATOM     13  C   UNL     1       1.114  10.659  21.415  0.00  0.00    +0.000 A 
ATOM     14  C   UNL     1      -0.105  11.275  21.378  0.00  0.00    +0.000 A 
ATOM     15  C   UNL     1      -0.720  12.303  20.452  0.00  0.00    +0.000 C 
ENDROOT
BRANCH  15  16
ATOM     16  C   UNL     1      -1.436  11.643  19.235  0.00  0.00    +0.000 A 
ATOM     17  C   UNL     1      -2.627  12.182  18.685  0.00  0.00    +0.000 A 
ATOM     18  C   UNL     1      -3.241  11.644  17.551  0.00  0.00    +0.000 A 
ATOM     19  C   UNL     1      -2.691  10.531  16.939  0.00  0.00    +0.000 A 
ATOM     20 CL   UNL     1      -3.436   9.871  15.538  0.00  0.00    +0.000 Cl
ATOM     21  C   UNL     1      -1.531   9.957  17.455  0.00  0.00    +0.000 A 
ATOM     22  C   UNL     1      -0.902  10.514  18.585  0.00  0.00    +0.000 A 
ENDBRANCH  15  16
BRANCH   2  23
ATOM     23  C   UNL     1       1.551  14.997  18.922  0.00  0.00    +0.000 A 
ATOM     24  C   UNL     1       2.826  15.413  19.246  0.00  0.00    +0.000 A 
ATOM     25  C   UNL     1       2.854  16.776  18.889  0.00  0.00    +0.000 A 
ATOM     26  N   UNL     1       1.686  17.183  18.393  0.00  0.00    +0.000 NA
ATOM     27  O   UNL     1       0.862  16.076  18.444  0.00  0.00    +0.000 OA
ENDBRANCH   2  23
TORSDOF 2
ENDMDL
MODEL 3
REMARK VINA RESULT:      -6.3      2.136      5.423
REMARK  Name = 
REMARK  2 active torsions:
REMARK  status: ('A' for Active; 'I' for Inactive)
REMARK    1  A    between atoms: C_2  and  C_3
REMARK    2  A    between atoms: C_20  and  C_21
REMARK                            x       y       z     vdW  Elec       q    Type
REMARK                         _______ _______ _______ _____ _____    ______ ____
ROOT
ATOM      1  O   UNL     1      -3.402  12.981  19.810  0.00  0.00    +0.000 OA
ATOM      2  C   UNL     1      -2.805  12.616  20.819  0.00  0.00    +0.000 C 
ATOM      3  N   UNL     1      -1.606  11.908  20.747  0.00  0.00    +0.000 N 
ATOM      4  C   UNL     1      -0.975  11.297  21.915  0.00  0.00    +0.000 C 
ATOM      5  C   UNL     1       0.100  10.389  21.375  0.00  0.00    +0.000 C 
ATOM      6  N   UNL     1      -0.182  10.278  19.951  0.00  0.00    +0.000 N 
ATOM      7  C   UNL     1       1.011  10.173  19.219  0.00  0.00    +0.000 C 
ATOM      8  O   UNL     1       1.769   9.222  19.172  0.00  0.00    +0.000 OA
ATOM      9  C   UNL     1       1.323  11.518  18.768  0.00  0.00    +0.000 A 
ATOM     10  C   UNL     1       2.540  11.987  18.332  0.00  0.00    +0.000 A 
ATOM     11  C   UNL     1       2.619  13.357  18.228  0.00  0.00    +0.000 A 
ATOM     12  N   UNL     1       1.591  14.207  18.518  0.00  0.00    +0.000 NA
ATOM     13  C   UNL     1       0.407  13.689  18.938  0.00  0.00    +0.000 A 
ATOM     14  C   UNL     1       0.238  12.341  19.084  0.00  0.00    +0.000 A 
ATOM     15  C   UNL     1      -0.935  11.482  19.506  0.00  0.00    +0.000 C 
ENDROOT
BRANCH  15  16
ATOM     16  C   UNL     1      -1.836  11.085  18.297  0.00  0.00    +0.000 A 
ATOM     17  C   UNL     1      -1.870  11.855  17.106  0.00  0.00    +0.000 A 
ATOM     18  C   UNL     1      -2.616  11.474  15.987  0.00  0.00    +0.000 A 
ATOM     19  C   UNL     1      -3.372  10.315  16.032  0.00  0.00    +0.000 A 
ATOM     20 CL   UNL     1      -4.283   9.837  14.655  0.00  0.00    +0.000 Cl
ATOM     21  C   UNL     1      -3.382   9.537  17.187  0.00  0.00    +0.000 A 
ATOM     22  C   UNL     1      -2.612   9.911  18.305  0.00  0.00    +0.000 A 
ENDBRANCH  15  16
BRANCH   2  23
ATOM     23  C   UNL     1      -3.368  12.854  22.144  0.00  0.00    +0.000 A 
ATOM     24  C   UNL     1      -3.007  13.698  23.174  0.00  0.00    +0.000 A 
ATOM     25  C   UNL     1      -3.953  13.445  24.186  0.00  0.00    +0.000 A 
ATOM     26  N   UNL     1      -4.828  12.507  23.824  0.00  0.00    +0.000 NA
ATOM     27  O   UNL     1      -4.441  12.116  22.557  0.00  0.00    +0.000 OA
ENDBRANCH   2  23
TORSDOF 2
ENDMDL
MODEL 4
REMARK VINA RESULT:      -6.3      2.771      4.549
REMARK  Name = 
REMARK  2 active torsions:
REMARK  status: ('A' for Active; 'I' for Inactive)
REMARK    1  A    between atoms: C_2  and  C_3
REMARK    2  A    between atoms: C_20  and  C_21
REMARK                            x       y       z     vdW  Elec       q    Type
REMARK                         _______ _______ _______ _____ _____    ______ ____
ROOT
ATOM      1  O   UNL     1      -0.965   9.577  19.712  0.00  0.00    +0.000 OA
ATOM      2  C   UNL     1       0.142   9.978  19.364  0.00  0.00    +0.000 C 
ATOM      3  N   UNL     1       0.416  11.336  19.217  0.00  0.00    +0.000 N 
ATOM      4  C   UNL     1       1.655  11.835  18.623  0.00  0.00    +0.000 C 
ATOM      5  C   UNL     1       1.429  13.303  18.368  0.00  0.00    +0.000 C 
ATOM      6  N   UNL     1      -0.006  13.494  18.520  0.00  0.00    +0.000 N 
ATOM      7  C   UNL     1      -0.280  14.756  19.072  0.00  0.00    +0.000 C 
ATOM      8  O   UNL     1      -0.164  15.840  18.532  0.00  0.00    +0.000 OA
ATOM      9  C   UNL     1      -0.440  14.542  20.499  0.00  0.00    +0.000 A 
ATOM     10  C   UNL     1      -0.366  15.487  21.494  0.00  0.00    +0.000 A 
ATOM     11  C   UNL     1      -0.282  14.970  22.767  0.00  0.00    +0.000 A 
ATOM     12  N   UNL     1      -0.278  13.635  23.052  0.00  0.00    +0.000 NA
ATOM     13  C   UNL     1      -0.361  12.744  22.029  0.00  0.00    +0.000 A 
ATOM     14  C   UNL     1      -0.435  13.163  20.731  0.00  0.00    +0.000 A 
ATOM     15  C   UNL     1      -0.550  12.433  19.410  0.00  0.00    +0.000 C 
ENDROOT
BRANCH  15  16
ATOM     16  C   UNL     1      -2.034  12.166  19.015  0.00  0.00    +0.000 A 
ATOM     17  C   UNL     1      -3.105  12.433  19.906  0.00  0.00    +0.000 A 
ATOM     18  C   UNL     1      -4.443  12.268  19.543  0.00  0.00    +0.000 A 
ATOM     19  C   UNL     1      -4.756  11.808  18.275  0.00  0.00    +0.000 A 
ATOM     20 CL   UNL     1      -6.401  11.613  17.819  0.00  0.00    +0.000 Cl
ATOM     21  C   UNL     1      -3.736  11.516  17.372  0.00  0.00    +0.000 A 
ATOM     22  C   UNL     1      -2.388  11.704  17.733  0.00  0.00    +0.000 A 
ENDBRANCH  15  16
BRANCH   2  23
ATOM     23  C   UNL     1       1.202   9.036  19.025  0.00  0.00    +0.000 A 
ATOM     24  C   UNL     1       1.869   8.765  17.847  0.00  0.00    +0.000 A 
ATOM     25  C   UNL     1       2.776   7.740  18.183  0.00  0.00    +0.000 A 
ATOM     26  N   UNL     1       2.675   7.388  19.465  0.00  0.00    +0.000 NA
ATOM     27  O   UNL     1       1.667   8.179  19.982  0.00  0.00    +0.000 OA
ENDBRANCH   2  23
TORSDOF 2
ENDMDL
MODEL 5
REMARK VINA RESULT:      -6.2      3.994      6.764
REMARK  Name = 
REMARK  2 active torsions:
REMARK  status: ('A' for Active; 'I' for Inactive)
REMARK    1  A    between atoms: C_2  and  C_3
REMARK    2  A    between atoms: C_20  and  C_21
REMARK                            x       y       z     vdW  Elec       q    Type
REMARK                         _______ _______ _______ _____ _____    ______ ____
ROOT
ATOM      1  O   UNL     1      -3.298  12.192  20.308  0.00  0.00    +0.000 OA
ATOM      2  C   UNL     1      -4.041  12.859  21.024  0.00  0.00    +0.000 C 
ATOM      3  N   UNL     1      -3.545  13.642  22.065  0.00  0.00    +0.000 N 
ATOM      4  C   UNL     1      -4.410  14.291  23.049  0.00  0.00    +0.000 C 
ATOM      5  C   UNL     1      -3.498  14.764  24.152  0.00  0.00    +0.000 C 
ATOM      6  N   UNL     1      -2.231  14.088  23.908  0.00  0.00    +0.000 N 
ATOM      7  C   UNL     1      -1.155  14.912  24.272  0.00  0.00    +0.000 C 
ATOM      8  O   UNL     1      -0.806  15.220  25.397  0.00  0.00    +0.000 OA
ATOM      9  C   UNL     1      -0.721  15.567  23.051  0.00  0.00    +0.000 A 
ATOM     10  C   UNL     1       0.043  16.704  22.944  0.00  0.00    +0.000 A 
ATOM     11  C   UNL     1       0.074  17.255  21.683  0.00  0.00    +0.000 A 
ATOM     12  N   UNL     1      -0.584  16.735  20.605  0.00  0.00    +0.000 NA
ATOM     13  C   UNL     1      -1.319  15.604  20.766  0.00  0.00    +0.000 A 
ATOM     14  C   UNL     1      -1.419  14.993  21.983  0.00  0.00    +0.000 A 
ATOM     15  C   UNL     1      -2.130  13.746  22.463  0.00  0.00    +0.000 C 
ENDROOT
BRANCH  15  16
ATOM     16  C   UNL     1      -1.243  12.472  22.316  0.00  0.00    +0.000 A 
ATOM     17  C   UNL     1      -1.439  11.327  23.129  0.00  0.00    +0.000 A 
ATOM     18  C   UNL     1      -0.701  10.152  22.962  0.00  0.00    +0.000 A 
ATOM     19  C   UNL     1       0.277  10.093  21.983  0.00  0.00    +0.000 A 
ATOM     20 CL   UNL     1       1.181   8.647  21.766  0.00  0.00    +0.000 Cl
ATOM     21  C   UNL     1       0.516  11.200  21.173  0.00  0.00    +0.000 A 
ATOM     22  C   UNL     1      -0.244  12.375  21.329  0.00  0.00    +0.000 A 
ENDBRANCH  15  16
BRANCH   2  23
ATOM     23  C   UNL     1      -5.488  12.805  20.851  0.00  0.00    +0.000 A 
ATOM     24  C   UNL     1      -6.377  13.605  20.164  0.00  0.00    +0.000 A 
ATOM     25  C   UNL     1      -7.636  13.018  20.399  0.00  0.00    +0.000 A 
ATOM     26  N   UNL     1      -7.543  11.943  21.183  0.00  0.00    +0.000 NA
ATOM     27  O   UNL     1      -6.201  11.830  21.490  0.00  0.00    +0.000 OA
ENDBRANCH   2  23
TORSDOF 2
ENDMDL
MODEL 6
REMARK VINA RESULT:      -6.2      2.174      2.384
REMARK  Name = 
REMARK  2 active torsions:
REMARK  status: ('A' for Active; 'I' for Inactive)
REMARK    1  A    between atoms: C_2  and  C_3
REMARK    2  A    between atoms: C_20  and  C_21
REMARK                            x       y       z     vdW  Elec       q    Type
REMARK                         _______ _______ _______ _____ _____    ______ ____
ROOT
ATOM      1  O   UNL     1      -0.626  13.565  17.767  0.00  0.00    +0.000 OA
ATOM      2  C   UNL     1       0.001  13.988  18.734  0.00  0.00    +0.000 C 
ATOM      3  N   UNL     1      -0.021  13.334  19.965  0.00  0.00    +0.000 N 
ATOM      4  C   UNL     1       0.552  13.911  21.179  0.00  0.00    +0.000 C 
ATOM      5  C   UNL     1       0.056  13.056  22.317  0.00  0.00    +0.000 C 
ATOM      6  N   UNL     1      -1.014  12.252  21.744  0.00  0.00    +0.000 N 
ATOM      7  C   UNL     1      -1.043  10.978  22.332  0.00  0.00    +0.000 C 
ATOM      8  O   UNL     1      -1.395  10.693  23.462  0.00  0.00    +0.000 OA
ATOM      9  C   UNL     1      -0.294  10.110  21.442  0.00  0.00    +0.000 A 
ATOM     10  C   UNL     1       0.253   8.885  21.742  0.00  0.00    +0.000 A 
ATOM     11  C   UNL     1       1.138   8.409  20.801  0.00  0.00    +0.000 A 
ATOM     12  N   UNL     1       1.460   9.071  19.650  0.00  0.00    +0.000 NA
ATOM     13  C   UNL     1       0.884  10.275  19.400  0.00  0.00    +0.000 A 
ATOM     14  C   UNL     1       0.003  10.834  20.283  0.00  0.00    +0.000 A 
ATOM     15  C   UNL     1      -0.796  12.120  20.278  0.00  0.00    +0.000 C 
ENDROOT
BRANCH  15  16
ATOM     16  C   UNL     1      -2.181  11.947  19.583  0.00  0.00    +0.000 A 
ATOM     17  C   UNL     1      -2.371  11.039  18.511  0.00  0.00    +0.000 A 
ATOM     18  C   UNL     1      -3.621  10.819  17.926  0.00  0.00    +0.000 A 
ATOM     19  C   UNL     1      -4.723  11.521  18.384  0.00  0.00    +0.000 A 
ATOM     20 CL   UNL     1      -6.264  11.248  17.674  0.00  0.00    +0.000 Cl
ATOM     21  C   UNL     1      -4.580  12.437  19.424  0.00  0.00    +0.000 A 
ATOM     22  C   UNL     1      -3.323  12.640  20.026  0.00  0.00    +0.000 A 
ENDBRANCH  15  16
BRANCH   2  23
ATOM     23  C   UNL     1       0.746  15.239  18.649  0.00  0.00    +0.000 A 
ATOM     24  C   UNL     1       0.354  16.562  18.661  0.00  0.00    +0.000 A 
ATOM     25  C   UNL     1       1.555  17.288  18.538  0.00  0.00    +0.000 A 
ATOM     26  N   UNL     1       2.613  16.482  18.443  0.00  0.00    +0.000 NA
ATOM     27  O   UNL     1       2.101  15.200  18.481  0.00  0.00    +0.000 OA
ENDBRANCH   2  23
TORSDOF 2
ENDMDL
MODEL 7
REMARK VINA RESULT:      -6.2      2.489      5.762
REMARK  Name = 
REMARK  2 active torsions:
REMARK  status: ('A' for Active; 'I' for Inactive)
REMARK    1  A    between atoms: C_2  and  C_3
REMARK    2  A    between atoms: C_20  and  C_21
REMARK                            x       y       z     vdW  Elec       q    Type
REMARK                         _______ _______ _______ _____ _____    ______ ____
ROOT
ATOM      1  O   UNL     1      -4.233  13.056  19.823  0.00  0.00    +0.000 OA
ATOM      2  C   UNL     1      -4.011  12.853  21.013  0.00  0.00    +0.000 C 
ATOM      3  N   UNL     1      -2.761  12.433  21.465  0.00  0.00    +0.000 N 
ATOM      4  C   UNL     1      -2.520  11.999  22.840  0.00  0.00    +0.000 C 
ATOM      5  C   UNL     1      -1.161  11.348  22.835  0.00  0.00    +0.000 C 
ATOM      6  N   UNL     1      -0.843  11.153  21.428  0.00  0.00    +0.000 N 
ATOM      7  C   UNL     1       0.535  11.307  21.207  0.00  0.00    +0.000 C 
ATOM      8  O   UNL     1       1.427  10.551  21.544  0.00  0.00    +0.000 OA
ATOM      9  C   UNL     1       0.718  12.679  20.770  0.00  0.00    +0.000 A 
ATOM     10  C   UNL     1       1.887  13.403  20.773  0.00  0.00    +0.000 A 
ATOM     11  C   UNL     1       1.722  14.754  20.566  0.00  0.00    +0.000 A 
ATOM     12  N   UNL     1       0.513  15.355  20.363  0.00  0.00    +0.000 NA
ATOM     13  C   UNL     1      -0.610  14.590  20.363  0.00  0.00    +0.000 A 
ATOM     14  C   UNL     1      -0.546  13.242  20.573  0.00  0.00    +0.000 A 
ATOM     15  C   UNL     1      -1.593  12.148  20.614  0.00  0.00    +0.000 C 
ENDROOT
BRANCH  15  16
ATOM     16  C   UNL     1      -1.857  11.537  19.204  0.00  0.00    +0.000 A 
ATOM     17  C   UNL     1      -2.382  10.229  19.042  0.00  0.00    +0.000 A 
ATOM     18  C   UNL     1      -2.692   9.695  17.789  0.00  0.00    +0.000 A 
ATOM     19  C   UNL     1      -2.467  10.448  16.649  0.00  0.00    +0.000 A 
ATOM     20 CL   UNL     1      -2.855   9.799  15.106  0.00  0.00    +0.000 Cl
ATOM     21  C   UNL     1      -1.936  11.732  16.760  0.00  0.00    +0.000 A 
ATOM     22  C   UNL     1      -1.645  12.276  18.025  0.00  0.00    +0.000 A 
ENDBRANCH  15  16
BRANCH   2  23
ATOM     23  C   UNL     1      -5.077  12.981  22.001  0.00  0.00    +0.000 A 
ATOM     24  C   UNL     1      -5.377  13.957  22.929  0.00  0.00    +0.000 A 
ATOM     25  C   UNL     1      -6.530  13.479  23.583  0.00  0.00    +0.000 A 
ATOM     26  N   UNL     1      -6.912  12.292  23.112  0.00  0.00    +0.000 NA
ATOM     27  O   UNL     1      -5.982  11.968  22.143  0.00  0.00    +0.000 OA
ENDBRANCH   2  23
TORSDOF 2
ENDMDL
MODEL 8
REMARK VINA RESULT:      -6.2      2.438      3.089
REMARK  Name = 
REMARK  2 active torsions:
REMARK  status: ('A' for Active; 'I' for Inactive)
REMARK    1  A    between atoms: C_2  and  C_3
REMARK    2  A    between atoms: C_20  and  C_21
REMARK                            x       y       z     vdW  Elec       q    Type
REMARK                         _______ _______ _______ _____ _____    ______ ____
ROOT
ATOM      1  O   UNL     1      -0.356  13.545  17.649  0.00  0.00    +0.000 OA
ATOM      2  C   UNL     1       0.423  13.727  18.581  0.00  0.00    +0.000 C 
ATOM      3  N   UNL     1       0.693  12.729  19.516  0.00  0.00    +0.000 N 
ATOM      4  C   UNL     1       1.458  12.973  20.737  0.00  0.00    +0.000 C 
ATOM      5  C   UNL     1       1.260  11.753  21.600  0.00  0.00    +0.000 C 
ATOM      6  N   UNL     1       0.153  11.034  20.985  0.00  0.00    +0.000 N 
ATOM      7  C   UNL     1       0.329   9.648  21.121  0.00  0.00    +0.000 C 
ATOM      8  O   UNL     1       0.232   8.986  22.138  0.00  0.00    +0.000 OA
ATOM      9  C   UNL     1       0.941   9.200  19.883  0.00  0.00    +0.000 A 
ATOM     10  C   UNL     1       1.619   8.023  19.670  0.00  0.00    +0.000 A 
ATOM     11  C   UNL     1       2.326   7.978  18.490  0.00  0.00    +0.000 A 
ATOM     12  N   UNL     1       2.366   8.997  17.581  0.00  0.00    +0.000 NA
ATOM     13  C   UNL     1       1.670  10.135  17.840  0.00  0.00    +0.000 A 
ATOM     14  C   UNL     1       0.949  10.277  18.991  0.00  0.00    +0.000 A 
ATOM     15  C   UNL     1       0.081  11.388  19.541  0.00  0.00    +0.000 C 
ENDROOT
BRANCH  15  16
ATOM     16  C   UNL     1      -1.400  11.261  19.073  0.00  0.00    +0.000 A 
ATOM     17  C   UNL     1      -2.438  12.035  19.654  0.00  0.00    +0.000 A 
ATOM     18  C   UNL     1      -3.757  11.986  19.197  0.00  0.00    +0.000 A 
ATOM     19  C   UNL     1      -4.087  11.140  18.152  0.00  0.00    +0.000 A 
ATOM     20 CL   UNL     1      -5.707  11.082  17.579  0.00  0.00    +0.000 Cl
ATOM     21  C   UNL     1      -3.105  10.348  17.562  0.00  0.00    +0.000 A 
ATOM     22  C   UNL     1      -1.771  10.416  18.010  0.00  0.00    +0.000 A 
ENDBRANCH  15  16
BRANCH   2  23
ATOM     23  C   UNL     1       1.049  15.028  18.785  0.00  0.00    +0.000 A 
ATOM     24  C   UNL     1       0.598  16.203  19.352  0.00  0.00    +0.000 A 
ATOM     25  C   UNL     1       1.685  17.092  19.234  0.00  0.00    +0.000 A 
ATOM     26  N   UNL     1       2.728  16.522  18.630  0.00  0.00    +0.000 NA
ATOM     27  O   UNL     1       2.316  15.240  18.321  0.00  0.00    +0.000 OA
ENDBRANCH   2  23
TORSDOF 2
ENDMDL
MODEL 9
REMARK VINA RESULT:      -6.2      2.984      5.939
REMARK  Name = 
REMARK  2 active torsions:
REMARK  status: ('A' for Active; 'I' for Inactive)
REMARK    1  A    between atoms: C_2  and  C_3
REMARK    2  A    between atoms: C_20  and  C_21
REMARK                            x       y       z     vdW  Elec       q    Type
REMARK                         _______ _______ _______ _____ _____    ______ ____
ROOT
ATOM      1  O   UNL     1      -2.409  10.975  17.925  0.00  0.00    +0.000 OA
ATOM      2  C   UNL     1      -3.206  11.607  18.613  0.00  0.00    +0.000 C 
ATOM      3  N   UNL     1      -2.798  12.314  19.744  0.00  0.00    +0.000 N 
ATOM      4  C   UNL     1      -3.741  12.913  20.686  0.00  0.00    +0.000 C 
ATOM      5  C   UNL     1      -2.927  13.299  21.895  0.00  0.00    +0.000 C 
ATOM      6  N   UNL     1      -1.651  12.619  21.722  0.00  0.00    +0.000 N 
ATOM      7  C   UNL     1      -0.603  13.398  22.234  0.00  0.00    +0.000 C 
ATOM      8  O   UNL     1      -0.354  13.628  23.403  0.00  0.00    +0.000 OA
ATOM      9  C   UNL     1      -0.053  14.122  21.102  0.00  0.00    +0.000 A 
ATOM     10  C   UNL     1       0.731  15.250  21.139  0.00  0.00    +0.000 A 
ATOM     11  C   UNL     1       0.883  15.880  19.924  0.00  0.00    +0.000 A 
ATOM     12  N   UNL     1       0.320  15.441  18.759  0.00  0.00    +0.000 NA
ATOM     13  C   UNL     1      -0.440  14.315  18.780  0.00  0.00    +0.000 A 
ATOM     14  C   UNL     1      -0.657  13.630  19.941  0.00  0.00    +0.000 A 
ATOM     15  C   UNL     1      -1.424  12.367  20.273  0.00  0.00    +0.000 C 
ENDROOT
BRANCH  15  16
ATOM     16  C   UNL     1      -0.542  11.090  20.123  0.00  0.00    +0.000 A 
ATOM     17  C   UNL     1       0.397  10.949  19.069  0.00  0.00    +0.000 A 
ATOM     18  C   UNL     1       1.245   9.844  18.962  0.00  0.00    +0.000 A 
ATOM     19  C   UNL     1       1.167   8.829  19.901  0.00  0.00    +0.000 A 
ATOM     20 CL   UNL     1       2.215   7.471  19.780  0.00  0.00    +0.000 Cl
ATOM     21  C   UNL     1       0.248   8.917  20.944  0.00  0.00    +0.000 A 
ATOM     22  C   UNL     1      -0.591  10.042  21.062  0.00  0.00    +0.000 A 
ENDBRANCH  15  16
BRANCH   2  23
ATOM     23  C   UNL     1      -4.632  11.589  18.308  0.00  0.00    +0.000 A 
ATOM     24  C   UNL     1      -5.447  12.452  17.605  0.00  0.00    +0.000 A 
ATOM     25  C   UNL     1      -6.728  11.870  17.682  0.00  0.00    +0.000 A 
ATOM     26  N   UNL     1      -6.717  10.740  18.390  0.00  0.00    +0.000 NA
ATOM     27  O   UNL     1      -5.409  10.583  18.807  0.00  0.00    +0.000 OA
ENDBRANCH   2  23
TORSDOF 2
ENDMDL
