MODEL 1
REMARK VINA RESULT:      -7.1      0.000      0.000
REMARK  Name = 
REMARK  7 active torsions:
REMARK  status: ('A' for Active; 'I' for Inactive)
REMARK    1  A    between atoms: C_1  and  C_2
REMARK    2  A    between atoms: C_2  and  O_3
REMARK    3  A    between atoms: O_3  and  C_4
REMARK    4  A    between atoms: C_12  and  C_13
REMARK    5  A    between atoms: N_15  and  C_16
REMARK    6  A    between atoms: N_21  and  C_22
REMARK    7  A    between atoms: C_22  and  C_23
REMARK                            x       y       z     vdW  Elec       q    Type
REMARK                         _______ _______ _______ _____ _____    ______ ____
ROOT
ATOM      1  C   UNL     1       2.136   6.920  19.957  0.00  0.00    +0.000 A 
ATOM      2  C   UNL     1       1.403   7.761  20.813  0.00  0.00    +0.000 A 
ATOM      3  C   UNL     1       0.980   8.979  20.288  0.00  0.00    +0.000 A 
ATOM      4  N   UNL     1       0.172   9.971  20.769  0.00  0.00    +0.000 N 
ATOM      5  N   UNL     1       0.028  10.968  19.883  0.00  0.00    +0.000 NA
ATOM      6  N   UNL     1       0.750  10.657  18.814  0.00  0.00    +0.000 NA
ATOM      7  C   UNL     1       1.332   9.437  19.030  0.00  0.00    +0.000 A 
ATOM      8  C   UNL     1       2.155   8.649  18.218  0.00  0.00    +0.000 A 
ATOM      9  C   UNL     1       2.535   7.368  18.672  0.00  0.00    +0.000 A 
ATOM     10  H   UNL     1      -0.330  10.020  21.648  0.00  0.00    +0.000 HD
ENDROOT
BRANCH   9  11
ATOM     11  C   UNL     1       3.286   6.533  17.666  0.00  0.00    +0.000 C 
ATOM     12  O   UNL     1       4.115   7.045  16.918  0.00  0.00    +0.000 OA
ATOM     13  N   UNL     1       2.936   5.209  17.622  0.00  0.00    +0.000 N 
ATOM     14  H   UNL     1       2.566   4.856  18.499  0.00  0.00    +0.000 HD
BRANCH  13  15
ATOM     15  C   UNL     1       3.656   4.195  16.844  0.00  0.00    +0.000 C 
ATOM     16  C   UNL     1       2.859   2.884  16.874  0.00  0.00    +0.000 C 
ATOM     17  C   UNL     1       2.659   2.250  18.253  0.00  0.00    +0.000 C 
ATOM     18  C   UNL     1       3.950   1.857  18.967  0.00  0.00    +0.000 C 
ATOM     19  C   UNL     1       4.700   3.006  19.649  0.00  0.00    +0.000 C 
ATOM     20  N   UNL     1       5.127   4.115  18.825  0.00  0.00    +0.000 NA
ATOM     21  C   UNL     1       5.102   4.017  17.372  0.00  0.00    +0.000 C 
BRANCH  20  22
ATOM     22  C   UNL     1       6.046   5.082  19.404  0.00  0.00    +0.000 C 
ATOM     23  C   UNL     1       7.199   5.475  18.492  0.00  0.00    +0.000 C 
ENDBRANCH  20  22
ENDBRANCH  13  15
ENDBRANCH   9  11
BRANCH   1  24
ATOM     24  O   UNL     1       2.511   5.661  20.371  0.00  0.00    +0.000 OA
BRANCH  24  26
ATOM     25  C   UNL     1       1.996   3.647  21.623  0.00  0.00    +0.000 C 
ATOM     26  C   UNL     1       1.455   4.765  20.748  0.00  0.00    +0.000 C 
ENDBRANCH  24  26
ENDBRANCH   1  24
TORSDOF 5
ENDMDL
MODEL 2
REMARK VINA RESULT:      -6.9      2.980      4.596
REMARK  Name = 
REMARK  7 active torsions:
REMARK  status: ('A' for Active; 'I' for Inactive)
REMARK    1  A    between atoms: C_1  and  C_2
REMARK    2  A    between atoms: C_2  and  O_3
REMARK    3  A    between atoms: O_3  and  C_4
REMARK    4  A    between atoms: C_12  and  C_13
REMARK    5  A    between atoms: N_15  and  C_16
REMARK    6  A    between atoms: N_21  and  C_22
REMARK    7  A    between atoms: C_22  and  C_23
REMARK                            x       y       z     vdW  Elec       q    Type
REMARK                         _______ _______ _______ _____ _____    ______ ____
ROOT
ATOM      1  C   UNL     1       2.126   6.386  20.079  0.00  0.00    +0.000 A 
ATOM      2  C   UNL     1       1.610   5.556  21.090  0.00  0.00    +0.000 A 
ATOM      3  C   UNL     1       2.154   4.278  21.193  0.00  0.00    +0.000 A 
ATOM      4  N   UNL     1       1.992   3.267  22.097  0.00  0.00    +0.000 N 
ATOM      5  N   UNL     1       2.754   2.204  21.797  0.00  0.00    +0.000 NA
ATOM      6  N   UNL     1       3.416   2.492  20.682  0.00  0.00    +0.000 NA
ATOM      7  C   UNL     1       3.077   3.762  20.299  0.00  0.00    +0.000 A 
ATOM      8  C   UNL     1       3.508   4.549  19.226  0.00  0.00    +0.000 A 
ATOM      9  C   UNL     1       3.052   5.882  19.131  0.00  0.00    +0.000 A 
ATOM     10  H   UNL     1       1.427   3.242  22.938  0.00  0.00    +0.000 HD
ENDROOT
BRANCH   9  11
ATOM     11  C   UNL     1       3.693   6.697  18.037  0.00  0.00    +0.000 C 
ATOM     12  O   UNL     1       3.161   7.726  17.628  0.00  0.00    +0.000 OA
ATOM     13  N   UNL     1       4.850   6.181  17.519  0.00  0.00    +0.000 N 
ATOM     14  H   UNL     1       5.362   5.592  18.169  0.00  0.00    +0.000 HD
BRANCH  13  15
ATOM     15  C   UNL     1       5.718   6.895  16.577  0.00  0.00    +0.000 C 
ATOM     16  C   UNL     1       5.256   6.591  15.144  0.00  0.00    +0.000 C 
ATOM     17  C   UNL     1       5.332   5.125  14.711  0.00  0.00    +0.000 C 
ATOM     18  C   UNL     1       6.736   4.526  14.730  0.00  0.00    +0.000 C 
ATOM     19  C   UNL     1       7.252   4.102  16.109  0.00  0.00    +0.000 C 
ATOM     20  N   UNL     1       7.333   5.115  17.138  0.00  0.00    +0.000 NA
ATOM     21  C   UNL     1       7.205   6.527  16.806  0.00  0.00    +0.000 C 
BRANCH  20  22
ATOM     22  C   UNL     1       8.046   4.788  18.363  0.00  0.00    +0.000 C 
ATOM     23  C   UNL     1       7.845   5.788  19.491  0.00  0.00    +0.000 C 
ENDBRANCH  20  22
ENDBRANCH  13  15
ENDBRANCH   9  11
BRANCH   1  24
ATOM     24  O   UNL     1       1.706   7.694  19.970  0.00  0.00    +0.000 OA
BRANCH  24  26
ATOM     25  C   UNL     1       0.198   9.397  20.815  0.00  0.00    +0.000 C 
ATOM     26  C   UNL     1       1.199   8.309  21.164  0.00  0.00    +0.000 C 
ENDBRANCH  24  26
ENDBRANCH   1  24
TORSDOF 5
ENDMDL
MODEL 3
REMARK VINA RESULT:      -6.9      3.092      6.621
REMARK  Name = 
REMARK  7 active torsions:
REMARK  status: ('A' for Active; 'I' for Inactive)
REMARK    1  A    between atoms: C_1  and  C_2
REMARK    2  A    between atoms: C_2  and  O_3
REMARK    3  A    between atoms: O_3  and  C_4
REMARK    4  A    between atoms: C_12  and  C_13
REMARK    5  A    between atoms: N_15  and  C_16
REMARK    6  A    between atoms: N_21  and  C_22
REMARK    7  A    between atoms: C_22  and  C_23
REMARK                            x       y       z     vdW  Elec       q    Type
REMARK                         _______ _______ _______ _____ _____    ______ ____
ROOT
ATOM      1  C   UNL     1       7.321   5.575  16.407  0.00  0.00    +0.000 A 
ATOM      2  C   UNL     1       7.708   5.728  15.064  0.00  0.00    +0.000 A 
ATOM      3  C   UNL     1       7.105   4.883  14.135  0.00  0.00    +0.000 A 
ATOM      4  N   UNL     1       7.143   4.820  12.771  0.00  0.00    +0.000 N 
ATOM      5  N   UNL     1       6.368   3.833  12.297  0.00  0.00    +0.000 NA
ATOM      6  N   UNL     1       5.821   3.221  13.342  0.00  0.00    +0.000 NA
ATOM      7  C   UNL     1       6.246   3.853  14.479  0.00  0.00    +0.000 A 
ATOM      8  C   UNL     1       5.946   3.630  15.827  0.00  0.00    +0.000 A 
ATOM      9  C   UNL     1       6.463   4.515  16.797  0.00  0.00    +0.000 A 
ATOM     10  H   UNL     1       7.628   5.419  12.114  0.00  0.00    +0.000 HD
ENDROOT
BRANCH   9  11
ATOM     11  C   UNL     1       5.958   4.290  18.199  0.00  0.00    +0.000 C 
ATOM     12  O   UNL     1       6.606   4.675  19.169  0.00  0.00    +0.000 OA
ATOM     13  N   UNL     1       4.783   3.593  18.296  0.00  0.00    +0.000 N 
ATOM     14  H   UNL     1       4.186   3.684  17.480  0.00  0.00    +0.000 HD
BRANCH  13  15
ATOM     15  C   UNL     1       4.035   3.416  19.545  0.00  0.00    +0.000 C 
ATOM     16  C   UNL     1       3.232   2.110  19.465  0.00  0.00    +0.000 C 
ATOM     17  C   UNL     1       2.173   2.039  18.363  0.00  0.00    +0.000 C 
ATOM     18  C   UNL     1       1.070   3.088  18.469  0.00  0.00    +0.000 C 
ATOM     19  C   UNL     1       1.441   4.487  17.965  0.00  0.00    +0.000 C 
ATOM     20  N   UNL     1       2.563   5.152  18.590  0.00  0.00    +0.000 NA
ATOM     21  C   UNL     1       3.134   4.644  19.829  0.00  0.00    +0.000 C 
BRANCH  20  22
ATOM     22  C   UNL     1       2.769   6.562  18.298  0.00  0.00    +0.000 C 
ATOM     23  C   UNL     1       3.830   6.834  17.242  0.00  0.00    +0.000 C 
ENDBRANCH  20  22
ENDBRANCH  13  15
ENDBRANCH   9  11
BRANCH   1  24
ATOM     24  O   UNL     1       7.803   6.433  17.373  0.00  0.00    +0.000 OA
BRANCH  24  26
ATOM     25  C   UNL     1       8.271   8.714  18.054  0.00  0.00    +0.000 C 
ATOM     26  C   UNL     1       7.307   7.779  17.344  0.00  0.00    +0.000 C 
ENDBRANCH  24  26
ENDBRANCH   1  24
TORSDOF 5
ENDMDL
MODEL 4
REMARK VINA RESULT:      -6.6      1.689      2.517
REMARK  Name = 
REMARK  7 active torsions:
REMARK  status: ('A' for Active; 'I' for Inactive)
REMARK    1  A    between atoms: C_1  and  C_2
REMARK    2  A    between atoms: C_2  and  O_3
REMARK    3  A    between atoms: O_3  and  C_4
REMARK    4  A    between atoms: C_12  and  C_13
REMARK    5  A    between atoms: N_15  and  C_16
REMARK    6  A    between atoms: N_21  and  C_22
REMARK    7  A    between atoms: C_22  and  C_23
REMARK                            x       y       z     vdW  Elec       q    Type
REMARK                         _______ _______ _______ _____ _____    ______ ____
ROOT
ATOM      1  C   UNL     1       2.025   6.827  20.144  0.00  0.00    +0.000 A 
ATOM      2  C   UNL     1       1.316   7.762  20.921  0.00  0.00    +0.000 A 
ATOM      3  C   UNL     1       0.979   8.964  20.306  0.00  0.00    +0.000 A 
ATOM      4  N   UNL     1       0.216  10.028  20.696  0.00  0.00    +0.000 N 
ATOM      5  N   UNL     1       0.155  10.972  19.745  0.00  0.00    +0.000 NA
ATOM      6  N   UNL     1       0.889  10.552  18.721  0.00  0.00    +0.000 NA
ATOM      7  C   UNL     1       1.394   9.319  19.033  0.00  0.00    +0.000 A 
ATOM      8  C   UNL     1       2.193   8.435  18.300  0.00  0.00    +0.000 A 
ATOM      9  C   UNL     1       2.487   7.167  18.847  0.00  0.00    +0.000 A 
ATOM     10  H   UNL     1      -0.308  10.163  21.553  0.00  0.00    +0.000 HD
ENDROOT
BRANCH   9  11
ATOM     11  C   UNL     1       3.217   6.228  17.922  0.00  0.00    +0.000 C 
ATOM     12  O   UNL     1       2.690   5.186  17.541  0.00  0.00    +0.000 OA
ATOM     13  N   UNL     1       4.495   6.598  17.598  0.00  0.00    +0.000 N 
ATOM     14  H   UNL     1       4.654   7.599  17.640  0.00  0.00    +0.000 HD
BRANCH  13  15
ATOM     15  C   UNL     1       5.313   5.922  16.584  0.00  0.00    +0.000 C 
ATOM     16  C   UNL     1       5.581   4.481  17.039  0.00  0.00    +0.000 C 
ATOM     17  C   UNL     1       6.366   4.322  18.343  0.00  0.00    +0.000 C 
ATOM     18  C   UNL     1       7.771   4.917  18.318  0.00  0.00    +0.000 C 
ATOM     19  C   UNL     1       7.846   6.436  18.505  0.00  0.00    +0.000 C 
ATOM     20  N   UNL     1       7.140   7.268  17.556  0.00  0.00    +0.000 NA
ATOM     21  C   UNL     1       6.622   6.708  16.316  0.00  0.00    +0.000 C 
BRANCH  20  22
ATOM     22  C   UNL     1       7.403   8.698  17.574  0.00  0.00    +0.000 C 
ATOM     23  C   UNL     1       8.580   9.108  18.446  0.00  0.00    +0.000 C 
ENDBRANCH  20  22
ENDBRANCH  13  15
ENDBRANCH   9  11
BRANCH   1  24
ATOM     24  O   UNL     1       2.316   5.579  20.650  0.00  0.00    +0.000 OA
BRANCH  24  26
ATOM     25  C   UNL     1       1.702   3.321  21.293  0.00  0.00    +0.000 C 
ATOM     26  C   UNL     1       1.252   4.615  20.638  0.00  0.00    +0.000 C 
ENDBRANCH  24  26
ENDBRANCH   1  24
TORSDOF 5
ENDMDL
MODEL 5
REMARK VINA RESULT:      -6.5      5.943      8.798
REMARK  Name = 
REMARK  7 active torsions:
REMARK  status: ('A' for Active; 'I' for Inactive)
REMARK    1  A    between atoms: C_1  and  C_2
REMARK    2  A    between atoms: C_2  and  O_3
REMARK    3  A    between atoms: O_3  and  C_4
REMARK    4  A    between atoms: C_12  and  C_13
REMARK    5  A    between atoms: N_15  and  C_16
REMARK    6  A    between atoms: N_21  and  C_22
REMARK    7  A    between atoms: C_22  and  C_23
REMARK                            x       y       z     vdW  Elec       q    Type
REMARK                         _______ _______ _______ _____ _____    ______ ____
ROOT
ATOM      1  C   UNL     1      -3.878  11.044  17.779  0.00  0.00    +0.000 A 
ATOM      2  C   UNL     1      -5.278  11.011  17.644  0.00  0.00    +0.000 A 
ATOM      3  C   UNL     1      -6.012  11.838  18.490  0.00  0.00    +0.000 A 
ATOM      4  N   UNL     1      -7.339  12.150  18.566  0.00  0.00    +0.000 N 
ATOM      5  N   UNL     1      -7.588  13.029  19.549  0.00  0.00    +0.000 NA
ATOM      6  N   UNL     1      -6.432  13.297  20.144  0.00  0.00    +0.000 NA
ATOM      7  C   UNL     1      -5.448  12.591  19.506  0.00  0.00    +0.000 A 
ATOM      8  C   UNL     1      -4.065  12.540  19.713  0.00  0.00    +0.000 A 
ATOM      9  C   UNL     1      -3.270  11.784  18.825  0.00  0.00    +0.000 A 
ATOM     10  H   UNL     1      -8.106  11.842  17.979  0.00  0.00    +0.000 HD
ENDROOT
BRANCH   9  11
ATOM     11  C   UNL     1      -1.783  11.917  19.031  0.00  0.00    +0.000 C 
ATOM     12  O   UNL     1      -1.164  12.862  18.548  0.00  0.00    +0.000 OA
ATOM     13  N   UNL     1      -1.193  10.899  19.732  0.00  0.00    +0.000 N 
ATOM     14  H   UNL     1      -1.821  10.430  20.376  0.00  0.00    +0.000 HD
BRANCH  13  15
ATOM     15  C   UNL     1       0.201  10.918  20.190  0.00  0.00    +0.000 C 
ATOM     16  C   UNL     1       0.676   9.474  20.400  0.00  0.00    +0.000 C 
ATOM     17  C   UNL     1      -0.073   8.668  21.464  0.00  0.00    +0.000 C 
ATOM     18  C   UNL     1       0.010   9.242  22.875  0.00  0.00    +0.000 C 
ATOM     19  C   UNL     1      -0.929  10.418  23.164  0.00  0.00    +0.000 C 
ATOM     20  N   UNL     1      -0.801  11.600  22.340  0.00  0.00    +0.000 NA
ATOM     21  C   UNL     1       0.352  11.779  21.468  0.00  0.00    +0.000 C 
BRANCH  20  22
ATOM     22  C   UNL     1      -1.506  12.802  22.757  0.00  0.00    +0.000 C 
ATOM     23  C   UNL     1      -2.903  12.551  23.304  0.00  0.00    +0.000 C 
ENDBRANCH  20  22
ENDBRANCH  13  15
ENDBRANCH   9  11
BRANCH   1  24
ATOM     24  O   UNL     1      -3.078  10.325  16.918  0.00  0.00    +0.000 OA
BRANCH  24  26
ATOM     25  C   UNL     1      -3.327  10.067  14.518  0.00  0.00    +0.000 C 
ATOM     26  C   UNL     1      -2.791  10.929  15.649  0.00  0.00    +0.000 C 
ENDBRANCH  24  26
ENDBRANCH   1  24
TORSDOF 5
ENDMDL
MODEL 6
REMARK VINA RESULT:      -6.3      3.361      7.685
REMARK  Name = 
REMARK  7 active torsions:
REMARK  status: ('A' for Active; 'I' for Inactive)
REMARK    1  A    between atoms: C_1  and  C_2
REMARK    2  A    between atoms: C_2  and  O_3
REMARK    3  A    between atoms: O_3  and  C_4
REMARK    4  A    between atoms: C_12  and  C_13
REMARK    5  A    between atoms: N_15  and  C_16
REMARK    6  A    between atoms: N_21  and  C_22
REMARK    7  A    between atoms: C_22  and  C_23
REMARK                            x       y       z     vdW  Elec       q    Type
REMARK                         _______ _______ _______ _____ _____    ______ ____
ROOT
ATOM      1  C   UNL     1       1.293   8.815  20.561  0.00  0.00    +0.000 A 
ATOM      2  C   UNL     1       1.615   7.500  20.940  0.00  0.00    +0.000 A 
ATOM      3  C   UNL     1       2.255   6.710  19.988  0.00  0.00    +0.000 A 
ATOM      4  N   UNL     1       2.808   5.462  20.033  0.00  0.00    +0.000 N 
ATOM      5  N   UNL     1       3.343   5.112  18.853  0.00  0.00    +0.000 NA
ATOM      6  N   UNL     1       3.136   6.117  18.010  0.00  0.00    +0.000 NA
ATOM      7  C   UNL     1       2.484   7.114  18.683  0.00  0.00    +0.000 A 
ATOM      8  C   UNL     1       2.063   8.384  18.274  0.00  0.00    +0.000 A 
ATOM      9  C   UNL     1       1.490   9.253  19.227  0.00  0.00    +0.000 A 
ATOM     10  H   UNL     1       2.890   4.823  20.815  0.00  0.00    +0.000 HD
ENDROOT
BRANCH   9  11
ATOM     11  C   UNL     1       1.216  10.650  18.731  0.00  0.00    +0.000 C 
ATOM     12  O   UNL     1       2.068  11.271  18.101  0.00  0.00    +0.000 OA
ATOM     13  N   UNL     1      -0.002  11.169  19.080  0.00  0.00    +0.000 N 
ATOM     14  H   UNL     1      -0.717  10.465  19.234  0.00  0.00    +0.000 HD
BRANCH  13  15
ATOM     15  C   UNL     1      -0.535  12.433  18.560  0.00  0.00    +0.000 C 
ATOM     16  C   UNL     1      -1.230  13.189  19.701  0.00  0.00    +0.000 C 
ATOM     17  C   UNL     1      -2.435  12.489  20.335  0.00  0.00    +0.000 C 
ATOM     18  C   UNL     1      -3.592  12.218  19.377  0.00  0.00    +0.000 C 
ATOM     19  C   UNL     1      -3.418  11.001  18.462  0.00  0.00    +0.000 C 
ATOM     20  N   UNL     1      -2.273  10.981  17.578  0.00  0.00    +0.000 NA
ATOM     21  C   UNL     1      -1.480  12.182  17.358  0.00  0.00    +0.000 C 
BRANCH  20  22
ATOM     22  C   UNL     1      -2.230   9.963  16.540  0.00  0.00    +0.000 C 
ATOM     23  C   UNL     1      -2.893  10.374  15.233  0.00  0.00    +0.000 C 
ENDBRANCH  20  22
ENDBRANCH  13  15
ENDBRANCH   9  11
BRANCH   1  24
ATOM     24  O   UNL     1       0.742   9.688  21.475  0.00  0.00    +0.000 OA
BRANCH  24  26
ATOM     25  C   UNL     1      -0.924  10.283  23.135  0.00  0.00    +0.000 C 
ATOM     26  C   UNL     1      -0.296   9.167  22.318  0.00  0.00    +0.000 C 
ENDBRANCH  24  26
ENDBRANCH   1  24
TORSDOF 5
ENDMDL
MODEL 7
REMARK VINA RESULT:      -6.2      5.230      8.168
REMARK  Name = 
REMARK  7 active torsions:
REMARK  status: ('A' for Active; 'I' for Inactive)
REMARK    1  A    between atoms: C_1  and  C_2
REMARK    2  A    between atoms: C_2  and  O_3
REMARK    3  A    between atoms: O_3  and  C_4
REMARK    4  A    between atoms: C_12  and  C_13
REMARK    5  A    between atoms: N_15  and  C_16
REMARK    6  A    between atoms: N_21  and  C_22
REMARK    7  A    between atoms: C_22  and  C_23
REMARK                            x       y       z     vdW  Elec       q    Type
REMARK                         _______ _______ _______ _____ _____    ______ ____
ROOT
ATOM      1  C   UNL     1      -3.489  11.474  17.619  0.00  0.00    +0.000 A 
ATOM      2  C   UNL     1      -4.855  11.170  17.476  0.00  0.00    +0.000 A 
ATOM      3  C   UNL     1      -5.698  11.556  18.515  0.00  0.00    +0.000 A 
ATOM      4  N   UNL     1      -7.055  11.534  18.671  0.00  0.00    +0.000 N 
ATOM      5  N   UNL     1      -7.427  12.040  19.856  0.00  0.00    +0.000 NA
ATOM      6  N   UNL     1      -6.322  12.386  20.505  0.00  0.00    +0.000 NA
ATOM      7  C   UNL     1      -5.250  12.113  19.701  0.00  0.00    +0.000 A 
ATOM      8  C   UNL     1      -3.878  12.315  19.889  0.00  0.00    +0.000 A 
ATOM      9  C   UNL     1      -2.993  12.022  18.829  0.00  0.00    +0.000 A 
ATOM     10  H   UNL     1      -7.771  11.234  18.020  0.00  0.00    +0.000 HD
ENDROOT
BRANCH   9  11
ATOM     11  C   UNL     1      -1.559  12.420  19.068  0.00  0.00    +0.000 C 
ATOM     12  O   UNL     1      -1.257  13.595  19.259  0.00  0.00    +0.000 OA
ATOM     13  N   UNL     1      -0.647  11.400  19.001  0.00  0.00    +0.000 N 
ATOM     14  H   UNL     1      -1.034  10.490  19.228  0.00  0.00    +0.000 HD
BRANCH  13  15
ATOM     15  C   UNL     1       0.766  11.538  19.370  0.00  0.00    +0.000 C 
ATOM     16  C   UNL     1       1.602  10.575  18.514  0.00  0.00    +0.000 C 
ATOM     17  C   UNL     1       1.297   9.086  18.686  0.00  0.00    +0.000 C 
ATOM     18  C   UNL     1       1.529   8.546  20.095  0.00  0.00    +0.000 C 
ATOM     19  C   UNL     1       0.418   8.849  21.107  0.00  0.00    +0.000 C 
ATOM     20  N   UNL     1       0.093  10.236  21.356  0.00  0.00    +0.000 NA
ATOM     21  C   UNL     1       0.968  11.302  20.887  0.00  0.00    +0.000 C 
BRANCH  20  22
ATOM     22  C   UNL     1      -0.775  10.542  22.482  0.00  0.00    +0.000 C 
ATOM     23  C   UNL     1      -1.033  12.028  22.688  0.00  0.00    +0.000 C 
ENDBRANCH  20  22
ENDBRANCH  13  15
ENDBRANCH   9  11
BRANCH   1  24
ATOM     24  O   UNL     1      -2.606  11.208  16.596  0.00  0.00    +0.000 OA
BRANCH  24  26
ATOM     25  C   UNL     1      -3.012  10.091  14.480  0.00  0.00    +0.000 C 
ATOM     26  C   UNL     1      -2.722   9.925  15.962  0.00  0.00    +0.000 C 
ENDBRANCH  24  26
ENDBRANCH   1  24
TORSDOF 5
ENDMDL
MODEL 8
REMARK VINA RESULT:      -6.2      2.908      7.548
REMARK  Name = 
REMARK  7 active torsions:
REMARK  status: ('A' for Active; 'I' for Inactive)
REMARK    1  A    between atoms: C_1  and  C_2
REMARK    2  A    between atoms: C_2  and  O_3
REMARK    3  A    between atoms: O_3  and  C_4
REMARK    4  A    between atoms: C_12  and  C_13
REMARK    5  A    between atoms: N_15  and  C_16
REMARK    6  A    between atoms: N_21  and  C_22
REMARK    7  A    between atoms: C_22  and  C_23
REMARK                            x       y       z     vdW  Elec       q    Type
REMARK                         _______ _______ _______ _____ _____    ______ ____
ROOT
ATOM      1  C   UNL     1       1.458   8.462  20.289  0.00  0.00    +0.000 A 
ATOM      2  C   UNL     1       1.607   7.122  20.688  0.00  0.00    +0.000 A 
ATOM      3  C   UNL     1       2.218   6.259  19.782  0.00  0.00    +0.000 A 
ATOM      4  N   UNL     1       2.625   4.958  19.864  0.00  0.00    +0.000 N 
ATOM      5  N   UNL     1       3.196   4.543  18.723  0.00  0.00    +0.000 NA
ATOM      6  N   UNL     1       3.160   5.558  17.868  0.00  0.00    +0.000 NA
ATOM      7  C   UNL     1       2.578   6.626  18.496  0.00  0.00    +0.000 A 
ATOM      8  C   UNL     1       2.330   7.931  18.059  0.00  0.00    +0.000 A 
ATOM      9  C   UNL     1       1.793   8.865  18.971  0.00  0.00    +0.000 A 
ATOM     10  H   UNL     1       2.582   4.320  20.650  0.00  0.00    +0.000 HD
ENDROOT
BRANCH   9  11
ATOM     11  C   UNL     1       1.710  10.281  18.458  0.00  0.00    +0.000 C 
ATOM     12  O   UNL     1       2.380  10.640  17.493  0.00  0.00    +0.000 OA
ATOM     13  N   UNL     1       0.892  11.117  19.171  0.00  0.00    +0.000 N 
ATOM     14  H   UNL     1       0.140  10.638  19.655  0.00  0.00    +0.000 HD
BRANCH  13  15
ATOM     15  C   UNL     1       0.536  12.475  18.746  0.00  0.00    +0.000 C 
ATOM     16  C   UNL     1       0.769  13.442  19.915  0.00  0.00    +0.000 C 
ATOM     17  C   UNL     1      -0.070  13.193  21.170  0.00  0.00    +0.000 C 
ATOM     18  C   UNL     1      -1.578  13.301  20.960  0.00  0.00    +0.000 C 
ATOM     19  C   UNL     1      -2.243  12.077  20.322  0.00  0.00    +0.000 C 
ATOM     20  N   UNL     1      -1.778  11.660  19.018  0.00  0.00    +0.000 NA
ATOM     21  C   UNL     1      -0.921  12.527  18.221  0.00  0.00    +0.000 C 
BRANCH  20  22
ATOM     22  C   UNL     1      -2.558  10.665  18.300  0.00  0.00    +0.000 C 
ATOM     23  C   UNL     1      -1.819  10.000  17.148  0.00  0.00    +0.000 C 
ENDBRANCH  20  22
ENDBRANCH  13  15
ENDBRANCH   9  11
BRANCH   1  24
ATOM     24  O   UNL     1       0.947   9.397  21.163  0.00  0.00    +0.000 OA
BRANCH  24  26
ATOM     25  C   UNL     1      -0.403   9.878  23.121  0.00  0.00    +0.000 C 
ATOM     26  C   UNL     1      -0.249   9.034  21.868  0.00  0.00    +0.000 C 
ENDBRANCH  24  26
ENDBRANCH   1  24
TORSDOF 5
ENDMDL
MODEL 9
REMARK VINA RESULT:      -6.1      2.239      4.043
REMARK  Name = 
REMARK  7 active torsions:
REMARK  status: ('A' for Active; 'I' for Inactive)
REMARK    1  A    between atoms: C_1  and  C_2
REMARK    2  A    between atoms: C_2  and  O_3
REMARK    3  A    between atoms: O_3  and  C_4
REMARK    4  A    between atoms: C_12  and  C_13
REMARK    5  A    between atoms: N_15  and  C_16
REMARK    6  A    between atoms: N_21  and  C_22
REMARK    7  A    between atoms: C_22  and  C_23
REMARK                            x       y       z     vdW  Elec       q    Type
REMARK                         _______ _______ _______ _____ _____    ______ ____
ROOT
ATOM      1  C   UNL     1       0.313   9.541  19.305  0.00  0.00    +0.000 A 
ATOM      2  C   UNL     1      -0.559  10.263  20.140  0.00  0.00    +0.000 A 
ATOM      3  C   UNL     1      -0.342  10.164  21.512  0.00  0.00    +0.000 A 
ATOM      4  N   UNL     1      -0.895  10.794  22.590  0.00  0.00    +0.000 N 
ATOM      5  N   UNL     1      -0.343  10.384  23.743  0.00  0.00    +0.000 NA
ATOM      6  N   UNL     1       0.569   9.467  23.442  0.00  0.00    +0.000 NA
ATOM      7  C   UNL     1       0.599   9.323  22.082  0.00  0.00    +0.000 A 
ATOM      8  C   UNL     1       1.394   8.521  21.255  0.00  0.00    +0.000 A 
ATOM      9  C   UNL     1       1.271   8.652  19.855  0.00  0.00    +0.000 A 
ATOM     10  H   UNL     1      -1.603  11.519  22.617  0.00  0.00    +0.000 HD
ENDROOT
BRANCH   9  11
ATOM     11  C   UNL     1       2.275   7.866  19.051  0.00  0.00    +0.000 C 
ATOM     12  O   UNL     1       2.828   8.366  18.075  0.00  0.00    +0.000 OA
ATOM     13  N   UNL     1       2.468   6.572  19.456  0.00  0.00    +0.000 N 
ATOM     14  H   UNL     1       2.277   6.419  20.441  0.00  0.00    +0.000 HD
BRANCH  13  15
ATOM     15  C   UNL     1       3.517   5.694  18.925  0.00  0.00    +0.000 C 
ATOM     16  C   UNL     1       3.192   5.354  17.464  0.00  0.00    +0.000 C 
ATOM     17  C   UNL     1       1.887   4.591  17.227  0.00  0.00    +0.000 C 
ATOM     18  C   UNL     1       1.817   3.222  17.898  0.00  0.00    +0.000 C 
ATOM     19  C   UNL     1       1.487   3.239  19.394  0.00  0.00    +0.000 C 
ATOM     20  N   UNL     1       2.375   3.970  20.272  0.00  0.00    +0.000 NA
ATOM     21  C   UNL     1       3.675   4.427  19.803  0.00  0.00    +0.000 C 
BRANCH  20  22
ATOM     22  C   UNL     1       2.217   3.790  21.706  0.00  0.00    +0.000 C 
ATOM     23  C   UNL     1       1.468   2.525  22.100  0.00  0.00    +0.000 C 
ENDBRANCH  20  22
ENDBRANCH  13  15
ENDBRANCH   9  11
BRANCH   1  24
ATOM     24  O   UNL     1       0.222   9.660  17.935  0.00  0.00    +0.000 OA
BRANCH  24  26
ATOM     25  C   UNL     1      -1.999   9.757  16.961  0.00  0.00    +0.000 C 
ATOM     26  C   UNL     1      -0.788  10.546  17.430  0.00  0.00    +0.000 C 
ENDBRANCH  24  26
ENDBRANCH   1  24
TORSDOF 5
ENDMDL
