MODEL 1
REMARK VINA RESULT:      -8.8      0.000      0.000
REMARK  Name = 
REMARK  12 active torsions:
REMARK  status: ('A' for Active; 'I' for Inactive)
REMARK    1  A    between atoms: C_1  and  C_2
REMARK    2  A    between atoms: C_2  and  C_3
REMARK    3  A    between atoms: C_3  and  C_4
REMARK    4  A    between atoms: C_4  and  C_5
REMARK    5  A    between atoms: C_5  and  C_6
REMARK    6  A    between atoms: C_6  and  C_7
REMARK    7  A    between atoms: C_7  and  C_8
REMARK    8  A    between atoms: C_8  and  C_9
REMARK    9  A    between atoms: CA_11  and  C_12
REMARK   10  A    between atoms: C_12  and  OXT_14
REMARK   11  A    between atoms: C_21  and  O_22
REMARK   12  A    between atoms: O_22  and  C_23
REMARK                            x       y       z     vdW  Elec       q    Type
REMARK                         _______ _______ _______ _____ _____    ______ ____
ROOT
ATOM      1  C   UNL     1       7.445   4.664  17.810  0.00  0.00    +0.000 C 
ATOM      2  N   UNL     1       7.797   4.631  16.358  0.00  0.00    +0.000 NA
ATOM      3  CA  UNL     1       6.650   5.042  15.452  0.00  0.00    +0.000 C 
ATOM      4  C   UNL     1       5.379   4.186  15.624  0.00  0.00    +0.000 C 
ATOM      5  C   UNL     1       5.041   4.113  17.066  0.00  0.00    +0.000 A 
ATOM      6  C   UNL     1       6.005   4.324  18.028  0.00  0.00    +0.000 A 
ATOM      7  N   UNL     1       5.404   4.184  19.252  0.00  0.00    +0.000 N 
ATOM      8  C   UNL     1       4.062   3.919  19.090  0.00  0.00    +0.000 A 
ATOM      9  C   UNL     1       3.058   3.723  20.047  0.00  0.00    +0.000 A 
ATOM     10  C   UNL     1       1.756   3.464  19.599  0.00  0.00    +0.000 A 
ATOM     11  C   UNL     1       1.480   3.412  18.233  0.00  0.00    +0.000 A 
ATOM     12  C   UNL     1       2.495   3.608  17.286  0.00  0.00    +0.000 A 
ATOM     13  C   UNL     1       3.808   3.866  17.720  0.00  0.00    +0.000 A 
ATOM     14  H   UNL     1       7.959   3.638  16.151  0.00  0.00    +0.000 HD
ATOM     15  H   UNL     1       5.858   4.287  20.150  0.00  0.00    +0.000 HD
ENDROOT
BRANCH   3  16
ATOM     16  C   UNL     1       7.125   4.932  13.993  0.00  0.00    +0.000 C 
ATOM     17  O   UNL     1       8.007   5.602  13.479  0.00  0.00    +0.000 OA
BRANCH  16  18
ATOM     18  OXT UNL     1       6.445   3.971  13.325  0.00  0.00    +0.000 OA
ATOM     19  HXT UNL     1       6.867   3.107  13.550  0.00  0.00    +0.000 HD
ENDBRANCH  16  18
ENDBRANCH   3  16
BRANCH  10  20
ATOM     20  O   UNL     1       0.844   3.281  20.606  0.00  0.00    +0.000 OA
ATOM     21  C   UNL     1       1.309   2.629  21.781  0.00  0.00    +0.000 C 
ENDBRANCH  10  20
BRANCH   1  22
ATOM     22  C   UNL     1       7.827   5.988  18.497  0.00  0.00    +0.000 C 
BRANCH  22  23
ATOM     23  C   UNL     1       7.063   7.194  17.941  0.00  0.00    +0.000 C 
BRANCH  23  24
ATOM     24  C   UNL     1       8.024   8.289  17.472  0.00  0.00    +0.000 C 
BRANCH  24  25
ATOM     25  C   UNL     1       8.619   9.042  18.660  0.00  0.00    +0.000 C 
BRANCH  25  26
ATOM     26  C   UNL     1       8.953  10.490  18.302  0.00  0.00    +0.000 C 
BRANCH  26  27
ATOM     27  C   UNL     1      10.207  10.957  19.043  0.00  0.00    +0.000 C 
BRANCH  27  29
ATOM     28  C   UNL     1       9.651  12.932  17.588  0.00  0.00    +0.000 C 
ATOM     29  C   UNL     1      10.620  12.362  18.614  0.00  0.00    +0.000 C 
ENDBRANCH  27  29
ENDBRANCH  26  27
ENDBRANCH  25  26
ENDBRANCH  24  25
ENDBRANCH  23  24
ENDBRANCH  22  23
ENDBRANCH   1  22
TORSDOF 10
ENDMDL
MODEL 2
REMARK VINA RESULT:      -8.7      0.660      1.029
REMARK  Name = 
REMARK  12 active torsions:
REMARK  status: ('A' for Active; 'I' for Inactive)
REMARK    1  A    between atoms: C_1  and  C_2
REMARK    2  A    between atoms: C_2  and  C_3
REMARK    3  A    between atoms: C_3  and  C_4
REMARK    4  A    between atoms: C_4  and  C_5
REMARK    5  A    between atoms: C_5  and  C_6
REMARK    6  A    between atoms: C_6  and  C_7
REMARK    7  A    between atoms: C_7  and  C_8
REMARK    8  A    between atoms: C_8  and  C_9
REMARK    9  A    between atoms: CA_11  and  C_12
REMARK   10  A    between atoms: C_12  and  OXT_14
REMARK   11  A    between atoms: C_21  and  O_22
REMARK   12  A    between atoms: O_22  and  C_23
REMARK                            x       y       z     vdW  Elec       q    Type
REMARK                         _______ _______ _______ _____ _____    ______ ____
ROOT
ATOM      1  C   UNL     1       7.395   4.651  17.972  0.00  0.00    +0.000 C 
ATOM      2  N   UNL     1       7.785   4.640  16.530  0.00  0.00    +0.000 NA
ATOM      3  CA  UNL     1       6.647   5.018  15.597  0.00  0.00    +0.000 C 
ATOM      4  C   UNL     1       5.403   4.118  15.732  0.00  0.00    +0.000 C 
ATOM      5  C   UNL     1       5.031   4.025  17.164  0.00  0.00    +0.000 A 
ATOM      6  C   UNL     1       5.962   4.261  18.152  0.00  0.00    +0.000 A 
ATOM      7  N   UNL     1       5.336   4.093  19.359  0.00  0.00    +0.000 N 
ATOM      8  C   UNL     1       4.009   3.783  19.161  0.00  0.00    +0.000 A 
ATOM      9  C   UNL     1       2.987   3.546  20.091  0.00  0.00    +0.000 A 
ATOM     10  C   UNL     1       1.707   3.247  19.608  0.00  0.00    +0.000 A 
ATOM     11  C   UNL     1       1.467   3.195  18.235  0.00  0.00    +0.000 A 
ATOM     12  C   UNL     1       2.499   3.432  17.316  0.00  0.00    +0.000 A 
ATOM     13  C   UNL     1       3.791   3.731  17.784  0.00  0.00    +0.000 A 
ATOM     14  H   UNL     1       7.986   3.655  16.321  0.00  0.00    +0.000 HD
ATOM     15  H   UNL     1       5.763   4.205  20.269  0.00  0.00    +0.000 HD
ENDROOT
BRANCH   3  16
ATOM     16  C   UNL     1       7.163   4.935  14.150  0.00  0.00    +0.000 C 
ATOM     17  O   UNL     1       6.669   4.268  13.255  0.00  0.00    +0.000 OA
BRANCH  16  18
ATOM     18  OXT UNL     1       8.252   5.719  13.970  0.00  0.00    +0.000 OA
ATOM     19  HXT UNL     1       7.955   6.520  13.473  0.00  0.00    +0.000 HD
ENDBRANCH  16  18
ENDBRANCH   3  16
BRANCH  10  20
ATOM     20  O   UNL     1       0.777   3.026  20.590  0.00  0.00    +0.000 OA
ATOM     21  C   UNL     1       1.267   2.590  21.852  0.00  0.00    +0.000 C 
ENDBRANCH  10  20
BRANCH   1  22
ATOM     22  C   UNL     1       7.714   5.983  18.677  0.00  0.00    +0.000 C 
BRANCH  22  23
ATOM     23  C   UNL     1       7.667   7.187  17.732  0.00  0.00    +0.000 C 
BRANCH  23  24
ATOM     24  C   UNL     1       8.573   8.316  18.230  0.00  0.00    +0.000 C 
BRANCH  24  25
ATOM     25  C   UNL     1       7.985   9.683  17.887  0.00  0.00    +0.000 C 
BRANCH  25  26
ATOM     26  C   UNL     1       8.982  10.811  18.150  0.00  0.00    +0.000 C 
BRANCH  26  27
ATOM     27  C   UNL     1       9.607  10.670  19.539  0.00  0.00    +0.000 C 
BRANCH  27  29
ATOM     28  C   UNL     1      11.734  11.949  19.943  0.00  0.00    +0.000 C 
ATOM     29  C   UNL     1      10.214  11.985  20.017  0.00  0.00    +0.000 C 
ENDBRANCH  27  29
ENDBRANCH  26  27
ENDBRANCH  25  26
ENDBRANCH  24  25
ENDBRANCH  23  24
ENDBRANCH  22  23
ENDBRANCH   1  22
TORSDOF 10
ENDMDL
MODEL 3
REMARK VINA RESULT:      -8.6      0.903      1.354
REMARK  Name = 
REMARK  12 active torsions:
REMARK  status: ('A' for Active; 'I' for Inactive)
REMARK    1  A    between atoms: C_1  and  C_2
REMARK    2  A    between atoms: C_2  and  C_3
REMARK    3  A    between atoms: C_3  and  C_4
REMARK    4  A    between atoms: C_4  and  C_5
REMARK    5  A    between atoms: C_5  and  C_6
REMARK    6  A    between atoms: C_6  and  C_7
REMARK    7  A    between atoms: C_7  and  C_8
REMARK    8  A    between atoms: C_8  and  C_9
REMARK    9  A    between atoms: CA_11  and  C_12
REMARK   10  A    between atoms: C_12  and  OXT_14
REMARK   11  A    between atoms: C_21  and  O_22
REMARK   12  A    between atoms: O_22  and  C_23
REMARK                            x       y       z     vdW  Elec       q    Type
REMARK                         _______ _______ _______ _____ _____    ______ ____
ROOT
ATOM      1  C   UNL     1       7.033   5.814  17.185  0.00  0.00    +0.000 C 
ATOM      2  N   UNL     1       7.471   5.411  15.814  0.00  0.00    +0.000 NA
ATOM      3  CA  UNL     1       6.313   5.148  14.868  0.00  0.00    +0.000 C 
ATOM      4  C   UNL     1       5.335   4.063  15.362  0.00  0.00    +0.000 C 
ATOM      5  C   UNL     1       4.942   4.371  16.757  0.00  0.00    +0.000 A 
ATOM      6  C   UNL     1       5.741   5.158  17.558  0.00  0.00    +0.000 A 
ATOM      7  N   UNL     1       5.130   5.258  18.781  0.00  0.00    +0.000 N 
ATOM      8  C   UNL     1       3.935   4.574  18.766  0.00  0.00    +0.000 A 
ATOM      9  C   UNL     1       2.971   4.417  19.771  0.00  0.00    +0.000 A 
ATOM     10  C   UNL     1       1.830   3.657  19.484  0.00  0.00    +0.000 A 
ATOM     11  C   UNL     1       1.667   3.081  18.224  0.00  0.00    +0.000 A 
ATOM     12  C   UNL     1       2.641   3.245  17.228  0.00  0.00    +0.000 A 
ATOM     13  C   UNL     1       3.794   4.003  17.502  0.00  0.00    +0.000 A 
ATOM     14  H   UNL     1       7.925   4.499  15.943  0.00  0.00    +0.000 HD
ATOM     15  H   UNL     1       5.477   5.778  19.576  0.00  0.00    +0.000 HD
ENDROOT
BRANCH   3  16
ATOM     16  C   UNL     1       6.891   4.710  13.510  0.00  0.00    +0.000 C 
ATOM     17  O   UNL     1       6.500   3.767  12.841  0.00  0.00    +0.000 OA
BRANCH  16  18
ATOM     18  OXT UNL     1       7.904   5.520  13.123  0.00  0.00    +0.000 OA
ATOM     19  HXT UNL     1       8.704   5.253  13.640  0.00  0.00    +0.000 HD
ENDBRANCH  16  18
ENDBRANCH   3  16
BRANCH  10  20
ATOM     20  O   UNL     1       0.948   3.555  20.528  0.00  0.00    +0.000 OA
ATOM     21  C   UNL     1       1.367   2.787  21.649  0.00  0.00    +0.000 C 
ENDBRANCH  10  20
BRANCH   1  22
ATOM     22  C   UNL     1       6.972   7.340  17.380  0.00  0.00    +0.000 C 
BRANCH  22  23
ATOM     23  C   UNL     1       8.141   7.885  18.206  0.00  0.00    +0.000 C 
BRANCH  23  24
ATOM     24  C   UNL     1       8.313   9.391  17.994  0.00  0.00    +0.000 C 
BRANCH  24  25
ATOM     25  C   UNL     1       9.213   9.997  19.069  0.00  0.00    +0.000 C 
BRANCH  25  26
ATOM     26  C   UNL     1       9.905  11.269  18.578  0.00  0.00    +0.000 C 
BRANCH  26  27
ATOM     27  C   UNL     1       9.869  12.356  19.653  0.00  0.00    +0.000 C 
BRANCH  27  29
ATOM     28  C   UNL     1      12.333  11.853  19.667  0.00  0.00    +0.000 C 
ATOM     29  C   UNL     1      11.153  12.372  20.477  0.00  0.00    +0.000 C 
ENDBRANCH  27  29
ENDBRANCH  26  27
ENDBRANCH  25  26
ENDBRANCH  24  25
ENDBRANCH  23  24
ENDBRANCH  22  23
ENDBRANCH   1  22
TORSDOF 10
ENDMDL
MODEL 4
REMARK VINA RESULT:      -8.5      1.056      1.309
REMARK  Name = 
REMARK  12 active torsions:
REMARK  status: ('A' for Active; 'I' for Inactive)
REMARK    1  A    between atoms: C_1  and  C_2
REMARK    2  A    between atoms: C_2  and  C_3
REMARK    3  A    between atoms: C_3  and  C_4
REMARK    4  A    between atoms: C_4  and  C_5
REMARK    5  A    between atoms: C_5  and  C_6
REMARK    6  A    between atoms: C_6  and  C_7
REMARK    7  A    between atoms: C_7  and  C_8
REMARK    8  A    between atoms: C_8  and  C_9
REMARK    9  A    between atoms: CA_11  and  C_12
REMARK   10  A    between atoms: C_12  and  OXT_14
REMARK   11  A    between atoms: C_21  and  O_22
REMARK   12  A    between atoms: O_22  and  C_23
REMARK                            x       y       z     vdW  Elec       q    Type
REMARK                         _______ _______ _______ _____ _____    ______ ____
ROOT
ATOM      1  C   UNL     1       7.113   5.864  17.276  0.00  0.00    +0.000 C 
ATOM      2  N   UNL     1       7.556   5.454  15.909  0.00  0.00    +0.000 NA
ATOM      3  CA  UNL     1       6.402   5.204  14.954  0.00  0.00    +0.000 C 
ATOM      4  C   UNL     1       5.406   4.133  15.442  0.00  0.00    +0.000 C 
ATOM      5  C   UNL     1       5.007   4.449  16.835  0.00  0.00    +0.000 A 
ATOM      6  C   UNL     1       5.810   5.227  17.640  0.00  0.00    +0.000 A 
ATOM      7  N   UNL     1       5.192   5.336  18.858  0.00  0.00    +0.000 N 
ATOM      8  C   UNL     1       3.988   4.667  18.836  0.00  0.00    +0.000 A 
ATOM      9  C   UNL     1       3.015   4.525  19.834  0.00  0.00    +0.000 A 
ATOM     10  C   UNL     1       1.866   3.780  19.539  0.00  0.00    +0.000 A 
ATOM     11  C   UNL     1       1.705   3.204  18.279  0.00  0.00    +0.000 A 
ATOM     12  C   UNL     1       2.688   3.353  17.289  0.00  0.00    +0.000 A 
ATOM     13  C   UNL     1       3.849   4.096  17.571  0.00  0.00    +0.000 A 
ATOM     14  H   UNL     1       7.997   4.537  16.042  0.00  0.00    +0.000 HD
ATOM     15  H   UNL     1       5.540   5.852  19.655  0.00  0.00    +0.000 HD
ENDROOT
BRANCH   3  16
ATOM     16  C   UNL     1       6.985   4.757  13.602  0.00  0.00    +0.000 C 
ATOM     17  O   UNL     1       7.775   5.392  12.922  0.00  0.00    +0.000 OA
BRANCH  16  18
ATOM     18  OXT UNL     1       6.520   3.537  13.245  0.00  0.00    +0.000 OA
ATOM     19  HXT UNL     1       7.298   2.929  13.205  0.00  0.00    +0.000 HD
ENDBRANCH  16  18
ENDBRANCH   3  16
BRANCH  10  20
ATOM     20  O   UNL     1       0.975   3.691  20.576  0.00  0.00    +0.000 OA
ATOM     21  C   UNL     1       1.309   2.801  21.634  0.00  0.00    +0.000 C 
ENDBRANCH  10  20
BRANCH   1  22
ATOM     22  C   UNL     1       7.072   7.392  17.468  0.00  0.00    +0.000 C 
BRANCH  22  23
ATOM     23  C   UNL     1       8.249   7.924  18.291  0.00  0.00    +0.000 C 
BRANCH  23  24
ATOM     24  C   UNL     1       8.410   9.436  18.111  0.00  0.00    +0.000 C 
BRANCH  24  25
ATOM     25  C   UNL     1       9.184  10.047  19.277  0.00  0.00    +0.000 C 
BRANCH  25  26
ATOM     26  C   UNL     1      10.165  11.120  18.805  0.00  0.00    +0.000 C 
BRANCH  26  27
ATOM     27  C   UNL     1      10.933  11.711  19.988  0.00  0.00    +0.000 C 
BRANCH  27  29
ATOM     28  C   UNL     1       9.563  12.668  21.868  0.00  0.00    +0.000 C 
ATOM     29  C   UNL     1      10.243  12.957  20.538  0.00  0.00    +0.000 C 
ENDBRANCH  27  29
ENDBRANCH  26  27
ENDBRANCH  25  26
ENDBRANCH  24  25
ENDBRANCH  23  24
ENDBRANCH  22  23
ENDBRANCH   1  22
TORSDOF 10
ENDMDL
MODEL 5
REMARK VINA RESULT:      -8.4      0.881      1.139
REMARK  Name = 
REMARK  12 active torsions:
REMARK  status: ('A' for Active; 'I' for Inactive)
REMARK    1  A    between atoms: C_1  and  C_2
REMARK    2  A    between atoms: C_2  and  C_3
REMARK    3  A    between atoms: C_3  and  C_4
REMARK    4  A    between atoms: C_4  and  C_5
REMARK    5  A    between atoms: C_5  and  C_6
REMARK    6  A    between atoms: C_6  and  C_7
REMARK    7  A    between atoms: C_7  and  C_8
REMARK    8  A    between atoms: C_8  and  C_9
REMARK    9  A    between atoms: CA_11  and  C_12
REMARK   10  A    between atoms: C_12  and  OXT_14
REMARK   11  A    between atoms: C_21  and  O_22
REMARK   12  A    between atoms: O_22  and  C_23
REMARK                            x       y       z     vdW  Elec       q    Type
REMARK                         _______ _______ _______ _____ _____    ______ ____
ROOT
ATOM      1  C   UNL     1       7.152   5.579  17.154  0.00  0.00    +0.000 C 
ATOM      2  N   UNL     1       7.566   5.319  15.742  0.00  0.00    +0.000 NA
ATOM      3  CA  UNL     1       6.399   5.002  14.823  0.00  0.00    +0.000 C 
ATOM      4  C   UNL     1       5.559   3.790  15.274  0.00  0.00    +0.000 C 
ATOM      5  C   UNL     1       5.201   3.960  16.703  0.00  0.00    +0.000 A 
ATOM      6  C   UNL     1       5.951   4.769  17.527  0.00  0.00    +0.000 A 
ATOM      7  N   UNL     1       5.389   4.721  18.776  0.00  0.00    +0.000 N 
ATOM      8  C   UNL     1       4.270   3.919  18.758  0.00  0.00    +0.000 A 
ATOM      9  C   UNL     1       3.373   3.594  19.785  0.00  0.00    +0.000 A 
ATOM     10  C   UNL     1       2.303   2.742  19.487  0.00  0.00    +0.000 A 
ATOM     11  C   UNL     1       2.143   2.239  18.195  0.00  0.00    +0.000 A 
ATOM     12  C   UNL     1       3.049   2.571  17.177  0.00  0.00    +0.000 A 
ATOM     13  C   UNL     1       4.131   3.424  17.461  0.00  0.00    +0.000 A 
ATOM     14  H   UNL     1       8.115   4.453  15.787  0.00  0.00    +0.000 HD
ATOM     15  H   UNL     1       5.718   5.218  19.593  0.00  0.00    +0.000 HD
ENDROOT
BRANCH   3  16
ATOM     16  C   UNL     1       6.957   4.720  13.417  0.00  0.00    +0.000 C 
ATOM     17  O   UNL     1       6.589   3.826  12.671  0.00  0.00    +0.000 OA
BRANCH  16  18
ATOM     18  OXT UNL     1       7.921   5.609  13.083  0.00  0.00    +0.000 OA
ATOM     19  HXT UNL     1       7.612   6.499  13.381  0.00  0.00    +0.000 HD
ENDBRANCH  16  18
ENDBRANCH   3  16
BRANCH  10  20
ATOM     20  O   UNL     1       1.484   2.477  20.553  0.00  0.00    +0.000 OA
ATOM     21  C   UNL     1       1.782   3.148  21.771  0.00  0.00    +0.000 C 
ENDBRANCH  10  20
BRANCH   1  22
ATOM     22  C   UNL     1       6.947   7.074  17.461  0.00  0.00    +0.000 C 
BRANCH  22  23
ATOM     23  C   UNL     1       8.116   7.693  18.233  0.00  0.00    +0.000 C 
BRANCH  23  24
ATOM     24  C   UNL     1       8.256   9.185  17.920  0.00  0.00    +0.000 C 
BRANCH  24  25
ATOM     25  C   UNL     1       9.026   9.907  19.024  0.00  0.00    +0.000 C 
BRANCH  25  26
ATOM     26  C   UNL     1       9.483  11.296  18.581  0.00  0.00    +0.000 C 
BRANCH  26  27
ATOM     27  C   UNL     1      10.993  11.456  18.767  0.00  0.00    +0.000 C 
BRANCH  27  29
ATOM     28  C   UNL     1      10.763  13.468  17.275  0.00  0.00    +0.000 C 
ATOM     29  C   UNL     1      11.616  12.258  17.628  0.00  0.00    +0.000 C 
ENDBRANCH  27  29
ENDBRANCH  26  27
ENDBRANCH  25  26
ENDBRANCH  24  25
ENDBRANCH  23  24
ENDBRANCH  22  23
ENDBRANCH   1  22
TORSDOF 10
ENDMDL
MODEL 6
REMARK VINA RESULT:      -8.2      2.408      3.602
REMARK  Name = 
REMARK  12 active torsions:
REMARK  status: ('A' for Active; 'I' for Inactive)
REMARK    1  A    between atoms: C_1  and  C_2
REMARK    2  A    between atoms: C_2  and  C_3
REMARK    3  A    between atoms: C_3  and  C_4
REMARK    4  A    between atoms: C_4  and  C_5
REMARK    5  A    between atoms: C_5  and  C_6
REMARK    6  A    between atoms: C_6  and  C_7
REMARK    7  A    between atoms: C_7  and  C_8
REMARK    8  A    between atoms: C_8  and  C_9
REMARK    9  A    between atoms: CA_11  and  C_12
REMARK   10  A    between atoms: C_12  and  OXT_14
REMARK   11  A    between atoms: C_21  and  O_22
REMARK   12  A    between atoms: O_22  and  C_23
REMARK                            x       y       z     vdW  Elec       q    Type
REMARK                         _______ _______ _______ _____ _____    ______ ____
ROOT
ATOM      1  C   UNL     1       7.441   4.663  17.502  0.00  0.00    +0.000 C 
ATOM      2  N   UNL     1       7.755   4.621  16.042  0.00  0.00    +0.000 NA
ATOM      3  CA  UNL     1       6.529   4.779  15.160  0.00  0.00    +0.000 C 
ATOM      4  C   UNL     1       5.435   3.722  15.414  0.00  0.00    +0.000 C 
ATOM      5  C   UNL     1       5.154   3.663  16.869  0.00  0.00    +0.000 A 
ATOM      6  C   UNL     1       6.091   4.087  17.786  0.00  0.00    +0.000 A 
ATOM      7  N   UNL     1       5.557   3.905  19.035  0.00  0.00    +0.000 N 
ATOM      8  C   UNL     1       4.280   3.400  18.932  0.00  0.00    +0.000 A 
ATOM      9  C   UNL     1       3.352   3.078  19.932  0.00  0.00    +0.000 A 
ATOM     10  C   UNL     1       2.105   2.573  19.542  0.00  0.00    +0.000 A 
ATOM     11  C   UNL     1       1.806   2.405  18.190  0.00  0.00    +0.000 A 
ATOM     12  C   UNL     1       2.745   2.730  17.200  0.00  0.00    +0.000 A 
ATOM     13  C   UNL     1       4.003   3.236  17.575  0.00  0.00    +0.000 A 
ATOM     14  H   UNL     1       8.085   3.663  15.873  0.00  0.00    +0.000 HD
ATOM     15  H   UNL     1       6.010   4.130  19.911  0.00  0.00    +0.000 HD
ENDROOT
BRANCH   3  16
ATOM     16  C   UNL     1       6.977   4.682  13.691  0.00  0.00    +0.000 C 
ATOM     17  O   UNL     1       6.504   3.933  12.850  0.00  0.00    +0.000 OA
BRANCH  16  18
ATOM     18  OXT UNL     1       7.974   5.557  13.422  0.00  0.00    +0.000 OA
ATOM     19  HXT UNL     1       7.554   6.437  13.263  0.00  0.00    +0.000 HD
ENDBRANCH  16  18
ENDBRANCH   3  16
BRANCH  10  20
ATOM     20  O   UNL     1       1.268   2.283  20.587  0.00  0.00    +0.000 OA
ATOM     21  C   UNL     1       1.661   2.747  21.872  0.00  0.00    +0.000 C 
ENDBRANCH  10  20
BRANCH   1  22
ATOM     22  C   UNL     1       7.601   6.067  18.117  0.00  0.00    +0.000 C 
BRANCH  22  23
ATOM     23  C   UNL     1       6.770   7.134  17.398  0.00  0.00    +0.000 C 
BRANCH  23  24
ATOM     24  C   UNL     1       5.425   7.350  18.096  0.00  0.00    +0.000 C 
BRANCH  24  25
ATOM     25  C   UNL     1       4.263   7.094  17.139  0.00  0.00    +0.000 C 
BRANCH  25  26
ATOM     26  C   UNL     1       3.015   6.614  17.879  0.00  0.00    +0.000 C 
BRANCH  26  27
ATOM     27  C   UNL     1       2.349   7.770  18.626  0.00  0.00    +0.000 C 
BRANCH  27  29
ATOM     28  C   UNL     1       1.303  10.048  18.420  0.00  0.00    +0.000 C 
ATOM     29  C   UNL     1       2.083   8.955  17.703  0.00  0.00    +0.000 C 
ENDBRANCH  27  29
ENDBRANCH  26  27
ENDBRANCH  25  26
ENDBRANCH  24  25
ENDBRANCH  23  24
ENDBRANCH  22  23
ENDBRANCH   1  22
TORSDOF 10
ENDMDL
MODEL 7
REMARK VINA RESULT:      -8.1      4.456      7.310
REMARK  Name = 
REMARK  12 active torsions:
REMARK  status: ('A' for Active; 'I' for Inactive)
REMARK    1  A    between atoms: C_1  and  C_2
REMARK    2  A    between atoms: C_2  and  C_3
REMARK    3  A    between atoms: C_3  and  C_4
REMARK    4  A    between atoms: C_4  and  C_5
REMARK    5  A    between atoms: C_5  and  C_6
REMARK    6  A    between atoms: C_6  and  C_7
REMARK    7  A    between atoms: C_7  and  C_8
REMARK    8  A    between atoms: C_8  and  C_9
REMARK    9  A    between atoms: CA_11  and  C_12
REMARK   10  A    between atoms: C_12  and  OXT_14
REMARK   11  A    between atoms: C_21  and  O_22
REMARK   12  A    between atoms: O_22  and  C_23
REMARK                            x       y       z     vdW  Elec       q    Type
REMARK                         _______ _______ _______ _____ _____    ______ ____
ROOT
ATOM      1  C   UNL     1       4.826   4.997  17.539  0.00  0.00    +0.000 C 
ATOM      2  N   UNL     1       4.994   3.870  18.507  0.00  0.00    +0.000 NA
ATOM      3  CA  UNL     1       3.761   3.620  19.357  0.00  0.00    +0.000 C 
ATOM      4  C   UNL     1       3.304   4.847  20.173  0.00  0.00    +0.000 C 
ATOM      5  C   UNL     1       3.211   6.017  19.267  0.00  0.00    +0.000 A 
ATOM      6  C   UNL     1       3.923   6.055  18.088  0.00  0.00    +0.000 A 
ATOM      7  N   UNL     1       3.646   7.250  17.477  0.00  0.00    +0.000 N 
ATOM      8  C   UNL     1       2.741   7.965  18.230  0.00  0.00    +0.000 A 
ATOM      9  C   UNL     1       2.158   9.217  17.994  0.00  0.00    +0.000 A 
ATOM     10  C   UNL     1       1.255   9.718  18.940  0.00  0.00    +0.000 A 
ATOM     11  C   UNL     1       0.949   8.976  20.081  0.00  0.00    +0.000 A 
ATOM     12  C   UNL     1       1.541   7.725  20.306  0.00  0.00    +0.000 A 
ATOM     13  C   UNL     1       2.453   7.210  19.366  0.00  0.00    +0.000 A 
ATOM     14  H   UNL     1       5.711   4.196  19.165  0.00  0.00    +0.000 HD
ATOM     15  H   UNL     1       4.019   7.563  16.590  0.00  0.00    +0.000 HD
ENDROOT
BRANCH   3  16
ATOM     16  C   UNL     1       4.072   2.469  20.330  0.00  0.00    +0.000 C 
ATOM     17  O   UNL     1       3.471   2.230  21.365  0.00  0.00    +0.000 OA
BRANCH  16  18
ATOM     18  OXT UNL     1       5.110   1.720  19.889  0.00  0.00    +0.000 OA
ATOM     19  HXT UNL     1       5.681   2.310  19.339  0.00  0.00    +0.000 HD
ENDBRANCH  16  18
ENDBRANCH   3  16
BRANCH  10  20
ATOM     20  O   UNL     1       0.741  10.949  18.626  0.00  0.00    +0.000 OA
ATOM     21  C   UNL     1      -0.665  11.023  18.420  0.00  0.00    +0.000 C 
ENDBRANCH  10  20
BRANCH   1  22
ATOM     22  C   UNL     1       4.374   4.534  16.142  0.00  0.00    +0.000 C 
BRANCH  22  23
ATOM     23  C   UNL     1       5.366   4.911  15.037  0.00  0.00    +0.000 C 
BRANCH  23  24
ATOM     24  C   UNL     1       6.087   3.675  14.496  0.00  0.00    +0.000 C 
BRANCH  24  25
ATOM     25  C   UNL     1       6.506   3.877  13.041  0.00  0.00    +0.000 C 
BRANCH  25  26
ATOM     26  C   UNL     1       5.675   3.019  12.087  0.00  0.00    +0.000 C 
BRANCH  26  27
ATOM     27  C   UNL     1       4.340   3.694  11.774  0.00  0.00    +0.000 C 
BRANCH  27  29
ATOM     28  C   UNL     1       2.984   4.042   9.684  0.00  0.00    +0.000 C 
ATOM     29  C   UNL     1       3.631   3.017  10.604  0.00  0.00    +0.000 C 
ENDBRANCH  27  29
ENDBRANCH  26  27
ENDBRANCH  25  26
ENDBRANCH  24  25
ENDBRANCH  23  24
ENDBRANCH  22  23
ENDBRANCH   1  22
TORSDOF 10
ENDMDL
MODEL 8
REMARK VINA RESULT:      -7.9      3.671      6.360
REMARK  Name = 
REMARK  12 active torsions:
REMARK  status: ('A' for Active; 'I' for Inactive)
REMARK    1  A    between atoms: C_1  and  C_2
REMARK    2  A    between atoms: C_2  and  C_3
REMARK    3  A    between atoms: C_3  and  C_4
REMARK    4  A    between atoms: C_4  and  C_5
REMARK    5  A    between atoms: C_5  and  C_6
REMARK    6  A    between atoms: C_6  and  C_7
REMARK    7  A    between atoms: C_7  and  C_8
REMARK    8  A    between atoms: C_8  and  C_9
REMARK    9  A    between atoms: CA_11  and  C_12
REMARK   10  A    between atoms: C_12  and  OXT_14
REMARK   11  A    between atoms: C_21  and  O_22
REMARK   12  A    between atoms: O_22  and  C_23
REMARK                            x       y       z     vdW  Elec       q    Type
REMARK                         _______ _______ _______ _____ _____    ______ ____
ROOT
ATOM      1  C   UNL     1       4.012   4.767  18.602  0.00  0.00    +0.000 C 
ATOM      2  N   UNL     1       3.853   3.754  19.689  0.00  0.00    +0.000 NA
ATOM      3  CA  UNL     1       2.493   3.804  20.361  0.00  0.00    +0.000 C 
ATOM      4  C   UNL     1       2.147   5.176  20.974  0.00  0.00    +0.000 C 
ATOM      5  C   UNL     1       2.379   6.228  19.956  0.00  0.00    +0.000 A 
ATOM      6  C   UNL     1       3.239   6.012  18.901  0.00  0.00    +0.000 A 
ATOM      7  N   UNL     1       3.256   7.152  18.141  0.00  0.00    +0.000 N 
ATOM      8  C   UNL     1       2.394   8.085  18.675  0.00  0.00    +0.000 A 
ATOM      9  C   UNL     1       2.071   9.375  18.231  0.00  0.00    +0.000 A 
ATOM     10  C   UNL     1       1.149  10.121  18.975  0.00  0.00    +0.000 A 
ATOM     11  C   UNL     1       0.570   9.580  20.124  0.00  0.00    +0.000 A 
ATOM     12  C   UNL     1       0.904   8.288  20.557  0.00  0.00    +0.000 A 
ATOM     13  C   UNL     1       1.831   7.527  19.822  0.00  0.00    +0.000 A 
ATOM     14  H   UNL     1       4.521   4.041  20.414  0.00  0.00    +0.000 HD
ATOM     15  H   UNL     1       3.792   7.293  17.296  0.00  0.00    +0.000 HD
ENDROOT
BRANCH   3  16
ATOM     16  C   UNL     1       2.468   2.744  21.477  0.00  0.00    +0.000 C 
ATOM     17  O   UNL     1       1.512   2.484  22.191  0.00  0.00    +0.000 OA
BRANCH  16  18
ATOM     18  OXT UNL     1       3.657   2.104  21.574  0.00  0.00    +0.000 OA
ATOM     19  HXT UNL     1       3.960   1.913  20.653  0.00  0.00    +0.000 HD
ENDBRANCH  16  18
ENDBRANCH   3  16
BRANCH  10  20
ATOM     20  O   UNL     1       0.901  11.370  18.469  0.00  0.00    +0.000 OA
ATOM     21  C   UNL     1       1.970  12.306  18.519  0.00  0.00    +0.000 C 
ENDBRANCH  10  20
BRANCH   1  22
ATOM     22  C   UNL     1       3.680   4.214  17.203  0.00  0.00    +0.000 C 
BRANCH  22  23
ATOM     23  C   UNL     1       4.657   4.690  16.124  0.00  0.00    +0.000 C 
BRANCH  23  24
ATOM     24  C   UNL     1       5.937   3.852  16.129  0.00  0.00    +0.000 C 
BRANCH  24  25
ATOM     25  C   UNL     1       7.160   4.721  16.418  0.00  0.00    +0.000 C 
BRANCH  25  26
ATOM     26  C   UNL     1       7.565   4.655  17.891  0.00  0.00    +0.000 C 
BRANCH  26  27
ATOM     27  C   UNL     1       7.753   6.060  18.465  0.00  0.00    +0.000 C 
BRANCH  27  29
ATOM     28  C   UNL     1       7.948   8.475  17.787  0.00  0.00    +0.000 C 
ATOM     29  C   UNL     1       7.298   7.133  17.479  0.00  0.00    +0.000 C 
ENDBRANCH  27  29
ENDBRANCH  26  27
ENDBRANCH  25  26
ENDBRANCH  24  25
ENDBRANCH  23  24
ENDBRANCH  22  23
ENDBRANCH   1  22
TORSDOF 10
ENDMDL
MODEL 9
REMARK VINA RESULT:      -7.8      2.609      3.756
REMARK  Name = 
REMARK  12 active torsions:
REMARK  status: ('A' for Active; 'I' for Inactive)
REMARK    1  A    between atoms: C_1  and  C_2
REMARK    2  A    between atoms: C_2  and  C_3
REMARK    3  A    between atoms: C_3  and  C_4
REMARK    4  A    between atoms: C_4  and  C_5
REMARK    5  A    between atoms: C_5  and  C_6
REMARK    6  A    between atoms: C_6  and  C_7
REMARK    7  A    between atoms: C_7  and  C_8
REMARK    8  A    between atoms: C_8  and  C_9
REMARK    9  A    between atoms: CA_11  and  C_12
REMARK   10  A    between atoms: C_12  and  OXT_14
REMARK   11  A    between atoms: C_21  and  O_22
REMARK   12  A    between atoms: O_22  and  C_23
REMARK                            x       y       z     vdW  Elec       q    Type
REMARK                         _______ _______ _______ _____ _____    ______ ____
ROOT
ATOM      1  C   UNL     1       7.468   4.560  17.462  0.00  0.00    +0.000 C 
ATOM      2  N   UNL     1       7.751   4.553  15.994  0.00  0.00    +0.000 NA
ATOM      3  CA  UNL     1       6.512   4.767  15.143  0.00  0.00    +0.000 C 
ATOM      4  C   UNL     1       5.398   3.730  15.388  0.00  0.00    +0.000 C 
ATOM      5  C   UNL     1       5.144   3.635  16.845  0.00  0.00    +0.000 A 
ATOM      6  C   UNL     1       6.109   4.008  17.756  0.00  0.00    +0.000 A 
ATOM      7  N   UNL     1       5.596   3.802  19.010  0.00  0.00    +0.000 N 
ATOM      8  C   UNL     1       4.304   3.331  18.918  0.00  0.00    +0.000 A 
ATOM      9  C   UNL     1       3.389   3.002  19.926  0.00  0.00    +0.000 A 
ATOM     10  C   UNL     1       2.122   2.540  19.547  0.00  0.00    +0.000 A 
ATOM     11  C   UNL     1       1.792   2.420  18.197  0.00  0.00    +0.000 A 
ATOM     12  C   UNL     1       2.719   2.751  17.198  0.00  0.00    +0.000 A 
ATOM     13  C   UNL     1       3.997   3.214  17.563  0.00  0.00    +0.000 A 
ATOM     14  H   UNL     1       8.054   3.593  15.791  0.00  0.00    +0.000 HD
ATOM     15  H   UNL     1       6.071   3.989  19.882  0.00  0.00    +0.000 HD
ENDROOT
BRANCH   3  16
ATOM     16  C   UNL     1       6.929   4.704  13.663  0.00  0.00    +0.000 C 
ATOM     17  O   UNL     1       7.742   5.435  13.120  0.00  0.00    +0.000 OA
BRANCH  16  18
ATOM     18  OXT UNL     1       6.284   3.707  13.013  0.00  0.00    +0.000 OA
ATOM     19  HXT UNL     1       6.974   3.081  12.682  0.00  0.00    +0.000 HD
ENDBRANCH  16  18
ENDBRANCH   3  16
BRANCH  10  20
ATOM     20  O   UNL     1       1.299   2.238  20.600  0.00  0.00    +0.000 OA
ATOM     21  C   UNL     1       1.736   2.640  21.892  0.00  0.00    +0.000 C 
ENDBRANCH  10  20
BRANCH   1  22
ATOM     22  C   UNL     1       7.674   5.939  18.114  0.00  0.00    +0.000 C 
BRANCH  22  23
ATOM     23  C   UNL     1       6.359   6.618  18.510  0.00  0.00    +0.000 C 
BRANCH  23  24
ATOM     24  C   UNL     1       5.724   7.332  17.315  0.00  0.00    +0.000 C 
BRANCH  24  25
ATOM     25  C   UNL     1       4.244   6.975  17.187  0.00  0.00    +0.000 C 
BRANCH  25  26
ATOM     26  C   UNL     1       3.343   8.149  17.573  0.00  0.00    +0.000 C 
BRANCH  26  27
ATOM     27  C   UNL     1       2.260   7.701  18.555  0.00  0.00    +0.000 C 
BRANCH  27  29
ATOM     28  C   UNL     1       1.739   6.201  20.505  0.00  0.00    +0.000 C 
ATOM     29  C   UNL     1       2.705   6.486  19.364  0.00  0.00    +0.000 C 
ENDBRANCH  27  29
ENDBRANCH  26  27
ENDBRANCH  25  26
ENDBRANCH  24  25
ENDBRANCH  23  24
ENDBRANCH  22  23
ENDBRANCH   1  22
TORSDOF 10
ENDMDL
