MODEL 1
REMARK VINA RESULT:      -7.4      0.000      0.000
REMARK  Name = 
REMARK  4 active torsions:
REMARK  status: ('A' for Active; 'I' for Inactive)
REMARK    1  A    between atoms: C_2  and  C_3
REMARK    2  A    between atoms: C_3  and  C_4
REMARK    3  A    between atoms: C_7  and  C_8
REMARK    4  A    between atoms: N_16  and  C_17
REMARK                            x       y       z     vdW  Elec       q    Type
REMARK                         _______ _______ _______ _____ _____    ______ ____
ROOT
ATOM      1  C   UNL     1       1.290   9.336  19.720  0.00  0.00    +0.000 A 
ATOM      2  C   UNL     1       1.758   9.145  18.416  0.00  0.00    +0.000 A 
ATOM      3  C   UNL     1       2.260   7.904  18.016  0.00  0.00    +0.000 A 
ATOM      4  C   UNL     1       2.378   6.828  18.913  0.00  0.00    +0.000 A 
ATOM      5  C   UNL     1       1.931   7.047  20.230  0.00  0.00    +0.000 A 
ATOM      6  C   UNL     1       1.386   8.275  20.626  0.00  0.00    +0.000 A 
ENDROOT
BRANCH   4   7
ATOM      7  C   UNL     1       2.962   5.534  18.475  0.00  0.00    +0.000 A 
ATOM      8  C   UNL     1       2.191   4.602  17.754  0.00  0.00    +0.000 A 
ATOM      9  C   UNL     1       2.713   3.370  17.346  0.00  0.00    +0.000 A 
ATOM     10  C   UNL     1       4.033   3.047  17.635  0.00  0.00    +0.000 A 
ATOM     11  C   UNL     1       4.825   3.952  18.336  0.00  0.00    +0.000 A 
ATOM     12  C   UNL     1       4.294   5.179  18.756  0.00  0.00    +0.000 A 
ENDBRANCH   4   7
BRANCH   1  13
ATOM     13  C   UNL     1       0.649  10.651  20.111  0.00  0.00    +0.000 C 
BRANCH  13  15
ATOM     14  O   UNL     1       0.262  12.465  18.570  0.00  0.00    +0.000 OA
ATOM     15  C   UNL     1      -0.125  11.386  19.010  0.00  0.00    +0.000 C 
ATOM     16  N   UNL     1      -1.248  10.762  18.525  0.00  0.00    +0.000 N 
ATOM     17  H   UNL     1      -1.661  10.019  19.087  0.00  0.00    +0.000 HD
BRANCH  16  18
ATOM     18  C   UNL     1      -2.108  11.311  17.493  0.00  0.00    +0.000 C 
ATOM     19  C   UNL     1      -2.463  10.327  16.380  0.00  0.00    +0.000 C 
ATOM     20  C   UNL     1      -3.712  10.854  15.695  0.00  0.00    +0.000 C 
ATOM     21  S   UNL     1      -4.790  11.373  17.055  0.00  0.00    +0.000 S 
ATOM     22  C   UNL     1      -3.444  11.673  18.140  0.00  0.00    +0.000 C 
ATOM     23  O   UNL     1      -3.580  12.104  19.277  0.00  0.00    +0.000 OA
ENDBRANCH  16  18
ENDBRANCH  13  15
ENDBRANCH   1  13
TORSDOF 4
ENDMDL
MODEL 2
REMARK VINA RESULT:      -7.4      6.873      8.701
REMARK  Name = 
REMARK  4 active torsions:
REMARK  status: ('A' for Active; 'I' for Inactive)
REMARK    1  A    between atoms: C_2  and  C_3
REMARK    2  A    between atoms: C_3  and  C_4
REMARK    3  A    between atoms: C_7  and  C_8
REMARK    4  A    between atoms: N_16  and  C_17
REMARK                            x       y       z     vdW  Elec       q    Type
REMARK                         _______ _______ _______ _____ _____    ______ ____
ROOT
ATOM      1  C   UNL     1       6.859   6.717  17.931  0.00  0.00    +0.000 A 
ATOM      2  C   UNL     1       5.669   6.928  17.228  0.00  0.00    +0.000 A 
ATOM      3  C   UNL     1       4.494   6.273  17.606  0.00  0.00    +0.000 A 
ATOM      4  C   UNL     1       4.472   5.334  18.652  0.00  0.00    +0.000 A 
ATOM      5  C   UNL     1       5.686   5.111  19.330  0.00  0.00    +0.000 A 
ATOM      6  C   UNL     1       6.857   5.797  18.985  0.00  0.00    +0.000 A 
ENDROOT
BRANCH   4   7
ATOM      7  C   UNL     1       3.221   4.614  19.001  0.00  0.00    +0.000 A 
ATOM      8  C   UNL     1       2.616   3.733  18.085  0.00  0.00    +0.000 A 
ATOM      9  C   UNL     1       1.429   3.057  18.383  0.00  0.00    +0.000 A 
ATOM     10  C   UNL     1       0.824   3.233  19.621  0.00  0.00    +0.000 A 
ATOM     11  C   UNL     1       1.404   4.088  20.554  0.00  0.00    +0.000 A 
ATOM     12  C   UNL     1       2.585   4.775  20.246  0.00  0.00    +0.000 A 
ENDBRANCH   4   7
BRANCH   1  13
ATOM     13  C   UNL     1       8.099   7.513  17.582  0.00  0.00    +0.000 C 
BRANCH  13  15
ATOM     14  O   UNL     1       7.293   9.783  17.477  0.00  0.00    +0.000 OA
ATOM     15  C   UNL     1       8.091   8.994  17.977  0.00  0.00    +0.000 C 
ATOM     16  N   UNL     1       8.995   9.382  18.934  0.00  0.00    +0.000 N 
ATOM     17  H   UNL     1       9.786   8.767  19.119  0.00  0.00    +0.000 HD
BRANCH  16  18
ATOM     18  C   UNL     1       9.139  10.741  19.423  0.00  0.00    +0.000 C 
ATOM     19  C   UNL     1       9.384  10.846  20.926  0.00  0.00    +0.000 C 
ATOM     20  C   UNL     1       9.996  12.211  21.188  0.00  0.00    +0.000 C 
ATOM     21  S   UNL     1      11.234  12.412  19.880  0.00  0.00    +0.000 S 
ATOM     22  C   UNL     1      10.385  11.343  18.777  0.00  0.00    +0.000 C 
ATOM     23  O   UNL     1      10.770  11.108  17.639  0.00  0.00    +0.000 OA
ENDBRANCH  16  18
ENDBRANCH  13  15
ENDBRANCH   1  13
TORSDOF 4
ENDMDL
MODEL 3
REMARK VINA RESULT:      -7.4      6.516      8.279
REMARK  Name = 
REMARK  4 active torsions:
REMARK  status: ('A' for Active; 'I' for Inactive)
REMARK    1  A    between atoms: C_2  and  C_3
REMARK    2  A    between atoms: C_3  and  C_4
REMARK    3  A    between atoms: C_7  and  C_8
REMARK    4  A    between atoms: N_16  and  C_17
REMARK                            x       y       z     vdW  Elec       q    Type
REMARK                         _______ _______ _______ _____ _____    ______ ____
ROOT
ATOM      1  C   UNL     1       6.401   6.817  17.570  0.00  0.00    +0.000 A 
ATOM      2  C   UNL     1       6.540   5.802  18.521  0.00  0.00    +0.000 A 
ATOM      3  C   UNL     1       5.433   5.051  18.925  0.00  0.00    +0.000 A 
ATOM      4  C   UNL     1       4.138   5.324  18.450  0.00  0.00    +0.000 A 
ATOM      5  C   UNL     1       4.012   6.371  17.516  0.00  0.00    +0.000 A 
ATOM      6  C   UNL     1       5.124   7.099  17.074  0.00  0.00    +0.000 A 
ENDROOT
BRANCH   4   7
ATOM      7  C   UNL     1       2.971   4.544  18.933  0.00  0.00    +0.000 A 
ATOM      8  C   UNL     1       2.348   3.590  18.105  0.00  0.00    +0.000 A 
ATOM      9  C   UNL     1       1.237   2.855  18.531  0.00  0.00    +0.000 A 
ATOM     10  C   UNL     1       0.730   3.044  19.810  0.00  0.00    +0.000 A 
ATOM     11  C   UNL     1       1.331   3.971  20.658  0.00  0.00    +0.000 A 
ATOM     12  C   UNL     1       2.434   4.717  20.222  0.00  0.00    +0.000 A 
ENDBRANCH   4   7
BRANCH   1  13
ATOM     13  C   UNL     1       7.624   7.552  17.060  0.00  0.00    +0.000 C 
BRANCH  13  15
ATOM     14  O   UNL     1       8.723   8.242  19.093  0.00  0.00    +0.000 OA
ATOM     15  C   UNL     1       8.247   8.580  18.012  0.00  0.00    +0.000 C 
ATOM     16  N   UNL     1       8.269   9.883  17.583  0.00  0.00    +0.000 N 
ATOM     17  H   UNL     1       7.645  10.145  16.822  0.00  0.00    +0.000 HD
BRANCH  16  18
ATOM     18  C   UNL     1       8.806  10.990  18.354  0.00  0.00    +0.000 C 
ATOM     19  C   UNL     1      10.327  10.978  18.495  0.00  0.00    +0.000 C 
ATOM     20  C   UNL     1      10.756  12.390  18.856  0.00  0.00    +0.000 C 
ATOM     21  S   UNL     1       9.787  13.454  17.757  0.00  0.00    +0.000 S 
ATOM     22  C   UNL     1       8.491  12.282  17.602  0.00  0.00    +0.000 C 
ATOM     23  O   UNL     1       7.473  12.487  16.953  0.00  0.00    +0.000 OA
ENDBRANCH  16  18
ENDBRANCH  13  15
ENDBRANCH   1  13
TORSDOF 4
ENDMDL
MODEL 4
REMARK VINA RESULT:      -7.4      0.929      1.231
REMARK  Name = 
REMARK  4 active torsions:
REMARK  status: ('A' for Active; 'I' for Inactive)
REMARK    1  A    between atoms: C_2  and  C_3
REMARK    2  A    between atoms: C_3  and  C_4
REMARK    3  A    between atoms: C_7  and  C_8
REMARK    4  A    between atoms: N_16  and  C_17
REMARK                            x       y       z     vdW  Elec       q    Type
REMARK                         _______ _______ _______ _____ _____    ______ ____
ROOT
ATOM      1  C   UNL     1       1.102   9.276  19.719  0.00  0.00    +0.000 A 
ATOM      2  C   UNL     1       1.509   9.369  18.385  0.00  0.00    +0.000 A 
ATOM      3  C   UNL     1       2.206   8.321  17.780  0.00  0.00    +0.000 A 
ATOM      4  C   UNL     1       2.584   7.171  18.496  0.00  0.00    +0.000 A 
ATOM      5  C   UNL     1       2.193   7.107  19.847  0.00  0.00    +0.000 A 
ATOM      6  C   UNL     1       1.456   8.135  20.448  0.00  0.00    +0.000 A 
ENDROOT
BRANCH   4   7
ATOM      7  C   UNL     1       3.370   6.093  17.842  0.00  0.00    +0.000 A 
ATOM      8  C   UNL     1       4.546   6.390  17.127  0.00  0.00    +0.000 A 
ATOM      9  C   UNL     1       5.293   5.395  16.488  0.00  0.00    +0.000 A 
ATOM     10  C   UNL     1       4.890   4.068  16.566  0.00  0.00    +0.000 A 
ATOM     11  C   UNL     1       3.738   3.740  17.276  0.00  0.00    +0.000 A 
ATOM     12  C   UNL     1       2.983   4.742  17.902  0.00  0.00    +0.000 A 
ENDBRANCH   4   7
BRANCH   1  13
ATOM     13  C   UNL     1       0.253  10.370  20.333  0.00  0.00    +0.000 C 
BRANCH  13  15
ATOM     14  O   UNL     1      -0.209  12.418  19.147  0.00  0.00    +0.000 OA
ATOM     15  C   UNL     1      -0.532  11.251  19.354  0.00  0.00    +0.000 C 
ATOM     16  N   UNL     1      -1.588  10.662  18.705  0.00  0.00    +0.000 N 
ATOM     17  H   UNL     1      -1.966   9.800  19.095  0.00  0.00    +0.000 HD
BRANCH  16  18
ATOM     18  C   UNL     1      -2.449  11.343  17.755  0.00  0.00    +0.000 C 
ATOM     19  C   UNL     1      -2.937  10.464  16.606  0.00  0.00    +0.000 C 
ATOM     20  C   UNL     1      -4.169  11.132  16.021  0.00  0.00    +0.000 C 
ATOM     21  S   UNL     1      -5.134  11.647  17.465  0.00  0.00    +0.000 S 
ATOM     22  C   UNL     1      -3.717  11.768  18.492  0.00  0.00    +0.000 C 
ATOM     23  O   UNL     1      -3.763  12.135  19.660  0.00  0.00    +0.000 OA
ENDBRANCH  16  18
ENDBRANCH  13  15
ENDBRANCH   1  13
TORSDOF 4
ENDMDL
MODEL 5
REMARK VINA RESULT:      -7.4      3.971      5.927
REMARK  Name = 
REMARK  4 active torsions:
REMARK  status: ('A' for Active; 'I' for Inactive)
REMARK    1  A    between atoms: C_2  and  C_3
REMARK    2  A    between atoms: C_3  and  C_4
REMARK    3  A    between atoms: C_7  and  C_8
REMARK    4  A    between atoms: N_16  and  C_17
REMARK                            x       y       z     vdW  Elec       q    Type
REMARK                         _______ _______ _______ _____ _____    ______ ____
ROOT
ATOM      1  C   UNL     1       4.472   5.136  18.385  0.00  0.00    +0.000 A 
ATOM      2  C   UNL     1       4.379   3.896  17.745  0.00  0.00    +0.000 A 
ATOM      3  C   UNL     1       4.938   3.706  16.479  0.00  0.00    +0.000 A 
ATOM      4  C   UNL     1       5.551   4.756  15.774  0.00  0.00    +0.000 A 
ATOM      5  C   UNL     1       5.609   6.006  16.420  0.00  0.00    +0.000 A 
ATOM      6  C   UNL     1       5.089   6.192  17.707  0.00  0.00    +0.000 A 
ENDROOT
BRANCH   4   7
ATOM      7  C   UNL     1       6.093   4.540  14.408  0.00  0.00    +0.000 A 
ATOM      8  C   UNL     1       5.455   3.665  13.508  0.00  0.00    +0.000 A 
ATOM      9  C   UNL     1       5.955   3.431  12.224  0.00  0.00    +0.000 A 
ATOM     10  C   UNL     1       7.104   4.087  11.798  0.00  0.00    +0.000 A 
ATOM     11  C   UNL     1       7.752   4.968  12.659  0.00  0.00    +0.000 A 
ATOM     12  C   UNL     1       7.256   5.188  13.951  0.00  0.00    +0.000 A 
ENDBRANCH   4   7
BRANCH   1  13
ATOM     13  C   UNL     1       3.958   5.300  19.800  0.00  0.00    +0.000 C 
BRANCH  13  15
ATOM     14  O   UNL     1       1.552   5.246  19.961  0.00  0.00    +0.000 OA
ATOM     15  C   UNL     1       2.570   5.934  19.951  0.00  0.00    +0.000 C 
ATOM     16  N   UNL     1       2.528   7.298  20.101  0.00  0.00    +0.000 N 
ATOM     17  H   UNL     1       3.352   7.833  19.829  0.00  0.00    +0.000 HD
BRANCH  16  18
ATOM     18  C   UNL     1       1.306   8.069  20.245  0.00  0.00    +0.000 C 
ATOM     19  C   UNL     1       1.176   8.796  21.581  0.00  0.00    +0.000 C 
ATOM     20  C   UNL     1       0.160   9.909  21.389  0.00  0.00    +0.000 C 
ATOM     21  S   UNL     1       0.599  10.655  19.798  0.00  0.00    +0.000 S 
ATOM     22  C   UNL     1       1.324   9.176  19.193  0.00  0.00    +0.000 C 
ATOM     23  O   UNL     1       1.797   9.070  18.068  0.00  0.00    +0.000 OA
ENDBRANCH  16  18
ENDBRANCH  13  15
ENDBRANCH   1  13
TORSDOF 4
ENDMDL
MODEL 6
REMARK VINA RESULT:      -7.4      0.316      1.070
REMARK  Name = 
REMARK  4 active torsions:
REMARK  status: ('A' for Active; 'I' for Inactive)
REMARK    1  A    between atoms: C_2  and  C_3
REMARK    2  A    between atoms: C_3  and  C_4
REMARK    3  A    between atoms: C_7  and  C_8
REMARK    4  A    between atoms: N_16  and  C_17
REMARK                            x       y       z     vdW  Elec       q    Type
REMARK                         _______ _______ _______ _____ _____    ______ ____
ROOT
ATOM      1  C   UNL     1       1.319   9.275  19.649  0.00  0.00    +0.000 A 
ATOM      2  C   UNL     1       1.359   8.264  20.613  0.00  0.00    +0.000 A 
ATOM      3  C   UNL     1       1.897   7.011  20.308  0.00  0.00    +0.000 A 
ATOM      4  C   UNL     1       2.353   6.695  19.016  0.00  0.00    +0.000 A 
ATOM      5  C   UNL     1       2.278   7.715  18.049  0.00  0.00    +0.000 A 
ATOM      6  C   UNL     1       1.779   8.987  18.360  0.00  0.00    +0.000 A 
ENDROOT
BRANCH   4   7
ATOM      7  C   UNL     1       2.875   5.340  18.705  0.00  0.00    +0.000 A 
ATOM      8  C   UNL     1       2.256   4.535  17.729  0.00  0.00    +0.000 A 
ATOM      9  C   UNL     1       2.716   3.249  17.431  0.00  0.00    +0.000 A 
ATOM     10  C   UNL     1       3.827   2.740  18.092  0.00  0.00    +0.000 A 
ATOM     11  C   UNL     1       4.469   3.516  19.054  0.00  0.00    +0.000 A 
ATOM     12  C   UNL     1       3.995   4.798  19.361  0.00  0.00    +0.000 A 
ENDBRANCH   4   7
BRANCH   1  13
ATOM     13  C   UNL     1       0.833  10.661  20.021  0.00  0.00    +0.000 C 
BRANCH  13  15
ATOM     14  O   UNL     1       0.330  12.508  18.554  0.00  0.00    +0.000 OA
ATOM     15  C   UNL     1       0.002  11.397  18.964  0.00  0.00    +0.000 C 
ATOM     16  N   UNL     1      -1.103  10.741  18.482  0.00  0.00    +0.000 N 
ATOM     17  H   UNL     1      -1.470   9.961  19.027  0.00  0.00    +0.000 HD
BRANCH  16  18
ATOM     18  C   UNL     1      -2.012  11.286  17.490  0.00  0.00    +0.000 C 
ATOM     19  C   UNL     1      -2.401  10.304  16.387  0.00  0.00    +0.000 C 
ATOM     20  C   UNL     1      -3.683  10.821  15.757  0.00  0.00    +0.000 C 
ATOM     21  S   UNL     1      -4.710  11.319  17.163  0.00  0.00    +0.000 S 
ATOM     22  C   UNL     1      -3.324  11.628  18.193  0.00  0.00    +0.000 C 
ATOM     23  O   UNL     1      -3.418  12.051  19.339  0.00  0.00    +0.000 OA
ENDBRANCH  16  18
ENDBRANCH  13  15
ENDBRANCH   1  13
TORSDOF 4
ENDMDL
MODEL 7
REMARK VINA RESULT:      -7.4      0.861      1.583
REMARK  Name = 
REMARK  4 active torsions:
REMARK  status: ('A' for Active; 'I' for Inactive)
REMARK    1  A    between atoms: C_2  and  C_3
REMARK    2  A    between atoms: C_3  and  C_4
REMARK    3  A    between atoms: C_7  and  C_8
REMARK    4  A    between atoms: N_16  and  C_17
REMARK                            x       y       z     vdW  Elec       q    Type
REMARK                         _______ _______ _______ _____ _____    ______ ____
ROOT
ATOM      1  C   UNL     1       1.316   9.280  19.447  0.00  0.00    +0.000 A 
ATOM      2  C   UNL     1       1.570   8.123  20.190  0.00  0.00    +0.000 A 
ATOM      3  C   UNL     1       2.321   7.079  19.645  0.00  0.00    +0.000 A 
ATOM      4  C   UNL     1       2.789   7.116  18.320  0.00  0.00    +0.000 A 
ATOM      5  C   UNL     1       2.498   8.275  17.576  0.00  0.00    +0.000 A 
ATOM      6  C   UNL     1       1.783   9.344  18.131  0.00  0.00    +0.000 A 
ENDROOT
BRANCH   4   7
ATOM      7  C   UNL     1       3.542   5.971  17.748  0.00  0.00    +0.000 A 
ATOM      8  C   UNL     1       4.789   6.167  17.123  0.00  0.00    +0.000 A 
ATOM      9  C   UNL     1       5.509   5.108  16.561  0.00  0.00    +0.000 A 
ATOM     10  C   UNL     1       5.005   3.815  16.628  0.00  0.00    +0.000 A 
ATOM     11  C   UNL     1       3.780   3.586  17.250  0.00  0.00    +0.000 A 
ATOM     12  C   UNL     1       3.055   4.652  17.798  0.00  0.00    +0.000 A 
ENDBRANCH   4   7
BRANCH   1  13
ATOM     13  C   UNL     1       0.594  10.449  20.085  0.00  0.00    +0.000 C 
BRANCH  13  15
ATOM     14  O   UNL     1      -0.016  12.516  19.002  0.00  0.00    +0.000 OA
ATOM     15  C   UNL     1      -0.253  11.319  19.149  0.00  0.00    +0.000 C 
ATOM     16  N   UNL     1      -1.263  10.688  18.467  0.00  0.00    +0.000 N 
ATOM     17  H   UNL     1      -1.577   9.782  18.811  0.00  0.00    +0.000 HD
BRANCH  16  18
ATOM     18  C   UNL     1      -2.170  11.352  17.548  0.00  0.00    +0.000 C 
ATOM     19  C   UNL     1      -2.580  10.504  16.346  0.00  0.00    +0.000 C 
ATOM     20  C   UNL     1      -3.859  11.104  15.788  0.00  0.00    +0.000 C 
ATOM     21  S   UNL     1      -4.870  11.457  17.249  0.00  0.00    +0.000 S 
ATOM     22  C   UNL     1      -3.473  11.631  18.296  0.00  0.00    +0.000 C 
ATOM     23  O   UNL     1      -3.554  11.925  19.482  0.00  0.00    +0.000 OA
ENDBRANCH  16  18
ENDBRANCH  13  15
ENDBRANCH   1  13
TORSDOF 4
ENDMDL
MODEL 8
REMARK VINA RESULT:      -7.4      6.230      8.673
REMARK  Name = 
REMARK  4 active torsions:
REMARK  status: ('A' for Active; 'I' for Inactive)
REMARK    1  A    between atoms: C_2  and  C_3
REMARK    2  A    between atoms: C_3  and  C_4
REMARK    3  A    between atoms: C_7  and  C_8
REMARK    4  A    between atoms: N_16  and  C_17
REMARK                            x       y       z     vdW  Elec       q    Type
REMARK                         _______ _______ _______ _____ _____    ______ ____
ROOT
ATOM      1  C   UNL     1       7.202   5.741  17.757  0.00  0.00    +0.000 A 
ATOM      2  C   UNL     1       6.887   6.800  16.900  0.00  0.00    +0.000 A 
ATOM      3  C   UNL     1       7.404   8.078  17.129  0.00  0.00    +0.000 A 
ATOM      4  C   UNL     1       8.196   8.366  18.254  0.00  0.00    +0.000 A 
ATOM      5  C   UNL     1       8.478   7.296  19.124  0.00  0.00    +0.000 A 
ATOM      6  C   UNL     1       7.999   6.003  18.876  0.00  0.00    +0.000 A 
ENDROOT
BRANCH   4   7
ATOM      7  C   UNL     1       8.691   9.744  18.502  0.00  0.00    +0.000 A 
ATOM      8  C   UNL     1       9.456  10.042  19.646  0.00  0.00    +0.000 A 
ATOM      9  C   UNL     1       9.918  11.335  19.911  0.00  0.00    +0.000 A 
ATOM     10  C   UNL     1       9.642  12.365  19.021  0.00  0.00    +0.000 A 
ATOM     11  C   UNL     1       8.898  12.101  17.873  0.00  0.00    +0.000 A 
ATOM     12  C   UNL     1       8.424  10.808  17.620  0.00  0.00    +0.000 A 
ENDBRANCH   4   7
BRANCH   1  13
ATOM     13  C   UNL     1       6.725   4.339  17.439  0.00  0.00    +0.000 C 
BRANCH  13  15
ATOM     14  O   UNL     1       4.763   4.135  16.052  0.00  0.00    +0.000 OA
ATOM     15  C   UNL     1       5.222   4.172  17.191  0.00  0.00    +0.000 C 
ATOM     16  N   UNL     1       4.426   4.036  18.301  0.00  0.00    +0.000 N 
ATOM     17  H   UNL     1       4.807   4.328  19.199  0.00  0.00    +0.000 HD
BRANCH  16  18
ATOM     18  C   UNL     1       2.983   3.879  18.260  0.00  0.00    +0.000 C 
ATOM     19  C   UNL     1       2.509   2.428  18.222  0.00  0.00    +0.000 C 
ATOM     20  C   UNL     1       1.061   2.416  18.682  0.00  0.00    +0.000 C 
ATOM     21  S   UNL     1       1.032   3.520  20.118  0.00  0.00    +0.000 S 
ATOM     22  C   UNL     1       2.413   4.447  19.558  0.00  0.00    +0.000 C 
ATOM     23  O   UNL     1       2.859   5.417  20.157  0.00  0.00    +0.000 OA
ENDBRANCH  16  18
ENDBRANCH  13  15
ENDBRANCH   1  13
TORSDOF 4
ENDMDL
MODEL 9
REMARK VINA RESULT:      -7.3      6.796      9.045
REMARK  Name = 
REMARK  4 active torsions:
REMARK  status: ('A' for Active; 'I' for Inactive)
REMARK    1  A    between atoms: C_2  and  C_3
REMARK    2  A    between atoms: C_3  and  C_4
REMARK    3  A    between atoms: C_7  and  C_8
REMARK    4  A    between atoms: N_16  and  C_17
REMARK                            x       y       z     vdW  Elec       q    Type
REMARK                         _______ _______ _______ _____ _____    ______ ____
ROOT
ATOM      1  C   UNL     1       7.052   5.926  17.854  0.00  0.00    +0.000 A 
ATOM      2  C   UNL     1       6.686   7.021  17.066  0.00  0.00    +0.000 A 
ATOM      3  C   UNL     1       7.266   8.275  17.276  0.00  0.00    +0.000 A 
ATOM      4  C   UNL     1       8.180   8.502  18.320  0.00  0.00    +0.000 A 
ATOM      5  C   UNL     1       8.514   7.396  19.124  0.00  0.00    +0.000 A 
ATOM      6  C   UNL     1       7.969   6.127  18.891  0.00  0.00    +0.000 A 
ENDROOT
BRANCH   4   7
ATOM      7  C   UNL     1       8.744   9.856  18.555  0.00  0.00    +0.000 A 
ATOM      8  C   UNL     1       8.507  10.904  17.645  0.00  0.00    +0.000 A 
ATOM      9  C   UNL     1       9.042  12.182  17.834  0.00  0.00    +0.000 A 
ATOM     10  C   UNL     1       9.816  12.450  18.956  0.00  0.00    +0.000 A 
ATOM     11  C   UNL     1      10.059  11.438  19.881  0.00  0.00    +0.000 A 
ATOM     12  C   UNL     1       9.535  10.155  19.680  0.00  0.00    +0.000 A 
ENDBRANCH   4   7
BRANCH   1  13
ATOM     13  C   UNL     1       6.497   4.550  17.547  0.00  0.00    +0.000 C 
BRANCH  13  15
ATOM     14  O   UNL     1       4.092   4.705  17.603  0.00  0.00    +0.000 OA
ATOM     15  C   UNL     1       5.107   4.235  18.111  0.00  0.00    +0.000 C 
ATOM     16  N   UNL     1       5.057   3.384  19.186  0.00  0.00    +0.000 N 
ATOM     17  H   UNL     1       5.913   3.236  19.718  0.00  0.00    +0.000 HD
BRANCH  16  18
ATOM     18  C   UNL     1       3.833   2.983  19.857  0.00  0.00    +0.000 C 
ATOM     19  C   UNL     1       2.876   4.133  20.158  0.00  0.00    +0.000 C 
ATOM     20  C   UNL     1       1.499   3.528  20.374  0.00  0.00    +0.000 C 
ATOM     21  S   UNL     1       1.328   2.306  19.049  0.00  0.00    +0.000 S 
ATOM     22  C   UNL     1       3.061   2.064  18.913  0.00  0.00    +0.000 C 
ATOM     23  O   UNL     1       3.569   1.263  18.139  0.00  0.00    +0.000 OA
ENDBRANCH  16  18
ENDBRANCH  13  15
ENDBRANCH   1  13
TORSDOF 4
ENDMDL
