MODEL 1
REMARK VINA RESULT:      -8.1      0.000      0.000
REMARK  Name = 
REMARK  7 active torsions:
REMARK  status: ('A' for Active; 'I' for Inactive)
REMARK    1  A    between atoms: C_1  and  N_2
REMARK    2  A    between atoms: N_2  and  C_3
REMARK    3  A    between atoms: N_2  and  S_4
REMARK    4  A    between atoms: S_4  and  N_7
REMARK    5  A    between atoms: C_13  and  N_14
REMARK    6  A    between atoms: C_15  and  C_17
REMARK    7  A    between atoms: C_20  and  C_21
REMARK                            x       y       z     vdW  Elec       q    Type
REMARK                         _______ _______ _______ _____ _____    ______ ____
ROOT
ATOM      1  N   UNL     1       2.581   4.179  18.198  0.00  0.00    +0.000 NA
ATOM      2  C   UNL     1       2.881   3.521  16.897  0.00  0.00    +0.000 C 
ATOM      3  C   UNL     1       4.366   3.199  16.720  0.00  0.00    +0.000 C 
ATOM      4  C   UNL     1       5.161   4.469  16.849  0.00  0.00    +0.000 A 
ATOM      5  C   UNL     1       6.257   4.744  16.036  0.00  0.00    +0.000 A 
ATOM      6  C   UNL     1       6.933   5.958  16.171  0.00  0.00    +0.000 A 
ATOM      7  C   UNL     1       6.536   6.906  17.121  0.00  0.00    +0.000 A 
ATOM      8  C   UNL     1       5.476   6.596  17.980  0.00  0.00    +0.000 A 
ATOM      9  C   UNL     1       4.776   5.389  17.835  0.00  0.00    +0.000 A 
ATOM     10  C   UNL     1       3.671   5.007  18.781  0.00  0.00    +0.000 C 
ENDROOT
BRANCH   7  11
ATOM     11  N   UNL     1       7.174   8.160  17.270  0.00  0.00    +0.000 N 
ATOM     12  C   UNL     1       8.148   8.451  18.211  0.00  0.00    +0.000 C 
ATOM     13  O   UNL     1       8.651   7.650  18.994  0.00  0.00    +0.000 OA
ATOM     14  H   UNL     1       6.912   8.870  16.604  0.00  0.00    +0.000 HD
BRANCH  12  15
ATOM     15  C   UNL     1       8.628   9.858  18.280  0.00  0.00    +0.000 A 
ATOM     16  C   UNL     1       9.690  10.119  19.159  0.00  0.00    +0.000 A 
ATOM     17  C   UNL     1      10.206  11.407  19.292  0.00  0.00    +0.000 A 
ATOM     18  C   UNL     1       9.673  12.461  18.539  0.00  0.00    +0.000 A 
ATOM     19  C   UNL     1       8.625  12.195  17.642  0.00  0.00    +0.000 A 
ATOM     20  C   UNL     1       8.105  10.900  17.507  0.00  0.00    +0.000 A 
BRANCH  18  21
ATOM     21  C   UNL     1      10.221  13.861  18.684  0.00  0.00    +0.000 C 
ATOM     22  F   UNL     1      11.065  14.009  19.743  0.00  0.00    +0.000 F 
ATOM     23  F   UNL     1      10.920  14.263  17.589  0.00  0.00    +0.000 F 
ATOM     24  F   UNL     1       9.236  14.784  18.862  0.00  0.00    +0.000 F 
ENDBRANCH  18  21
ENDBRANCH  12  15
ENDBRANCH   7  11
BRANCH   1  25
ATOM     25  S   UNL     1       1.777   3.266  19.354  0.00  0.00    +0.000 S 
ATOM     26  O   UNL     1       1.533   1.957  18.791  0.00  0.00    +0.000 OA
ATOM     27  O   UNL     1       0.696   4.059  19.892  0.00  0.00    +0.000 OA
BRANCH  25  29
ATOM     28  C   UNL     1       2.347   2.765  21.871  0.00  0.00    +0.000 C 
ATOM     29  N   UNL     1       2.961   3.083  20.554  0.00  0.00    +0.000 NA
ATOM     30  C   UNL     1       4.039   2.123  20.236  0.00  0.00    +0.000 C 
ENDBRANCH  25  29
ENDBRANCH   1  25
TORSDOF 5
ENDMDL
MODEL 2
REMARK VINA RESULT:      -8.0      0.937      1.205
REMARK  Name = 
REMARK  7 active torsions:
REMARK  status: ('A' for Active; 'I' for Inactive)
REMARK    1  A    between atoms: C_1  and  N_2
REMARK    2  A    between atoms: N_2  and  C_3
REMARK    3  A    between atoms: N_2  and  S_4
REMARK    4  A    between atoms: S_4  and  N_7
REMARK    5  A    between atoms: C_13  and  N_14
REMARK    6  A    between atoms: C_15  and  C_17
REMARK    7  A    between atoms: C_20  and  C_21
REMARK                            x       y       z     vdW  Elec       q    Type
REMARK                         _______ _______ _______ _____ _____    ______ ____
ROOT
ATOM      1  N   UNL     1       3.184   3.806  18.712  0.00  0.00    +0.000 NA
ATOM      2  C   UNL     1       2.951   3.529  17.269  0.00  0.00    +0.000 C 
ATOM      3  C   UNL     1       4.248   3.394  16.470  0.00  0.00    +0.000 C 
ATOM      4  C   UNL     1       5.054   4.654  16.628  0.00  0.00    +0.000 A 
ATOM      5  C   UNL     1       5.759   5.222  15.572  0.00  0.00    +0.000 A 
ATOM      6  C   UNL     1       6.456   6.416  15.765  0.00  0.00    +0.000 A 
ATOM      7  C   UNL     1       6.471   7.052  17.011  0.00  0.00    +0.000 A 
ATOM      8  C   UNL     1       5.815   6.442  18.086  0.00  0.00    +0.000 A 
ATOM      9  C   UNL     1       5.092   5.255  17.895  0.00  0.00    +0.000 A 
ATOM     10  C   UNL     1       4.428   4.549  19.045  0.00  0.00    +0.000 C 
ENDROOT
BRANCH   7  11
ATOM     11  N   UNL     1       7.138   8.277  17.242  0.00  0.00    +0.000 N 
ATOM     12  C   UNL     1       8.134   8.476  18.184  0.00  0.00    +0.000 C 
ATOM     13  O   UNL     1       8.631   7.608  18.897  0.00  0.00    +0.000 OA
ATOM     14  H   UNL     1       6.882   9.041  16.636  0.00  0.00    +0.000 HD
BRANCH  12  15
ATOM     15  C   UNL     1       8.646   9.864  18.350  0.00  0.00    +0.000 A 
ATOM     16  C   UNL     1       9.574  10.074  19.381  0.00  0.00    +0.000 A 
ATOM     17  C   UNL     1      10.108  11.341  19.613  0.00  0.00    +0.000 A 
ATOM     18  C   UNL     1       9.730  12.423  18.810  0.00  0.00    +0.000 A 
ATOM     19  C   UNL     1       8.818  12.208  17.763  0.00  0.00    +0.000 A 
ATOM     20  C   UNL     1       8.279  10.934  17.528  0.00  0.00    +0.000 A 
BRANCH  18  21
ATOM     21  C   UNL     1      10.298  13.800  19.061  0.00  0.00    +0.000 C 
ATOM     22  F   UNL     1      10.623  14.026  20.364  0.00  0.00    +0.000 F 
ATOM     23  F   UNL     1      11.431  14.034  18.346  0.00  0.00    +0.000 F 
ATOM     24  F   UNL     1       9.426  14.788  18.718  0.00  0.00    +0.000 F 
ENDBRANCH  18  21
ENDBRANCH  12  15
ENDBRANCH   7  11
BRANCH   1  25
ATOM     25  S   UNL     1       2.869   2.562  19.794  0.00  0.00    +0.000 S 
ATOM     26  O   UNL     1       4.136   2.106  20.322  0.00  0.00    +0.000 OA
ATOM     27  O   UNL     1       1.944   1.641  19.175  0.00  0.00    +0.000 OA
BRANCH  25  29
ATOM     28  C   UNL     1       1.143   4.408  20.516  0.00  0.00    +0.000 C 
ATOM     29  N   UNL     1       2.066   3.372  21.049  0.00  0.00    +0.000 NA
ATOM     30  C   UNL     1       1.368   2.500  22.018  0.00  0.00    +0.000 C 
ENDBRANCH  25  29
ENDBRANCH   1  25
TORSDOF 5
ENDMDL
MODEL 3
REMARK VINA RESULT:      -8.0      0.408      1.230
REMARK  Name = 
REMARK  7 active torsions:
REMARK  status: ('A' for Active; 'I' for Inactive)
REMARK    1  A    between atoms: C_1  and  N_2
REMARK    2  A    between atoms: N_2  and  C_3
REMARK    3  A    between atoms: N_2  and  S_4
REMARK    4  A    between atoms: S_4  and  N_7
REMARK    5  A    between atoms: C_13  and  N_14
REMARK    6  A    between atoms: C_15  and  C_17
REMARK    7  A    between atoms: C_20  and  C_21
REMARK                            x       y       z     vdW  Elec       q    Type
REMARK                         _______ _______ _______ _____ _____    ______ ____
ROOT
ATOM      1  N   UNL     1       2.451   4.452  18.259  0.00  0.00    +0.000 NA
ATOM      2  C   UNL     1       2.751   3.743  16.985  0.00  0.00    +0.000 C 
ATOM      3  C   UNL     1       4.228   3.371  16.843  0.00  0.00    +0.000 C 
ATOM      4  C   UNL     1       5.059   4.621  16.943  0.00  0.00    +0.000 A 
ATOM      5  C   UNL     1       6.174   4.837  16.140  0.00  0.00    +0.000 A 
ATOM      6  C   UNL     1       6.885   6.034  16.247  0.00  0.00    +0.000 A 
ATOM      7  C   UNL     1       6.503   7.023  17.159  0.00  0.00    +0.000 A 
ATOM      8  C   UNL     1       5.420   6.773  18.010  0.00  0.00    +0.000 A 
ATOM      9  C   UNL     1       4.687   5.584  17.893  0.00  0.00    +0.000 A 
ATOM     10  C   UNL     1       3.556   5.265  18.833  0.00  0.00    +0.000 C 
ENDROOT
BRANCH   7  11
ATOM     11  N   UNL     1       7.175   8.262  17.278  0.00  0.00    +0.000 N 
ATOM     12  C   UNL     1       8.187   8.534  18.184  0.00  0.00    +0.000 C 
ATOM     13  O   UNL     1       8.694   7.727  18.958  0.00  0.00    +0.000 OA
ATOM     14  H   UNL     1       6.910   8.973  16.615  0.00  0.00    +0.000 HD
BRANCH  12  15
ATOM     15  C   UNL     1       8.703   9.930  18.227  0.00  0.00    +0.000 A 
ATOM     16  C   UNL     1       7.931  10.908  17.582  0.00  0.00    +0.000 A 
ATOM     17  C   UNL     1       8.335  12.242  17.568  0.00  0.00    +0.000 A 
ATOM     18  C   UNL     1       9.518  12.626  18.210  0.00  0.00    +0.000 A 
ATOM     19  C   UNL     1      10.279  11.651  18.876  0.00  0.00    +0.000 A 
ATOM     20  C   UNL     1       9.875  10.308  18.890  0.00  0.00    +0.000 A 
BRANCH  18  21
ATOM     21  C   UNL     1       9.966  14.069  18.192  0.00  0.00    +0.000 C 
ATOM     22  F   UNL     1       8.994  14.937  17.796  0.00  0.00    +0.000 F 
ATOM     23  F   UNL     1      10.379  14.501  19.415  0.00  0.00    +0.000 F 
ATOM     24  F   UNL     1      11.015  14.272  17.348  0.00  0.00    +0.000 F 
ENDBRANCH  18  21
ENDBRANCH  12  15
ENDBRANCH   7  11
BRANCH   1  25
ATOM     25  S   UNL     1       1.602   3.602  19.431  0.00  0.00    +0.000 S 
ATOM     26  O   UNL     1       1.054   2.419  18.806  0.00  0.00    +0.000 OA
ATOM     27  O   UNL     1       0.755   4.529  20.144  0.00  0.00    +0.000 OA
BRANCH  25  29
ATOM     28  C   UNL     1       2.317   2.822  21.837  0.00  0.00    +0.000 C 
ATOM     29  N   UNL     1       2.840   3.091  20.471  0.00  0.00    +0.000 NA
ATOM     30  C   UNL     1       3.642   1.949  19.985  0.00  0.00    +0.000 C 
ENDBRANCH  25  29
ENDBRANCH   1  25
TORSDOF 5
ENDMDL
MODEL 4
REMARK VINA RESULT:      -7.8      6.404      8.502
REMARK  Name = 
REMARK  7 active torsions:
REMARK  status: ('A' for Active; 'I' for Inactive)
REMARK    1  A    between atoms: C_1  and  N_2
REMARK    2  A    between atoms: N_2  and  C_3
REMARK    3  A    between atoms: N_2  and  S_4
REMARK    4  A    between atoms: S_4  and  N_7
REMARK    5  A    between atoms: C_13  and  N_14
REMARK    6  A    between atoms: C_15  and  C_17
REMARK    7  A    between atoms: C_20  and  C_21
REMARK                            x       y       z     vdW  Elec       q    Type
REMARK                         _______ _______ _______ _____ _____    ______ ____
ROOT
ATOM      1  N   UNL     1       6.132   5.313  18.258  0.00  0.00    +0.000 NA
ATOM      2  C   UNL     1       5.961   4.006  18.949  0.00  0.00    +0.000 C 
ATOM      3  C   UNL     1       4.544   3.445  18.821  0.00  0.00    +0.000 C 
ATOM      4  C   UNL     1       3.568   4.448  19.371  0.00  0.00    +0.000 A 
ATOM      5  C   UNL     1       2.463   4.071  20.128  0.00  0.00    +0.000 A 
ATOM      6  C   UNL     1       1.613   5.048  20.649  0.00  0.00    +0.000 A 
ATOM      7  C   UNL     1       1.844   6.408  20.416  0.00  0.00    +0.000 A 
ATOM      8  C   UNL     1       2.919   6.778  19.600  0.00  0.00    +0.000 A 
ATOM      9  C   UNL     1       3.792   5.805  19.092  0.00  0.00    +0.000 A 
ATOM     10  C   UNL     1       4.919   6.171  18.166  0.00  0.00    +0.000 C 
ENDROOT
BRANCH   7  11
ATOM     11  N   UNL     1       1.026   7.430  20.950  0.00  0.00    +0.000 N 
ATOM     12  C   UNL     1       0.919   8.714  20.439  0.00  0.00    +0.000 C 
ATOM     13  O   UNL     1       1.455   9.124  19.413  0.00  0.00    +0.000 OA
ATOM     14  H   UNL     1       0.456   7.172  21.740  0.00  0.00    +0.000 HD
BRANCH  12  15
ATOM     15  C   UNL     1       0.084   9.682  21.201  0.00  0.00    +0.000 A 
ATOM     16  C   UNL     1      -0.497  10.727  20.467  0.00  0.00    +0.000 A 
ATOM     17  C   UNL     1      -1.294  11.683  21.094  0.00  0.00    +0.000 A 
ATOM     18  C   UNL     1      -1.534  11.606  22.471  0.00  0.00    +0.000 A 
ATOM     19  C   UNL     1      -0.972  10.546  23.202  0.00  0.00    +0.000 A 
ATOM     20  C   UNL     1      -0.169   9.584  22.573  0.00  0.00    +0.000 A 
BRANCH  18  21
ATOM     21  C   UNL     1      -2.390  12.642  23.160  0.00  0.00    +0.000 C 
ATOM     22  F   UNL     1      -3.117  13.409  22.299  0.00  0.00    +0.000 F 
ATOM     23  F   UNL     1      -3.289  12.089  24.018  0.00  0.00    +0.000 F 
ATOM     24  F   UNL     1      -1.650  13.513  23.900  0.00  0.00    +0.000 F 
ENDBRANCH  18  21
ENDBRANCH  12  15
ENDBRANCH   7  11
BRANCH   1  25
ATOM     25  S   UNL     1       7.035   5.324  16.843  0.00  0.00    +0.000 S 
ATOM     26  O   UNL     1       7.984   4.236  16.919  0.00  0.00    +0.000 OA
ATOM     27  O   UNL     1       7.470   6.677  16.589  0.00  0.00    +0.000 OA
BRANCH  25  29
ATOM     28  C   UNL     1       5.386   6.098  14.948  0.00  0.00    +0.000 C 
ATOM     29  N   UNL     1       5.880   4.899  15.677  0.00  0.00    +0.000 NA
ATOM     30  C   UNL     1       6.299   3.847  14.727  0.00  0.00    +0.000 C 
ENDBRANCH  25  29
ENDBRANCH   1  25
TORSDOF 5
ENDMDL
MODEL 5
REMARK VINA RESULT:      -7.7      7.864      8.897
REMARK  Name = 
REMARK  7 active torsions:
REMARK  status: ('A' for Active; 'I' for Inactive)
REMARK    1  A    between atoms: C_1  and  N_2
REMARK    2  A    between atoms: N_2  and  C_3
REMARK    3  A    between atoms: N_2  and  S_4
REMARK    4  A    between atoms: S_4  and  N_7
REMARK    5  A    between atoms: C_13  and  N_14
REMARK    6  A    between atoms: C_15  and  C_17
REMARK    7  A    between atoms: C_20  and  C_21
REMARK                            x       y       z     vdW  Elec       q    Type
REMARK                         _______ _______ _______ _____ _____    ______ ____
ROOT
ATOM      1  N   UNL     1       2.237   4.829  19.382  0.00  0.00    +0.000 NA
ATOM      2  C   UNL     1       2.461   5.237  17.968  0.00  0.00    +0.000 C 
ATOM      3  C   UNL     1       3.192   6.574  17.842  0.00  0.00    +0.000 C 
ATOM      4  C   UNL     1       2.405   7.633  18.564  0.00  0.00    +0.000 A 
ATOM      5  C   UNL     1       2.260   8.922  18.061  0.00  0.00    +0.000 A 
ATOM      6  C   UNL     1       1.482   9.853  18.753  0.00  0.00    +0.000 A 
ATOM      7  C   UNL     1       0.851   9.518  19.956  0.00  0.00    +0.000 A 
ATOM      8  C   UNL     1       1.054   8.241  20.490  0.00  0.00    +0.000 A 
ATOM      9  C   UNL     1       1.814   7.292  19.790  0.00  0.00    +0.000 A 
ATOM     10  C   UNL     1       2.095   5.933  20.369  0.00  0.00    +0.000 C 
ENDROOT
BRANCH   7  11
ATOM     11  N   UNL     1       0.030  10.420  20.672  0.00  0.00    +0.000 N 
ATOM     12  C   UNL     1       0.470  11.585  21.281  0.00  0.00    +0.000 C 
ATOM     13  O   UNL     1       1.610  12.038  21.224  0.00  0.00    +0.000 OA
ATOM     14  H   UNL     1      -0.953  10.200  20.694  0.00  0.00    +0.000 HD
BRANCH  12  15
ATOM     15  C   UNL     1      -0.525  12.353  22.076  0.00  0.00    +0.000 A 
ATOM     16  C   UNL     1      -1.614  11.632  22.590  0.00  0.00    +0.000 A 
ATOM     17  C   UNL     1      -2.597  12.267  23.347  0.00  0.00    +0.000 A 
ATOM     18  C   UNL     1      -2.506  13.638  23.612  0.00  0.00    +0.000 A 
ATOM     19  C   UNL     1      -1.405  14.356  23.117  0.00  0.00    +0.000 A 
ATOM     20  C   UNL     1      -0.414  13.719  22.356  0.00  0.00    +0.000 A 
BRANCH  18  21
ATOM     21  C   UNL     1      -3.573  14.335  24.424  0.00  0.00    +0.000 C 
ATOM     22  F   UNL     1      -4.653  13.550  24.693  0.00  0.00    +0.000 F 
ATOM     23  F   UNL     1      -3.112  14.765  25.630  0.00  0.00    +0.000 F 
ATOM     24  F   UNL     1      -4.062  15.438  23.794  0.00  0.00    +0.000 F 
ENDBRANCH  18  21
ENDBRANCH  12  15
ENDBRANCH   7  11
BRANCH   1  25
ATOM     25  S   UNL     1       3.158   3.554  19.969  0.00  0.00    +0.000 S 
ATOM     26  O   UNL     1       2.865   3.413  21.378  0.00  0.00    +0.000 OA
ATOM     27  O   UNL     1       4.514   3.718  19.503  0.00  0.00    +0.000 OA
BRANCH  25  29
ATOM     28  C   UNL     1       1.012   2.414  18.966  0.00  0.00    +0.000 C 
ATOM     29  N   UNL     1       2.471   2.220  19.179  0.00  0.00    +0.000 NA
ATOM     30  C   UNL     1       3.134   1.824  17.919  0.00  0.00    +0.000 C 
ENDBRANCH  25  29
ENDBRANCH   1  25
TORSDOF 5
ENDMDL
MODEL 6
REMARK VINA RESULT:      -7.7      8.578     10.219
REMARK  Name = 
REMARK  7 active torsions:
REMARK  status: ('A' for Active; 'I' for Inactive)
REMARK    1  A    between atoms: C_1  and  N_2
REMARK    2  A    between atoms: N_2  and  C_3
REMARK    3  A    between atoms: N_2  and  S_4
REMARK    4  A    between atoms: S_4  and  N_7
REMARK    5  A    between atoms: C_13  and  N_14
REMARK    6  A    between atoms: C_15  and  C_17
REMARK    7  A    between atoms: C_20  and  C_21
REMARK                            x       y       z     vdW  Elec       q    Type
REMARK                         _______ _______ _______ _____ _____    ______ ____
ROOT
ATOM      1  N   UNL     1      -4.393  11.889  19.189  0.00  0.00    +0.000 NA
ATOM      2  C   UNL     1      -3.843  12.581  20.386  0.00  0.00    +0.000 C 
ATOM      3  C   UNL     1      -2.513  13.284  20.111  0.00  0.00    +0.000 C 
ATOM      4  C   UNL     1      -1.522  12.275  19.600  0.00  0.00    +0.000 A 
ATOM      5  C   UNL     1      -0.185  12.288  19.985  0.00  0.00    +0.000 A 
ATOM      6  C   UNL     1       0.682  11.301  19.512  0.00  0.00    +0.000 A 
ATOM      7  C   UNL     1       0.234  10.298  18.645  0.00  0.00    +0.000 A 
ATOM      8  C   UNL     1      -1.095  10.329  18.210  0.00  0.00    +0.000 A 
ATOM      9  C   UNL     1      -1.979  11.302  18.698  0.00  0.00    +0.000 A 
ATOM     10  C   UNL     1      -3.396  11.393  18.202  0.00  0.00    +0.000 C 
ENDROOT
BRANCH   7  11
ATOM     11  N   UNL     1       1.071   9.263  18.168  0.00  0.00    +0.000 N 
ATOM     12  C   UNL     1       1.714   8.328  18.963  0.00  0.00    +0.000 C 
ATOM     13  O   UNL     1       1.591   8.216  20.180  0.00  0.00    +0.000 OA
ATOM     14  H   UNL     1       1.161   9.194  17.166  0.00  0.00    +0.000 HD
BRANCH  12  15
ATOM     15  C   UNL     1       2.636   7.377  18.285  0.00  0.00    +0.000 A 
ATOM     16  C   UNL     1       2.360   6.010  18.443  0.00  0.00    +0.000 A 
ATOM     17  C   UNL     1       3.169   5.045  17.845  0.00  0.00    +0.000 A 
ATOM     18  C   UNL     1       4.268   5.430  17.069  0.00  0.00    +0.000 A 
ATOM     19  C   UNL     1       4.532   6.799  16.893  0.00  0.00    +0.000 A 
ATOM     20  C   UNL     1       3.719   7.771  17.493  0.00  0.00    +0.000 A 
BRANCH  18  21
ATOM     21  C   UNL     1       5.155   4.389  16.426  0.00  0.00    +0.000 C 
ATOM     22  F   UNL     1       6.458   4.468  16.815  0.00  0.00    +0.000 F 
ATOM     23  F   UNL     1       4.756   3.120  16.706  0.00  0.00    +0.000 F 
ATOM     24  F   UNL     1       5.165   4.489  15.068  0.00  0.00    +0.000 F 
ENDBRANCH  18  21
ENDBRANCH  12  15
ENDBRANCH   7  11
BRANCH   1  25
ATOM     25  S   UNL     1      -5.738  12.574  18.455  0.00  0.00    +0.000 S 
ATOM     26  O   UNL     1      -5.633  12.335  17.033  0.00  0.00    +0.000 OA
ATOM     27  O   UNL     1      -5.912  13.910  18.976  0.00  0.00    +0.000 OA
BRANCH  25  29
ATOM     28  C   UNL     1      -6.659  10.157  18.920  0.00  0.00    +0.000 C 
ATOM     29  N   UNL     1      -6.999  11.600  19.034  0.00  0.00    +0.000 NA
ATOM     30  C   UNL     1      -7.467  11.918  20.400  0.00  0.00    +0.000 C 
ENDBRANCH  25  29
ENDBRANCH   1  25
TORSDOF 5
ENDMDL
MODEL 7
REMARK VINA RESULT:      -7.7      0.824      1.337
REMARK  Name = 
REMARK  7 active torsions:
REMARK  status: ('A' for Active; 'I' for Inactive)
REMARK    1  A    between atoms: C_1  and  N_2
REMARK    2  A    between atoms: N_2  and  C_3
REMARK    3  A    between atoms: N_2  and  S_4
REMARK    4  A    between atoms: S_4  and  N_7
REMARK    5  A    between atoms: C_13  and  N_14
REMARK    6  A    between atoms: C_15  and  C_17
REMARK    7  A    between atoms: C_20  and  C_21
REMARK                            x       y       z     vdW  Elec       q    Type
REMARK                         _______ _______ _______ _____ _____    ______ ____
ROOT
ATOM      1  N   UNL     1       2.788   3.831  18.105  0.00  0.00    +0.000 NA
ATOM      2  C   UNL     1       2.916   3.400  16.686  0.00  0.00    +0.000 C 
ATOM      3  C   UNL     1       4.365   3.151  16.266  0.00  0.00    +0.000 C 
ATOM      4  C   UNL     1       5.164   4.403  16.497  0.00  0.00    +0.000 A 
ATOM      5  C   UNL     1       6.141   4.835  15.605  0.00  0.00    +0.000 A 
ATOM      6  C   UNL     1       6.824   6.028  15.848  0.00  0.00    +0.000 A 
ATOM      7  C   UNL     1       6.553   6.798  16.985  0.00  0.00    +0.000 A 
ATOM      8  C   UNL     1       5.618   6.325  17.911  0.00  0.00    +0.000 A 
ATOM      9  C   UNL     1       4.910   5.140  17.663  0.00  0.00    +0.000 A 
ATOM     10  C   UNL     1       3.942   4.581  18.669  0.00  0.00    +0.000 C 
ENDROOT
BRANCH   7  11
ATOM     11  N   UNL     1       7.199   8.028  17.253  0.00  0.00    +0.000 N 
ATOM     12  C   UNL     1       8.148   8.229  18.242  0.00  0.00    +0.000 C 
ATOM     13  O   UNL     1       8.618   7.361  18.972  0.00  0.00    +0.000 OA
ATOM     14  H   UNL     1       6.965   8.792  16.640  0.00  0.00    +0.000 HD
BRANCH  12  15
ATOM     15  C   UNL     1       8.640   9.619  18.439  0.00  0.00    +0.000 A 
ATOM     16  C   UNL     1       8.141  10.595  17.563  0.00  0.00    +0.000 A 
ATOM     17  C   UNL     1       8.545  11.925  17.670  0.00  0.00    +0.000 A 
ATOM     18  C   UNL     1       9.453  12.307  18.664  0.00  0.00    +0.000 A 
ATOM     19  C   UNL     1       9.936  11.334  19.556  0.00  0.00    +0.000 A 
ATOM     20  C   UNL     1       9.531   9.996  19.450  0.00  0.00    +0.000 A 
BRANCH  18  21
ATOM     21  C   UNL     1       9.902  13.745  18.781  0.00  0.00    +0.000 C 
ATOM     22  F   UNL     1       9.816  14.241  20.047  0.00  0.00    +0.000 F 
ATOM     23  F   UNL     1      11.196  13.919  18.397  0.00  0.00    +0.000 F 
ATOM     24  F   UNL     1       9.163  14.581  18.002  0.00  0.00    +0.000 F 
ENDBRANCH  18  21
ENDBRANCH  12  15
ENDBRANCH   7  11
BRANCH   1  25
ATOM     25  S   UNL     1       2.149   2.721  19.191  0.00  0.00    +0.000 S 
ATOM     26  O   UNL     1       3.125   1.670  19.372  0.00  0.00    +0.000 OA
ATOM     27  O   UNL     1       0.794   2.420  18.792  0.00  0.00    +0.000 OA
BRANCH  25  29
ATOM     28  C   UNL     1       1.100   4.711  20.551  0.00  0.00    +0.000 C 
ATOM     29  N   UNL     1       2.102   3.615  20.631  0.00  0.00    +0.000 NA
ATOM     30  C   UNL     1       1.907   2.819  21.861  0.00  0.00    +0.000 C 
ENDBRANCH  25  29
ENDBRANCH   1  25
TORSDOF 5
ENDMDL
MODEL 8
REMARK VINA RESULT:      -7.6      6.689      8.631
REMARK  Name = 
REMARK  7 active torsions:
REMARK  status: ('A' for Active; 'I' for Inactive)
REMARK    1  A    between atoms: C_1  and  N_2
REMARK    2  A    between atoms: N_2  and  C_3
REMARK    3  A    between atoms: N_2  and  S_4
REMARK    4  A    between atoms: S_4  and  N_7
REMARK    5  A    between atoms: C_13  and  N_14
REMARK    6  A    between atoms: C_15  and  C_17
REMARK    7  A    between atoms: C_20  and  C_21
REMARK                            x       y       z     vdW  Elec       q    Type
REMARK                         _______ _______ _______ _____ _____    ______ ____
ROOT
ATOM      1  N   UNL     1       6.001   5.746  18.285  0.00  0.00    +0.000 NA
ATOM      2  C   UNL     1       5.890   4.633  19.265  0.00  0.00    +0.000 C 
ATOM      3  C   UNL     1       4.493   4.012  19.307  0.00  0.00    +0.000 C 
ATOM      4  C   UNL     1       3.490   5.084  19.631  0.00  0.00    +0.000 A 
ATOM      5  C   UNL     1       2.411   4.859  20.481  0.00  0.00    +0.000 A 
ATOM      6  C   UNL     1       1.534   5.903  20.780  0.00  0.00    +0.000 A 
ATOM      7  C   UNL     1       1.711   7.177  20.229  0.00  0.00    +0.000 A 
ATOM      8  C   UNL     1       2.758   7.380  19.324  0.00  0.00    +0.000 A 
ATOM      9  C   UNL     1       3.658   6.344  19.037  0.00  0.00    +0.000 A 
ATOM     10  C   UNL     1       4.756   6.518  18.024  0.00  0.00    +0.000 C 
ENDROOT
BRANCH   7  11
ATOM     11  N   UNL     1       0.864   8.270  20.529  0.00  0.00    +0.000 N 
ATOM     12  C   UNL     1       1.018   9.123  21.610  0.00  0.00    +0.000 C 
ATOM     13  O   UNL     1       1.946   9.102  22.414  0.00  0.00    +0.000 OA
ATOM     14  H   UNL     1       0.122   8.447  19.871  0.00  0.00    +0.000 HD
BRANCH  12  15
ATOM     15  C   UNL     1      -0.034  10.154  21.818  0.00  0.00    +0.000 A 
ATOM     16  C   UNL     1      -0.373  10.942  20.708  0.00  0.00    +0.000 A 
ATOM     17  C   UNL     1      -1.347  11.934  20.806  0.00  0.00    +0.000 A 
ATOM     18  C   UNL     1      -2.010  12.152  22.019  0.00  0.00    +0.000 A 
ATOM     19  C   UNL     1      -1.688  11.348  23.126  0.00  0.00    +0.000 A 
ATOM     20  C   UNL     1      -0.708  10.350  23.028  0.00  0.00    +0.000 A 
BRANCH  18  21
ATOM     21  C   UNL     1      -3.061  13.231  22.136  0.00  0.00    +0.000 C 
ATOM     22  F   UNL     1      -2.877  14.056  23.204  0.00  0.00    +0.000 F 
ATOM     23  F   UNL     1      -3.103  14.038  21.042  0.00  0.00    +0.000 F 
ATOM     24  F   UNL     1      -4.315  12.718  22.274  0.00  0.00    +0.000 F 
ENDBRANCH  18  21
ENDBRANCH  12  15
ENDBRANCH   7  11
BRANCH   1  25
ATOM     25  S   UNL     1       6.881   5.453  16.885  0.00  0.00    +0.000 S 
ATOM     26  O   UNL     1       7.799   4.371  17.161  0.00  0.00    +0.000 OA
ATOM     27  O   UNL     1       7.351   6.717  16.368  0.00  0.00    +0.000 OA
BRANCH  25  29
ATOM     28  C   UNL     1       5.886   5.363  14.454  0.00  0.00    +0.000 C 
ATOM     29  N   UNL     1       5.694   4.848  15.836  0.00  0.00    +0.000 NA
ATOM     30  C   UNL     1       5.550   3.377  15.828  0.00  0.00    +0.000 C 
ENDBRANCH  25  29
ENDBRANCH   1  25
TORSDOF 5
ENDMDL
MODEL 9
REMARK VINA RESULT:      -7.6      7.841      9.818
REMARK  Name = 
REMARK  7 active torsions:
REMARK  status: ('A' for Active; 'I' for Inactive)
REMARK    1  A    between atoms: C_1  and  N_2
REMARK    2  A    between atoms: N_2  and  C_3
REMARK    3  A    between atoms: N_2  and  S_4
REMARK    4  A    between atoms: S_4  and  N_7
REMARK    5  A    between atoms: C_13  and  N_14
REMARK    6  A    between atoms: C_15  and  C_17
REMARK    7  A    between atoms: C_20  and  C_21
REMARK                            x       y       z     vdW  Elec       q    Type
REMARK                         _______ _______ _______ _____ _____    ______ ____
ROOT
ATOM      1  N   UNL     1       0.274  13.718  20.685  0.00  0.00    +0.000 NA
ATOM      2  C   UNL     1      -0.905  13.883  19.793  0.00  0.00    +0.000 C 
ATOM      3  C   UNL     1      -1.737  12.607  19.661  0.00  0.00    +0.000 C 
ATOM      4  C   UNL     1      -0.858  11.500  19.150  0.00  0.00    +0.000 A 
ATOM      5  C   UNL     1      -1.303  10.569  18.216  0.00  0.00    +0.000 A 
ATOM      6  C   UNL     1      -0.430   9.587  17.745  0.00  0.00    +0.000 A 
ATOM      7  C   UNL     1       0.890   9.511  18.204  0.00  0.00    +0.000 A 
ATOM      8  C   UNL     1       1.312  10.408  19.191  0.00  0.00    +0.000 A 
ATOM      9  C   UNL     1       0.449  11.412  19.652  0.00  0.00    +0.000 A 
ATOM     10  C   UNL     1       0.859  12.352  20.753  0.00  0.00    +0.000 C 
ENDROOT
BRANCH   7  11
ATOM     11  N   UNL     1       1.815   8.552  17.730  0.00  0.00    +0.000 N 
ATOM     12  C   UNL     1       2.371   7.537  18.492  0.00  0.00    +0.000 C 
ATOM     13  O   UNL     1       2.086   7.278  19.659  0.00  0.00    +0.000 OA
ATOM     14  H   UNL     1       2.043   8.605  16.750  0.00  0.00    +0.000 HD
BRANCH  12  15
ATOM     15  C   UNL     1       3.405   6.687  17.843  0.00  0.00    +0.000 A 
ATOM     16  C   UNL     1       4.400   7.353  17.111  0.00  0.00    +0.000 A 
ATOM     17  C   UNL     1       5.410   6.641  16.467  0.00  0.00    +0.000 A 
ATOM     18  C   UNL     1       5.451   5.245  16.550  0.00  0.00    +0.000 A 
ATOM     19  C   UNL     1       4.468   4.578  17.302  0.00  0.00    +0.000 A 
ATOM     20  C   UNL     1       3.451   5.293  17.951  0.00  0.00    +0.000 A 
BRANCH  18  21
ATOM     21  C   UNL     1       6.538   4.465  15.848  0.00  0.00    +0.000 C 
ATOM     22  F   UNL     1       7.068   5.116  14.775  0.00  0.00    +0.000 F 
ATOM     23  F   UNL     1       7.585   4.178  16.667  0.00  0.00    +0.000 F 
ATOM     24  F   UNL     1       6.091   3.269  15.375  0.00  0.00    +0.000 F 
ENDBRANCH  18  21
ENDBRANCH  12  15
ENDBRANCH   7  11
BRANCH   1  25
ATOM     25  S   UNL     1       0.215  14.468  22.186  0.00  0.00    +0.000 S 
ATOM     26  O   UNL     1       1.555  14.897  22.517  0.00  0.00    +0.000 OA
ATOM     27  O   UNL     1      -0.544  13.630  23.085  0.00  0.00    +0.000 OA
BRANCH  25  29
ATOM     28  C   UNL     1      -1.617  16.180  22.973  0.00  0.00    +0.000 C 
ATOM     29  N   UNL     1      -0.690  15.863  21.854  0.00  0.00    +0.000 NA
ATOM     30  C   UNL     1       0.101  17.054  21.479  0.00  0.00    +0.000 C 
ENDBRANCH  25  29
ENDBRANCH   1  25
TORSDOF 5
ENDMDL
