MODEL 1
REMARK VINA RESULT:      -8.4      0.000      0.000
REMARK  Name = 
REMARK  6 active torsions:
REMARK  status: ('A' for Active; 'I' for Inactive)
REMARK    1  A    between atoms: C_1  and  C_2
REMARK    2  A    between atoms: C_8  and  C_9
REMARK    3  A    between atoms: C_9  and  C_10
REMARK    4  A    between atoms: C_10  and  N_11
REMARK    5  A    between atoms: N_14  and  C_15
REMARK    6  A    between atoms: C_29  and  O_30
REMARK                            x       y       z     vdW  Elec       q    Type
REMARK                         _______ _______ _______ _____ _____    ______ ____
ROOT
ATOM      1  C   UNL     1      -0.102  11.377  19.710  0.00  0.00    +0.000 C 
ENDROOT
BRANCH   1   2
ATOM      2  N   UNL     1       0.610  10.123  19.569  0.00  0.00    +0.000 NA
ATOM      3  C   UNL     1       0.789   9.628  18.195  0.00  0.00    +0.000 C 
ATOM      4  C   UNL     1       2.121   8.843  18.118  0.00  0.00    +0.000 C 
ATOM      5  N   UNL     1       2.048   7.738  19.087  0.00  0.00    +0.000 N 
ATOM      6  C   UNL     1       1.802   8.179  20.475  0.00  0.00    +0.000 C 
ATOM      7  C   UNL     1       0.498   9.025  20.532  0.00  0.00    +0.000 C 
BRANCH   5   8
ATOM      8  C   UNL     1       2.723   6.541  18.846  0.00  0.00    +0.000 A 
ATOM      9  C   UNL     1       3.734   6.553  17.857  0.00  0.00    +0.000 A 
ATOM     10  C   UNL     1       4.549   5.459  17.594  0.00  0.00    +0.000 A 
ATOM     11  C   UNL     1       4.394   4.282  18.315  0.00  0.00    +0.000 A 
ATOM     12  C   UNL     1       3.396   4.234  19.300  0.00  0.00    +0.000 A 
ATOM     13  S   UNL     1       3.002   2.911  20.338  0.00  0.00    +0.000 S 
ATOM     14  C   UNL     1       1.771   3.850  21.057  0.00  0.00    +0.000 A 
ATOM     15  N   UNL     1       1.628   5.069  20.601  0.00  0.00    +0.000 NA
ATOM     16  C   UNL     1       2.560   5.321  19.584  0.00  0.00    +0.000 A 
ENDBRANCH   5   8
ENDBRANCH   1   2
BRANCH   1  17
ATOM     17  C   UNL     1      -0.807  11.878  18.440  0.00  0.00    +0.000 C 
BRANCH  17  25
ATOM     18  C   UNL     1      -2.311  10.024  16.533  0.00  0.00    +0.000 C 
ATOM     19  C   UNL     1      -2.983  10.823  17.622  0.00  0.00    +0.000 A 
ATOM     20  N   UNL     1      -4.338  10.647  17.685  0.00  0.00    +0.000 NA
ATOM     21  C   UNL     1      -5.024  11.327  18.546  0.00  0.00    +0.000 A 
ATOM     22  N   UNL     1      -4.463  12.232  19.412  0.00  0.00    +0.000 N 
ATOM     23  C   UNL     1      -3.084  12.345  19.495  0.00  0.00    +0.000 A 
ATOM     24  O   UNL     1      -2.513  12.998  20.373  0.00  0.00    +0.000 OA
ATOM     25  C   UNL     1      -2.294  11.617  18.461  0.00  0.00    +0.000 A 
ATOM     26  C   UNL     1      -5.222  12.907  20.456  0.00  0.00    +0.000 C 
ATOM     27  C   UNL     1      -6.718  12.972  20.208  0.00  0.00    +0.000 C 
ATOM     28  C   UNL     1      -7.223  11.593  19.819  0.00  0.00    +0.000 C 
ATOM     29  C   UNL     1      -6.554  11.156  18.528  0.00  0.00    +0.000 C 
BRANCH  29  30
ATOM     30  O   UNL     1      -7.132  11.874  17.439  0.00  0.00    +0.000 OA
ATOM     31  H   UNL     1      -6.447  12.445  17.054  0.00  0.00    +0.000 HD
ENDBRANCH  29  30
ENDBRANCH  17  25
ENDBRANCH   1  17
TORSDOF 5
ENDMDL
MODEL 2
REMARK VINA RESULT:      -8.3      1.645      2.356
REMARK  Name = 
REMARK  6 active torsions:
REMARK  status: ('A' for Active; 'I' for Inactive)
REMARK    1  A    between atoms: C_1  and  C_2
REMARK    2  A    between atoms: C_8  and  C_9
REMARK    3  A    between atoms: C_9  and  C_10
REMARK    4  A    between atoms: C_10  and  N_11
REMARK    5  A    between atoms: N_14  and  C_15
REMARK    6  A    between atoms: C_29  and  O_30
REMARK                            x       y       z     vdW  Elec       q    Type
REMARK                         _______ _______ _______ _____ _____    ______ ____
ROOT
ATOM      1  C   UNL     1       0.522  10.642  20.415  0.00  0.00    +0.000 C 
ENDROOT
BRANCH   1   2
ATOM      2  N   UNL     1       1.158   9.464  19.862  0.00  0.00    +0.000 NA
ATOM      3  C   UNL     1       1.169   9.360  18.395  0.00  0.00    +0.000 C 
ATOM      4  C   UNL     1       2.449   8.606  17.958  0.00  0.00    +0.000 C 
ATOM      5  N   UNL     1       2.428   7.280  18.596  0.00  0.00    +0.000 N 
ATOM      6  C   UNL     1       2.350   7.329  20.070  0.00  0.00    +0.000 C 
ATOM      7  C   UNL     1       1.098   8.147  20.500  0.00  0.00    +0.000 C 
BRANCH   5   8
ATOM      8  C   UNL     1       3.019   6.184  17.967  0.00  0.00    +0.000 A 
ATOM      9  C   UNL     1       4.225   6.412  17.261  0.00  0.00    +0.000 A 
ATOM     10  C   UNL     1       4.967   5.391  16.681  0.00  0.00    +0.000 A 
ATOM     11  C   UNL     1       4.538   4.073  16.776  0.00  0.00    +0.000 A 
ATOM     12  C   UNL     1       3.343   3.812  17.464  0.00  0.00    +0.000 A 
ATOM     13  S   UNL     1       2.597   2.278  17.737  0.00  0.00    +0.000 S 
ATOM     14  C   UNL     1       1.334   3.052  18.585  0.00  0.00    +0.000 A 
ATOM     15  N   UNL     1       1.417   4.354  18.694  0.00  0.00    +0.000 NA
ATOM     16  C   UNL     1       2.576   4.822  18.057  0.00  0.00    +0.000 A 
ENDBRANCH   5   8
ENDBRANCH   1   2
BRANCH   1  17
ATOM     17  C   UNL     1       0.025  11.666  19.382  0.00  0.00    +0.000 C 
BRANCH  17  25
ATOM     18  C   UNL     1      -1.169  13.331  21.650  0.00  0.00    +0.000 C 
ATOM     19  C   UNL     1      -1.993  12.708  20.550  0.00  0.00    +0.000 A 
ATOM     20  N   UNL     1      -3.334  12.953  20.654  0.00  0.00    +0.000 NA
ATOM     21  C   UNL     1      -4.142  12.419  19.795  0.00  0.00    +0.000 A 
ATOM     22  N   UNL     1      -3.725  11.607  18.770  0.00  0.00    +0.000 N 
ATOM     23  C   UNL     1      -2.370  11.443  18.527  0.00  0.00    +0.000 A 
ATOM     24  O   UNL     1      -1.929  10.880  17.521  0.00  0.00    +0.000 OA
ATOM     25  C   UNL     1      -1.439  11.996  19.552  0.00  0.00    +0.000 A 
ATOM     26  C   UNL     1      -4.623  11.105  17.739  0.00  0.00    +0.000 C 
ATOM     27  C   UNL     1      -6.088  11.078  18.136  0.00  0.00    +0.000 C 
ATOM     28  C   UNL     1      -6.469  12.418  18.741  0.00  0.00    +0.000 C 
ATOM     29  C   UNL     1      -5.650  12.657  19.997  0.00  0.00    +0.000 C 
BRANCH  29  30
ATOM     30  O   UNL     1      -6.157  11.833  21.045  0.00  0.00    +0.000 OA
ATOM     31  H   UNL     1      -5.601  11.039  21.104  0.00  0.00    +0.000 HD
ENDBRANCH  29  30
ENDBRANCH  17  25
ENDBRANCH   1  17
TORSDOF 5
ENDMDL
MODEL 3
REMARK VINA RESULT:      -8.3      1.063      1.407
REMARK  Name = 
REMARK  6 active torsions:
REMARK  status: ('A' for Active; 'I' for Inactive)
REMARK    1  A    between atoms: C_1  and  C_2
REMARK    2  A    between atoms: C_8  and  C_9
REMARK    3  A    between atoms: C_9  and  C_10
REMARK    4  A    between atoms: C_10  and  N_11
REMARK    5  A    between atoms: N_14  and  C_15
REMARK    6  A    between atoms: C_29  and  O_30
REMARK                            x       y       z     vdW  Elec       q    Type
REMARK                         _______ _______ _______ _____ _____    ______ ____
ROOT
ATOM      1  C   UNL     1      -0.030  10.663  20.039  0.00  0.00    +0.000 C 
ENDROOT
BRANCH   1   2
ATOM      2  N   UNL     1       0.805   9.610  19.495  0.00  0.00    +0.000 NA
ATOM      3  C   UNL     1       1.544   8.797  20.472  0.00  0.00    +0.000 C 
ATOM      4  C   UNL     1       1.699   7.362  19.911  0.00  0.00    +0.000 C 
ATOM      5  N   UNL     1       2.416   7.455  18.629  0.00  0.00    +0.000 N 
ATOM      6  C   UNL     1       1.746   8.317  17.634  0.00  0.00    +0.000 C 
ATOM      7  C   UNL     1       1.533   9.738  18.231  0.00  0.00    +0.000 C 
BRANCH   5   8
ATOM      8  C   UNL     1       3.244   6.416  18.205  0.00  0.00    +0.000 A 
ATOM      9  C   UNL     1       4.590   6.737  17.911  0.00  0.00    +0.000 A 
ATOM     10  C   UNL     1       5.541   5.779  17.581  0.00  0.00    +0.000 A 
ATOM     11  C   UNL     1       5.192   4.435  17.527  0.00  0.00    +0.000 A 
ATOM     12  C   UNL     1       3.863   4.083  17.807  0.00  0.00    +0.000 A 
ATOM     13  S   UNL     1       3.172   2.500  17.821  0.00  0.00    +0.000 S 
ATOM     14  C   UNL     1       1.660   3.171  18.242  0.00  0.00    +0.000 A 
ATOM     15  N   UNL     1       1.620   4.473  18.383  0.00  0.00    +0.000 NA
ATOM     16  C   UNL     1       2.885   5.028  18.141  0.00  0.00    +0.000 A 
ENDBRANCH   5   8
ENDBRANCH   1   2
BRANCH   1  17
ATOM     17  C   UNL     1      -0.599  11.649  19.006  0.00  0.00    +0.000 C 
BRANCH  17  25
ATOM     18  C   UNL     1      -1.921   9.859  16.912  0.00  0.00    +0.000 C 
ATOM     19  C   UNL     1      -2.694  10.719  17.881  0.00  0.00    +0.000 A 
ATOM     20  N   UNL     1      -4.052  10.631  17.741  0.00  0.00    +0.000 NA
ATOM     21  C   UNL     1      -4.812  11.370  18.484  0.00  0.00    +0.000 A 
ATOM     22  N   UNL     1      -4.328  12.252  19.417  0.00  0.00    +0.000 N 
ATOM     23  C   UNL     1      -2.973  12.279  19.704  0.00  0.00    +0.000 A 
ATOM     24  O   UNL     1      -2.496  12.910  20.652  0.00  0.00    +0.000 OA
ATOM     25  C   UNL     1      -2.087  11.483  18.806  0.00  0.00    +0.000 A 
ATOM     26  C   UNL     1      -5.188  12.994  20.329  0.00  0.00    +0.000 C 
ATOM     27  C   UNL     1      -6.623  13.149  19.859  0.00  0.00    +0.000 C 
ATOM     28  C   UNL     1      -7.154  11.799  19.411  0.00  0.00    +0.000 C 
ATOM     29  C   UNL     1      -6.330  11.296  18.238  0.00  0.00    +0.000 C 
BRANCH  29  30
ATOM     30  O   UNL     1      -6.691  12.029  17.070  0.00  0.00    +0.000 OA
ATOM     31  H   UNL     1      -7.148  11.426  16.461  0.00  0.00    +0.000 HD
ENDBRANCH  29  30
ENDBRANCH  17  25
ENDBRANCH   1  17
TORSDOF 5
ENDMDL
MODEL 4
REMARK VINA RESULT:      -8.3      3.174      3.555
REMARK  Name = 
REMARK  6 active torsions:
REMARK  status: ('A' for Active; 'I' for Inactive)
REMARK    1  A    between atoms: C_1  and  C_2
REMARK    2  A    between atoms: C_8  and  C_9
REMARK    3  A    between atoms: C_9  and  C_10
REMARK    4  A    between atoms: C_10  and  N_11
REMARK    5  A    between atoms: N_14  and  C_15
REMARK    6  A    between atoms: C_29  and  O_30
REMARK                            x       y       z     vdW  Elec       q    Type
REMARK                         _______ _______ _______ _____ _____    ______ ____
ROOT
ATOM      1  C   UNL     1       0.413  10.785  19.660  0.00  0.00    +0.000 C 
ENDROOT
BRANCH   1   2
ATOM      2  N   UNL     1       1.109   9.564  19.304  0.00  0.00    +0.000 NA
ATOM      3  C   UNL     1       1.250   9.293  17.866  0.00  0.00    +0.000 C 
ATOM      4  C   UNL     1       2.572   8.520  17.632  0.00  0.00    +0.000 C 
ATOM      5  N   UNL     1       2.510   7.277  18.416  0.00  0.00    +0.000 N 
ATOM      6  C   UNL     1       2.302   7.494  19.862  0.00  0.00    +0.000 C 
ATOM      7  C   UNL     1       1.008   8.328  20.084  0.00  0.00    +0.000 C 
BRANCH   5   8
ATOM      8  C   UNL     1       3.167   6.128  17.972  0.00  0.00    +0.000 A 
ATOM      9  C   UNL     1       4.477   6.286  17.461  0.00  0.00    +0.000 A 
ATOM     10  C   UNL     1       5.277   5.214  17.084  0.00  0.00    +0.000 A 
ATOM     11  C   UNL     1       4.803   3.913  17.201  0.00  0.00    +0.000 A 
ATOM     12  C   UNL     1       3.505   3.721  17.699  0.00  0.00    +0.000 A 
ATOM     13  S   UNL     1       2.684   2.223  17.952  0.00  0.00    +0.000 S 
ATOM     14  C   UNL     1       1.320   3.076  18.524  0.00  0.00    +0.000 A 
ATOM     15  N   UNL     1       1.419   4.381  18.552  0.00  0.00    +0.000 NA
ATOM     16  C   UNL     1       2.678   4.784  18.084  0.00  0.00    +0.000 A 
ENDBRANCH   5   8
ENDBRANCH   1   2
BRANCH   1  17
ATOM     17  C   UNL     1       0.818  11.402  21.008  0.00  0.00    +0.000 C 
BRANCH  17  25
ATOM     18  C   UNL     1      -0.508   9.658  23.137  0.00  0.00    +0.000 C 
ATOM     19  C   UNL     1      -0.989  11.041  22.774  0.00  0.00    +0.000 A 
ATOM     20  N   UNL     1      -2.082  11.453  23.486  0.00  0.00    +0.000 NA
ATOM     21  C   UNL     1      -2.614  12.602  23.216  0.00  0.00    +0.000 A 
ATOM     22  N   UNL     1      -2.139  13.444  22.242  0.00  0.00    +0.000 N 
ATOM     23  C   UNL     1      -0.952  13.146  21.591  0.00  0.00    +0.000 A 
ATOM     24  O   UNL     1      -0.376  13.941  20.842  0.00  0.00    +0.000 OA
ATOM     25  C   UNL     1      -0.374  11.796  21.847  0.00  0.00    +0.000 A 
ATOM     26  C   UNL     1      -2.668  14.783  22.022  0.00  0.00    +0.000 C 
ATOM     27  C   UNL     1      -4.077  14.999  22.543  0.00  0.00    +0.000 C 
ATOM     28  C   UNL     1      -4.170  14.483  23.969  0.00  0.00    +0.000 C 
ATOM     29  C   UNL     1      -3.890  12.991  23.987  0.00  0.00    +0.000 C 
BRANCH  29  30
ATOM     30  O   UNL     1      -5.025  12.299  23.469  0.00  0.00    +0.000 OA
ATOM     31  H   UNL     1      -4.826  12.029  22.558  0.00  0.00    +0.000 HD
ENDBRANCH  29  30
ENDBRANCH  17  25
ENDBRANCH   1  17
TORSDOF 5
ENDMDL
MODEL 5
REMARK VINA RESULT:      -8.3      3.298      3.947
REMARK  Name = 
REMARK  6 active torsions:
REMARK  status: ('A' for Active; 'I' for Inactive)
REMARK    1  A    between atoms: C_1  and  C_2
REMARK    2  A    between atoms: C_8  and  C_9
REMARK    3  A    between atoms: C_9  and  C_10
REMARK    4  A    between atoms: C_10  and  N_11
REMARK    5  A    between atoms: N_14  and  C_15
REMARK    6  A    between atoms: C_29  and  O_30
REMARK                            x       y       z     vdW  Elec       q    Type
REMARK                         _______ _______ _______ _____ _____    ______ ____
ROOT
ATOM      1  C   UNL     1       0.517  10.960  19.617  0.00  0.00    +0.000 C 
ENDROOT
BRANCH   1   2
ATOM      2  N   UNL     1       1.113   9.677  19.302  0.00  0.00    +0.000 NA
ATOM      3  C   UNL     1       1.129   9.300  17.880  0.00  0.00    +0.000 C 
ATOM      4  C   UNL     1       2.383   8.434  17.609  0.00  0.00    +0.000 C 
ATOM      5  N   UNL     1       2.311   7.252  18.482  0.00  0.00    +0.000 N 
ATOM      6  C   UNL     1       2.225   7.580  19.920  0.00  0.00    +0.000 C 
ATOM      7  C   UNL     1       1.002   8.506  20.174  0.00  0.00    +0.000 C 
BRANCH   5   8
ATOM      8  C   UNL     1       2.866   6.038  18.077  0.00  0.00    +0.000 A 
ATOM      9  C   UNL     1       2.011   4.911  18.050  0.00  0.00    +0.000 A 
ATOM     10  C   UNL     1       2.410   3.670  17.567  0.00  0.00    +0.000 A 
ATOM     11  C   UNL     1       3.699   3.490  17.081  0.00  0.00    +0.000 A 
ATOM     12  C   UNL     1       4.574   4.586  17.100  0.00  0.00    +0.000 A 
ATOM     13  S   UNL     1       6.211   4.638  16.552  0.00  0.00    +0.000 S 
ATOM     14  C   UNL     1       6.302   6.283  16.999  0.00  0.00    +0.000 A 
ATOM     15  N   UNL     1       5.219   6.806  17.515  0.00  0.00    +0.000 NA
ATOM     16  C   UNL     1       4.198   5.846  17.582  0.00  0.00    +0.000 A 
ENDBRANCH   5   8
ENDBRANCH   1   2
BRANCH   1  17
ATOM     17  C   UNL     1       0.873  11.527  21.001  0.00  0.00    +0.000 C 
BRANCH  17  25
ATOM     18  C   UNL     1      -0.469   9.715  23.062  0.00  0.00    +0.000 C 
ATOM     19  C   UNL     1      -0.972  11.095  22.712  0.00  0.00    +0.000 A 
ATOM     20  N   UNL     1      -2.091  11.470  23.401  0.00  0.00    +0.000 NA
ATOM     21  C   UNL     1      -2.641  12.612  23.138  0.00  0.00    +0.000 A 
ATOM     22  N   UNL     1      -2.160  13.481  22.192  0.00  0.00    +0.000 N 
ATOM     23  C   UNL     1      -0.950  13.222  21.568  0.00  0.00    +0.000 A 
ATOM     24  O   UNL     1      -0.373  14.042  20.848  0.00  0.00    +0.000 OA
ATOM     25  C   UNL     1      -0.349  11.879  21.814  0.00  0.00    +0.000 A 
ATOM     26  C   UNL     1      -2.712  14.813  21.982  0.00  0.00    +0.000 C 
ATOM     27  C   UNL     1      -4.139  14.988  22.470  0.00  0.00    +0.000 C 
ATOM     28  C   UNL     1      -4.257  14.445  23.884  0.00  0.00    +0.000 C 
ATOM     29  C   UNL     1      -3.945  12.959  23.882  0.00  0.00    +0.000 C 
BRANCH  29  30
ATOM     30  O   UNL     1      -5.050  12.253  23.323  0.00  0.00    +0.000 OA
ATOM     31  H   UNL     1      -5.472  11.738  24.031  0.00  0.00    +0.000 HD
ENDBRANCH  29  30
ENDBRANCH  17  25
ENDBRANCH   1  17
TORSDOF 5
ENDMDL
MODEL 6
REMARK VINA RESULT:      -8.2      4.799     10.097
REMARK  Name = 
REMARK  6 active torsions:
REMARK  status: ('A' for Active; 'I' for Inactive)
REMARK    1  A    between atoms: C_1  and  C_2
REMARK    2  A    between atoms: C_8  and  C_9
REMARK    3  A    between atoms: C_9  and  C_10
REMARK    4  A    between atoms: C_10  and  N_11
REMARK    5  A    between atoms: N_14  and  C_15
REMARK    6  A    between atoms: C_29  and  O_30
REMARK                            x       y       z     vdW  Elec       q    Type
REMARK                         _______ _______ _______ _____ _____    ______ ____
ROOT
ATOM      1  C   UNL     1       1.606   8.254  21.012  0.00  0.00    +0.000 C 
ENDROOT
BRANCH   1   2
ATOM      2  N   UNL     1       0.761   9.283  21.583  0.00  0.00    +0.000 NA
ATOM      3  C   UNL     1       0.776  10.587  20.904  0.00  0.00    +0.000 C 
ATOM      4  C   UNL     1      -0.616  11.247  21.060  0.00  0.00    +0.000 C 
ATOM      5  N   UNL     1      -0.888  11.388  22.499  0.00  0.00    +0.000 N 
ATOM      6  C   UNL     1      -0.848  10.110  23.240  0.00  0.00    +0.000 C 
ATOM      7  C   UNL     1       0.529   9.422  23.023  0.00  0.00    +0.000 C 
BRANCH   5   8
ATOM      8  C   UNL     1      -1.670  12.442  22.971  0.00  0.00    +0.000 A 
ATOM      9  C   UNL     1      -2.958  12.126  23.463  0.00  0.00    +0.000 A 
ATOM     10  C   UNL     1      -3.794  13.065  24.055  0.00  0.00    +0.000 A 
ATOM     11  C   UNL     1      -3.380  14.384  24.189  0.00  0.00    +0.000 A 
ATOM     12  C   UNL     1      -2.109  14.733  23.706  0.00  0.00    +0.000 A 
ATOM     13  S   UNL     1      -1.353  16.285  23.755  0.00  0.00    +0.000 S 
ATOM     14  C   UNL     1       0.019  15.633  22.977  0.00  0.00    +0.000 A 
ATOM     15  N   UNL     1      -0.027  14.357  22.688  0.00  0.00    +0.000 NA
ATOM     16  C   UNL     1      -1.249  13.808  23.104  0.00  0.00    +0.000 A 
ENDBRANCH   5   8
ENDBRANCH   1   2
BRANCH   1  17
ATOM     17  C   UNL     1       1.468   8.059  19.493  0.00  0.00    +0.000 C 
BRANCH  17  25
ATOM     18  C   UNL     1       1.606   5.215  20.602  0.00  0.00    +0.000 C 
ATOM     19  C   UNL     1       2.450   5.703  19.449  0.00  0.00    +0.000 A 
ATOM     20  N   UNL     1       3.292   4.754  18.937  0.00  0.00    +0.000 NA
ATOM     21  C   UNL     1       4.102   5.081  17.982  0.00  0.00    +0.000 A 
ATOM     22  N   UNL     1       4.169   6.342  17.446  0.00  0.00    +0.000 N 
ATOM     23  C   UNL     1       3.243   7.302  17.822  0.00  0.00    +0.000 A 
ATOM     24  O   UNL     1       3.130   8.391  17.251  0.00  0.00    +0.000 OA
ATOM     25  C   UNL     1       2.354   6.955  18.968  0.00  0.00    +0.000 A 
ATOM     26  C   UNL     1       4.998   6.673  16.295  0.00  0.00    +0.000 C 
ATOM     27  C   UNL     1       6.156   5.721  16.056  0.00  0.00    +0.000 C 
ATOM     28  C   UNL     1       5.650   4.290  16.109  0.00  0.00    +0.000 C 
ATOM     29  C   UNL     1       5.087   4.003  17.490  0.00  0.00    +0.000 C 
BRANCH  29  30
ATOM     30  O   UNL     1       6.167   3.847  18.408  0.00  0.00    +0.000 OA
ATOM     31  H   UNL     1       7.000   3.937  17.916  0.00  0.00    +0.000 HD
ENDBRANCH  29  30
ENDBRANCH  17  25
ENDBRANCH   1  17
TORSDOF 5
ENDMDL
MODEL 7
REMARK VINA RESULT:      -8.1      1.931      2.964
REMARK  Name = 
REMARK  6 active torsions:
REMARK  status: ('A' for Active; 'I' for Inactive)
REMARK    1  A    between atoms: C_1  and  C_2
REMARK    2  A    between atoms: C_8  and  C_9
REMARK    3  A    between atoms: C_9  and  C_10
REMARK    4  A    between atoms: C_10  and  N_11
REMARK    5  A    between atoms: N_14  and  C_15
REMARK    6  A    between atoms: C_29  and  O_30
REMARK                            x       y       z     vdW  Elec       q    Type
REMARK                         _______ _______ _______ _____ _____    ______ ____
ROOT
ATOM      1  C   UNL     1       0.598  10.780  20.338  0.00  0.00    +0.000 C 
ENDROOT
BRANCH   1   2
ATOM      2  N   UNL     1       1.157   9.531  19.862  0.00  0.00    +0.000 NA
ATOM      3  C   UNL     1       1.127   9.319  18.407  0.00  0.00    +0.000 C 
ATOM      4  C   UNL     1       2.354   8.465  18.002  0.00  0.00    +0.000 C 
ATOM      5  N   UNL     1       2.278   7.193  18.737  0.00  0.00    +0.000 N 
ATOM      6  C   UNL     1       2.239   7.356  20.204  0.00  0.00    +0.000 C 
ATOM      7  C   UNL     1       1.043   8.270  20.598  0.00  0.00    +0.000 C 
BRANCH   5   8
ATOM      8  C   UNL     1       2.795   6.023  18.180  0.00  0.00    +0.000 A 
ATOM      9  C   UNL     1       1.938   4.899  18.121  0.00  0.00    +0.000 A 
ATOM     10  C   UNL     1       2.293   3.708  17.498  0.00  0.00    +0.000 A 
ATOM     11  C   UNL     1       3.537   3.579  16.894  0.00  0.00    +0.000 A 
ATOM     12  C   UNL     1       4.414   4.673  16.940  0.00  0.00    +0.000 A 
ATOM     13  S   UNL     1       6.001   4.781  16.267  0.00  0.00    +0.000 S 
ATOM     14  C   UNL     1       6.133   6.380  16.851  0.00  0.00    +0.000 A 
ATOM     15  N   UNL     1       5.096   6.850  17.499  0.00  0.00    +0.000 NA
ATOM     16  C   UNL     1       4.082   5.883  17.562  0.00  0.00    +0.000 A 
ENDBRANCH   5   8
ENDBRANCH   1   2
BRANCH   1  17
ATOM     17  C   UNL     1       0.041  11.709  19.247  0.00  0.00    +0.000 C 
BRANCH  17  25
ATOM     18  C   UNL     1      -1.126  13.323  21.564  0.00  0.00    +0.000 C 
ATOM     19  C   UNL     1      -1.964  12.714  20.467  0.00  0.00    +0.000 A 
ATOM     20  N   UNL     1      -3.305  12.947  20.598  0.00  0.00    +0.000 NA
ATOM     21  C   UNL     1      -4.123  12.423  19.742  0.00  0.00    +0.000 A 
ATOM     22  N   UNL     1      -3.718  11.632  18.696  0.00  0.00    +0.000 N 
ATOM     23  C   UNL     1      -2.366  11.482  18.428  0.00  0.00    +0.000 A 
ATOM     24  O   UNL     1      -1.938  10.942  17.404  0.00  0.00    +0.000 OA
ATOM     25  C   UNL     1      -1.422  12.025  19.447  0.00  0.00    +0.000 A 
ATOM     26  C   UNL     1      -4.629  11.142  17.671  0.00  0.00    +0.000 C 
ATOM     27  C   UNL     1      -6.087  11.097  18.092  0.00  0.00    +0.000 C 
ATOM     28  C   UNL     1      -6.468  12.423  18.727  0.00  0.00    +0.000 C 
ATOM     29  C   UNL     1      -5.629  12.645  19.974  0.00  0.00    +0.000 C 
BRANCH  29  30
ATOM     30  O   UNL     1      -6.112  11.799  21.015  0.00  0.00    +0.000 OA
ATOM     31  H   UNL     1      -6.188  10.897  20.664  0.00  0.00    +0.000 HD
ENDBRANCH  29  30
ENDBRANCH  17  25
ENDBRANCH   1  17
TORSDOF 5
ENDMDL
MODEL 8
REMARK VINA RESULT:      -8.1      1.258      1.338
REMARK  Name = 
REMARK  6 active torsions:
REMARK  status: ('A' for Active; 'I' for Inactive)
REMARK    1  A    between atoms: C_1  and  C_2
REMARK    2  A    between atoms: C_8  and  C_9
REMARK    3  A    between atoms: C_9  and  C_10
REMARK    4  A    between atoms: C_10  and  N_11
REMARK    5  A    between atoms: N_14  and  C_15
REMARK    6  A    between atoms: C_29  and  O_30
REMARK                            x       y       z     vdW  Elec       q    Type
REMARK                         _______ _______ _______ _____ _____    ______ ____
ROOT
ATOM      1  C   UNL     1       0.404  10.565  20.140  0.00  0.00    +0.000 C 
ENDROOT
BRANCH   1   2
ATOM      2  N   UNL     1       1.085   9.383  19.651  0.00  0.00    +0.000 NA
ATOM      3  C   UNL     1       1.180   9.246  18.189  0.00  0.00    +0.000 C 
ATOM      4  C   UNL     1       2.492   8.501  17.843  0.00  0.00    +0.000 C 
ATOM      5  N   UNL     1       2.453   7.189  18.510  0.00  0.00    +0.000 N 
ATOM      6  C   UNL     1       2.291   7.272  19.975  0.00  0.00    +0.000 C 
ATOM      7  C   UNL     1       1.007   8.081  20.315  0.00  0.00    +0.000 C 
BRANCH   5   8
ATOM      8  C   UNL     1       3.093   6.088  17.940  0.00  0.00    +0.000 A 
ATOM      9  C   UNL     1       4.304   6.327  17.248  0.00  0.00    +0.000 A 
ATOM     10  C   UNL     1       5.091   5.307  16.727  0.00  0.00    +0.000 A 
ATOM     11  C   UNL     1       4.705   3.981  16.873  0.00  0.00    +0.000 A 
ATOM     12  C   UNL     1       3.506   3.709  17.550  0.00  0.00    +0.000 A 
ATOM     13  S   UNL     1       2.806   2.164  17.876  0.00  0.00    +0.000 S 
ATOM     14  C   UNL     1       1.501   2.930  18.666  0.00  0.00    +0.000 A 
ATOM     15  N   UNL     1       1.539   4.238  18.719  0.00  0.00    +0.000 NA
ATOM     16  C   UNL     1       2.693   4.717  18.083  0.00  0.00    +0.000 A 
ENDBRANCH   5   8
ENDBRANCH   1   2
BRANCH   1  17
ATOM     17  C   UNL     1      -0.115  11.521  19.053  0.00  0.00    +0.000 C 
BRANCH  17  25
ATOM     18  C   UNL     1      -1.977  10.072  17.112  0.00  0.00    +0.000 C 
ATOM     19  C   UNL     1      -2.462  11.013  18.188  0.00  0.00    +0.000 A 
ATOM     20  N   UNL     1      -3.821  11.166  18.221  0.00  0.00    +0.000 NA
ATOM     21  C   UNL     1      -4.342  11.994  19.068  0.00  0.00    +0.000 A 
ATOM     22  N   UNL     1      -3.600  12.742  19.947  0.00  0.00    +0.000 N 
ATOM     23  C   UNL     1      -2.236  12.523  20.060  0.00  0.00    +0.000 A 
ATOM     24  O   UNL     1      -1.543  13.024  20.950  0.00  0.00    +0.000 OA
ATOM     25  C   UNL     1      -1.621  11.623  19.042  0.00  0.00    +0.000 A 
ATOM     26  C   UNL     1      -4.197  13.584  20.975  0.00  0.00    +0.000 C 
ATOM     27  C   UNL     1      -5.629  14.003  20.695  0.00  0.00    +0.000 C 
ATOM     28  C   UNL     1      -6.440  12.783  20.294  0.00  0.00    +0.000 C 
ATOM     29  C   UNL     1      -5.869  12.193  19.017  0.00  0.00    +0.000 C 
BRANCH  29  30
ATOM     30  O   UNL     1      -6.234  13.024  17.917  0.00  0.00    +0.000 OA
ATOM     31  H   UNL     1      -6.244  12.479  17.113  0.00  0.00    +0.000 HD
ENDBRANCH  29  30
ENDBRANCH  17  25
ENDBRANCH   1  17
TORSDOF 5
ENDMDL
MODEL 9
REMARK VINA RESULT:      -8.1      1.670      2.819
REMARK  Name = 
REMARK  6 active torsions:
REMARK  status: ('A' for Active; 'I' for Inactive)
REMARK    1  A    between atoms: C_1  and  C_2
REMARK    2  A    between atoms: C_8  and  C_9
REMARK    3  A    between atoms: C_9  and  C_10
REMARK    4  A    between atoms: C_10  and  N_11
REMARK    5  A    between atoms: N_14  and  C_15
REMARK    6  A    between atoms: C_29  and  O_30
REMARK                            x       y       z     vdW  Elec       q    Type
REMARK                         _______ _______ _______ _____ _____    ______ ____
ROOT
ATOM      1  C   UNL     1      -0.698  11.535  22.307  0.00  0.00    +0.000 C 
ENDROOT
BRANCH   1   2
ATOM      2  N   UNL     1       0.024  10.598  21.470  0.00  0.00    +0.000 NA
ATOM      3  C   UNL     1       0.787   9.554  22.172  0.00  0.00    +0.000 C 
ATOM      4  C   UNL     1       0.808   8.278  21.295  0.00  0.00    +0.000 C 
ATOM      5  N   UNL     1       1.426   8.628  20.006  0.00  0.00    +0.000 N 
ATOM      6  C   UNL     1       0.735   9.720  19.292  0.00  0.00    +0.000 C 
ATOM      7  C   UNL     1       0.658  10.977  20.205  0.00  0.00    +0.000 C 
BRANCH   5   8
ATOM      8  C   UNL     1       2.153   7.677  19.289  0.00  0.00    +0.000 A 
ATOM      9  C   UNL     1       2.818   8.114  18.120  0.00  0.00    +0.000 A 
ATOM     10  C   UNL     1       3.657   7.294  17.375  0.00  0.00    +0.000 A 
ATOM     11  C   UNL     1       3.878   5.979  17.765  0.00  0.00    +0.000 A 
ATOM     12  C   UNL     1       3.228   5.512  18.918  0.00  0.00    +0.000 A 
ATOM     13  S   UNL     1       3.334   3.938  19.623  0.00  0.00    +0.000 S 
ATOM     14  C   UNL     1       2.256   4.425  20.853  0.00  0.00    +0.000 A 
ATOM     15  N   UNL     1       1.825   5.660  20.795  0.00  0.00    +0.000 NA
ATOM     16  C   UNL     1       2.376   6.316  19.685  0.00  0.00    +0.000 A 
ENDBRANCH   5   8
ENDBRANCH   1   2
BRANCH   1  17
ATOM     17  C   UNL     1      -1.287  12.751  21.574  0.00  0.00    +0.000 C 
BRANCH  17  25
ATOM     18  C   UNL     1      -3.465  12.950  23.707  0.00  0.00    +0.000 C 
ATOM     19  C   UNL     1      -3.747  12.678  22.249  0.00  0.00    +0.000 A 
ATOM     20  N   UNL     1      -5.075  12.527  21.960  0.00  0.00    +0.000 NA
ATOM     21  C   UNL     1      -5.428  12.234  20.749  0.00  0.00    +0.000 A 
ATOM     22  N   UNL     1      -4.533  12.063  19.723  0.00  0.00    +0.000 N 
ATOM     23  C   UNL     1      -3.191  12.347  19.922  0.00  0.00    +0.000 A 
ATOM     24  O   UNL     1      -2.367  12.392  19.004  0.00  0.00    +0.000 OA
ATOM     25  C   UNL     1      -2.771  12.616  21.328  0.00  0.00    +0.000 A 
ATOM     26  C   UNL     1      -4.940  11.850  18.340  0.00  0.00    +0.000 C 
ATOM     27  C   UNL     1      -6.348  11.307  18.174  0.00  0.00    +0.000 C 
ATOM     28  C   UNL     1      -7.306  12.126  19.021  0.00  0.00    +0.000 C 
ATOM     29  C   UNL     1      -6.926  11.995  20.485  0.00  0.00    +0.000 C 
BRANCH  29  30
ATOM     30  O   UNL     1      -7.324  10.708  20.954  0.00  0.00    +0.000 OA
ATOM     31  H   UNL     1      -6.632  10.374  21.548  0.00  0.00    +0.000 HD
ENDBRANCH  29  30
ENDBRANCH  17  25
ENDBRANCH   1  17
TORSDOF 5
ENDMDL
