MODEL 1
REMARK VINA RESULT:      -7.8      0.000      0.000
REMARK  Name = 
REMARK  10 active torsions:
REMARK  status: ('A' for Active; 'I' for Inactive)
REMARK    1  A    between atoms: C_1  and  C_2
REMARK    2  A    between atoms: C_2  and  C_3
REMARK    3  A    between atoms: C_6  and  N_7
REMARK    4  A    between atoms: C_8  and  C_10
REMARK    5  A    between atoms: C_10  and  N_11
REMARK    6  A    between atoms: N_11  and  C_12
REMARK    7  A    between atoms: N_11  and  S_13
REMARK    8  A    between atoms: S_13  and  C_16
REMARK    9  A    between atoms: N_24  and  C_25
REMARK   10  A    between atoms: N_28  and  C_29
REMARK                            x       y       z     vdW  Elec       q    Type
REMARK                         _______ _______ _______ _____ _____    ______ ____
ROOT
ATOM      1  S   UNL     1      -0.397  12.009  21.969  0.00  0.00    +0.000 S 
ATOM      2  O   UNL     1      -1.024  12.344  23.245  0.00  0.00    +0.000 OA
ATOM      3  O   UNL     1       0.821  12.656  21.548  0.00  0.00    +0.000 OA
ENDROOT
BRANCH   1   4
ATOM      4  C   UNL     1      -1.607  12.281  20.690  0.00  0.00    +0.000 A 
ATOM      5  C   UNL     1      -1.671  11.528  19.507  0.00  0.00    +0.000 A 
ATOM      6  C   UNL     1      -2.874  11.502  18.759  0.00  0.00    +0.000 A 
ATOM      7  C   UNL     1      -3.973  12.231  19.227  0.00  0.00    +0.000 A 
ATOM      8  C   UNL     1      -3.760  13.171  20.214  0.00  0.00    +0.000 A 
ATOM      9  C   UNL     1      -2.638  13.147  21.020  0.00  0.00    +0.000 A 
ATOM     10  C   UNL     1      -4.944  13.773  20.787  0.00  0.00    +0.000 A 
ATOM     11  O   UNL     1      -5.063  14.972  20.926  0.00  0.00    +0.000 OA
ATOM     12  N   UNL     1      -5.754  12.764  21.217  0.00  0.00    +0.000 N 
ATOM     13  C   UNL     1      -6.119  12.780  22.605  0.00  0.00    +0.000 C 
ATOM     14  C   UNL     1      -6.147  11.812  20.289  0.00  0.00    +0.000 A 
ATOM     15  O   UNL     1      -7.141  11.107  20.435  0.00  0.00    +0.000 OA
ATOM     16  N   UNL     1      -5.317  11.753  19.132  0.00  0.00    +0.000 N 
ATOM     17  C   UNL     1      -5.952  11.561  17.852  0.00  0.00    +0.000 C 
ENDBRANCH   1   4
BRANCH   1  18
ATOM     18  N   UNL     1      -0.149  10.326  21.926  0.00  0.00    +0.000 NA
ATOM     19  C   UNL     1      -0.651   9.564  23.103  0.00  0.00    +0.000 C 
BRANCH  18  20
ATOM     20  C   UNL     1       1.227   9.948  21.522  0.00  0.00    +0.000 C 
BRANCH  20  22
ATOM     21  N   UNL     1       1.836   7.702  20.823  0.00  0.00    +0.000 N 
ATOM     22  C   UNL     1       1.245   8.897  20.430  0.00  0.00    +0.000 C 
ATOM     23  O   UNL     1       0.759   9.163  19.340  0.00  0.00    +0.000 OA
ATOM     24  H   UNL     1       2.219   7.670  21.762  0.00  0.00    +0.000 HD
BRANCH  21  28
ATOM     25  C   UNL     1       2.383   4.264  18.405  0.00  0.00    +0.000 A 
ATOM     26  C   UNL     1       1.687   4.165  19.611  0.00  0.00    +0.000 A 
ATOM     27  C   UNL     1       1.490   5.292  20.413  0.00  0.00    +0.000 A 
ATOM     28  C   UNL     1       1.970   6.541  20.026  0.00  0.00    +0.000 A 
ATOM     29  C   UNL     1       2.633   6.653  18.796  0.00  0.00    +0.000 A 
ATOM     30  C   UNL     1       2.837   5.522  17.993  0.00  0.00    +0.000 A 
BRANCH  25  32
ATOM     31  C   UNL     1       3.298   1.919  18.371  0.00  0.00    +0.000 C 
ATOM     32  C   UNL     1       2.618   3.026  17.580  0.00  0.00    +0.000 C 
ENDBRANCH  25  32
ENDBRANCH  21  28
ENDBRANCH  20  22
ENDBRANCH  18  20
ENDBRANCH   1  18
TORSDOF 6
ENDMDL
MODEL 2
REMARK VINA RESULT:      -7.7      0.677      1.079
REMARK  Name = 
REMARK  10 active torsions:
REMARK  status: ('A' for Active; 'I' for Inactive)
REMARK    1  A    between atoms: C_1  and  C_2
REMARK    2  A    between atoms: C_2  and  C_3
REMARK    3  A    between atoms: C_6  and  N_7
REMARK    4  A    between atoms: C_8  and  C_10
REMARK    5  A    between atoms: C_10  and  N_11
REMARK    6  A    between atoms: N_11  and  C_12
REMARK    7  A    between atoms: N_11  and  S_13
REMARK    8  A    between atoms: S_13  and  C_16
REMARK    9  A    between atoms: N_24  and  C_25
REMARK   10  A    between atoms: N_28  and  C_29
REMARK                            x       y       z     vdW  Elec       q    Type
REMARK                         _______ _______ _______ _____ _____    ______ ____
ROOT
ATOM      1  S   UNL     1       0.041  11.932  21.670  0.00  0.00    +0.000 S 
ATOM      2  O   UNL     1      -0.335  12.687  22.862  0.00  0.00    +0.000 OA
ATOM      3  O   UNL     1       1.303  12.162  21.012  0.00  0.00    +0.000 OA
ENDROOT
BRANCH   1   4
ATOM      4  C   UNL     1      -1.238  12.176  20.454  0.00  0.00    +0.000 A 
ATOM      5  C   UNL     1      -1.387  11.375  19.311  0.00  0.00    +0.000 A 
ATOM      6  C   UNL     1      -2.633  11.343  18.637  0.00  0.00    +0.000 A 
ATOM      7  C   UNL     1      -3.688  12.113  19.137  0.00  0.00    +0.000 A 
ATOM      8  C   UNL     1      -3.398  13.090  20.069  0.00  0.00    +0.000 A 
ATOM      9  C   UNL     1      -2.231  13.076  20.807  0.00  0.00    +0.000 A 
ATOM     10  C   UNL     1      -4.535  13.740  20.684  0.00  0.00    +0.000 A 
ATOM     11  O   UNL     1      -4.623  14.946  20.779  0.00  0.00    +0.000 OA
ATOM     12  N   UNL     1      -5.337  12.767  21.205  0.00  0.00    +0.000 N 
ATOM     13  C   UNL     1      -5.617  12.849  22.610  0.00  0.00    +0.000 C 
ATOM     14  C   UNL     1      -5.802  11.786  20.343  0.00  0.00    +0.000 A 
ATOM     15  O   UNL     1      -6.798  11.108  20.578  0.00  0.00    +0.000 OA
ATOM     16  N   UNL     1      -5.044  11.660  19.142  0.00  0.00    +0.000 N 
ATOM     17  C   UNL     1      -5.759  11.429  17.912  0.00  0.00    +0.000 C 
ENDBRANCH   1   4
BRANCH   1  18
ATOM     18  N   UNL     1      -0.072  10.274  22.036  0.00  0.00    +0.000 NA
ATOM     19  C   UNL     1      -0.696   9.938  23.346  0.00  0.00    +0.000 C 
BRANCH  18  20
ATOM     20  C   UNL     1       1.182   9.528  21.771  0.00  0.00    +0.000 C 
BRANCH  20  22
ATOM     21  N   UNL     1       2.067   7.633  20.534  0.00  0.00    +0.000 N 
ATOM     22  C   UNL     1       0.933   8.181  21.124  0.00  0.00    +0.000 C 
ATOM     23  O   UNL     1      -0.188   7.697  21.169  0.00  0.00    +0.000 OA
ATOM     24  H   UNL     1       2.912   8.194  20.564  0.00  0.00    +0.000 HD
BRANCH  21  28
ATOM     25  C   UNL     1       2.155   3.839  18.648  0.00  0.00    +0.000 A 
ATOM     26  C   UNL     1       2.484   4.985  17.924  0.00  0.00    +0.000 A 
ATOM     27  C   UNL     1       2.470   6.242  18.535  0.00  0.00    +0.000 A 
ATOM     28  C   UNL     1       2.140   6.381  19.881  0.00  0.00    +0.000 A 
ATOM     29  C   UNL     1       1.849   5.227  20.623  0.00  0.00    +0.000 A 
ATOM     30  C   UNL     1       1.856   3.967  20.009  0.00  0.00    +0.000 A 
BRANCH  25  32
ATOM     31  C   UNL     1       3.407   1.701  18.201  0.00  0.00    +0.000 C 
ATOM     32  C   UNL     1       2.138   2.502  17.954  0.00  0.00    +0.000 C 
ENDBRANCH  25  32
ENDBRANCH  21  28
ENDBRANCH  20  22
ENDBRANCH  18  20
ENDBRANCH   1  18
TORSDOF 6
ENDMDL
MODEL 3
REMARK VINA RESULT:      -7.6      4.201      7.249
REMARK  Name = 
REMARK  10 active torsions:
REMARK  status: ('A' for Active; 'I' for Inactive)
REMARK    1  A    between atoms: C_1  and  C_2
REMARK    2  A    between atoms: C_2  and  C_3
REMARK    3  A    between atoms: C_6  and  N_7
REMARK    4  A    between atoms: C_8  and  C_10
REMARK    5  A    between atoms: C_10  and  N_11
REMARK    6  A    between atoms: N_11  and  C_12
REMARK    7  A    between atoms: N_11  and  S_13
REMARK    8  A    between atoms: S_13  and  C_16
REMARK    9  A    between atoms: N_24  and  C_25
REMARK   10  A    between atoms: N_28  and  C_29
REMARK                            x       y       z     vdW  Elec       q    Type
REMARK                         _______ _______ _______ _____ _____    ______ ____
ROOT
ATOM      1  S   UNL     1       1.832   4.088  20.227  0.00  0.00    +0.000 S 
ATOM      2  O   UNL     1       0.404   3.972  20.508  0.00  0.00    +0.000 OA
ATOM      3  O   UNL     1       2.816   3.696  21.204  0.00  0.00    +0.000 OA
ENDROOT
BRANCH   1   4
ATOM      4  C   UNL     1       2.159   5.788  19.804  0.00  0.00    +0.000 A 
ATOM      5  C   UNL     1       2.341   6.241  18.488  0.00  0.00    +0.000 A 
ATOM      6  C   UNL     1       2.168   7.616  18.191  0.00  0.00    +0.000 A 
ATOM      7  C   UNL     1       1.814   8.488  19.227  0.00  0.00    +0.000 A 
ATOM      8  C   UNL     1       1.940   8.042  20.527  0.00  0.00    +0.000 A 
ATOM      9  C   UNL     1       2.007   6.699  20.838  0.00  0.00    +0.000 A 
ATOM     10  C   UNL     1       1.401   8.909  21.552  0.00  0.00    +0.000 A 
ATOM     11  O   UNL     1       2.026   9.209  22.547  0.00  0.00    +0.000 OA
ATOM     12  N   UNL     1       0.101   9.171  21.231  0.00  0.00    +0.000 N 
ATOM     13  C   UNL     1      -0.885   8.822  22.214  0.00  0.00    +0.000 C 
ATOM     14  C   UNL     1      -0.155   9.738  19.993  0.00  0.00    +0.000 A 
ATOM     15  O   UNL     1      -1.185  10.358  19.742  0.00  0.00    +0.000 OA
ATOM     16  N   UNL     1       0.899   9.571  19.048  0.00  0.00    +0.000 N 
ATOM     17  C   UNL     1       1.214  10.680  18.183  0.00  0.00    +0.000 C 
ENDBRANCH   1   4
BRANCH   1  18
ATOM     18  N   UNL     1       2.156   3.253  18.780  0.00  0.00    +0.000 NA
ATOM     19  C   UNL     1       1.148   2.232  18.379  0.00  0.00    +0.000 C 
BRANCH  18  20
ATOM     20  C   UNL     1       3.556   2.770  18.684  0.00  0.00    +0.000 C 
BRANCH  20  22
ATOM     21  N   UNL     1       5.134   4.603  18.914  0.00  0.00    +0.000 N 
ATOM     22  C   UNL     1       4.473   3.774  18.015  0.00  0.00    +0.000 C 
ATOM     23  O   UNL     1       4.562   3.778  16.796  0.00  0.00    +0.000 OA
ATOM     24  H   UNL     1       4.912   4.479  19.896  0.00  0.00    +0.000 HD
BRANCH  21  28
ATOM     25  C   UNL     1       7.814   7.728  17.907  0.00  0.00    +0.000 A 
ATOM     26  C   UNL     1       8.162   6.801  18.889  0.00  0.00    +0.000 A 
ATOM     27  C   UNL     1       7.294   5.759  19.224  0.00  0.00    +0.000 A 
ATOM     28  C   UNL     1       6.067   5.612  18.580  0.00  0.00    +0.000 A 
ATOM     29  C   UNL     1       5.731   6.517  17.564  0.00  0.00    +0.000 A 
ATOM     30  C   UNL     1       6.599   7.567  17.231  0.00  0.00    +0.000 A 
BRANCH  25  32
ATOM     31  C   UNL     1       8.911   9.826  18.764  0.00  0.00    +0.000 C 
ATOM     32  C   UNL     1       8.751   8.866  17.594  0.00  0.00    +0.000 C 
ENDBRANCH  25  32
ENDBRANCH  21  28
ENDBRANCH  20  22
ENDBRANCH  18  20
ENDBRANCH   1  18
TORSDOF 6
ENDMDL
MODEL 4
REMARK VINA RESULT:      -7.5      8.027     11.209
REMARK  Name = 
REMARK  10 active torsions:
REMARK  status: ('A' for Active; 'I' for Inactive)
REMARK    1  A    between atoms: C_1  and  C_2
REMARK    2  A    between atoms: C_2  and  C_3
REMARK    3  A    between atoms: C_6  and  N_7
REMARK    4  A    between atoms: C_8  and  C_10
REMARK    5  A    between atoms: C_10  and  N_11
REMARK    6  A    between atoms: N_11  and  C_12
REMARK    7  A    between atoms: N_11  and  S_13
REMARK    8  A    between atoms: S_13  and  C_16
REMARK    9  A    between atoms: N_24  and  C_25
REMARK   10  A    between atoms: N_28  and  C_29
REMARK                            x       y       z     vdW  Elec       q    Type
REMARK                         _______ _______ _______ _____ _____    ______ ____
ROOT
ATOM      1  S   UNL     1       5.890   6.068  16.460  0.00  0.00    +0.000 S 
ATOM      2  O   UNL     1       5.675   7.443  16.018  0.00  0.00    +0.000 OA
ATOM      3  O   UNL     1       5.735   4.962  15.548  0.00  0.00    +0.000 OA
ENDROOT
BRANCH   1   4
ATOM      4  C   UNL     1       4.799   5.771  17.838  0.00  0.00    +0.000 A 
ATOM      5  C   UNL     1       3.652   6.536  18.100  0.00  0.00    +0.000 A 
ATOM      6  C   UNL     1       2.628   6.002  18.921  0.00  0.00    +0.000 A 
ATOM      7  C   UNL     1       2.789   4.715  19.445  0.00  0.00    +0.000 A 
ATOM      8  C   UNL     1       4.045   4.143  19.397  0.00  0.00    +0.000 A 
ATOM      9  C   UNL     1       5.021   4.590  18.529  0.00  0.00    +0.000 A 
ATOM     10  C   UNL     1       4.127   2.754  19.790  0.00  0.00    +0.000 A 
ATOM     11  O   UNL     1       4.959   2.345  20.573  0.00  0.00    +0.000 OA
ATOM     12  N   UNL     1       3.226   2.057  19.039  0.00  0.00    +0.000 N 
ATOM     13  C   UNL     1       3.745   0.976  18.251  0.00  0.00    +0.000 C 
ATOM     14  C   UNL     1       1.898   2.454  19.093  0.00  0.00    +0.000 A 
ATOM     15  O   UNL     1       0.967   1.713  18.793  0.00  0.00    +0.000 OA
ATOM     16  N   UNL     1       1.709   3.786  19.564  0.00  0.00    +0.000 N 
ATOM     17  C   UNL     1       0.601   4.039  20.450  0.00  0.00    +0.000 C 
ENDBRANCH   1   4
BRANCH   1  18
ATOM     18  N   UNL     1       7.440   5.971  17.155  0.00  0.00    +0.000 NA
ATOM     19  C   UNL     1       7.989   4.597  17.331  0.00  0.00    +0.000 C 
BRANCH  18  20
ATOM     20  C   UNL     1       7.598   6.827  18.356  0.00  0.00    +0.000 C 
BRANCH  20  22
ATOM     21  N   UNL     1       8.682   8.846  19.164  0.00  0.00    +0.000 N 
ATOM     22  C   UNL     1       8.236   8.164  18.037  0.00  0.00    +0.000 C 
ATOM     23  O   UNL     1       8.312   8.525  16.872  0.00  0.00    +0.000 OA
ATOM     24  H   UNL     1       8.504   8.408  20.062  0.00  0.00    +0.000 HD
BRANCH  21  28
ATOM     25  C   UNL     1      10.735  12.551  19.295  0.00  0.00    +0.000 A 
ATOM     26  C   UNL     1      10.390  11.989  18.066  0.00  0.00    +0.000 A 
ATOM     27  C   UNL     1       9.703  10.773  18.007  0.00  0.00    +0.000 A 
ATOM     28  C   UNL     1       9.336  10.100  19.170  0.00  0.00    +0.000 A 
ATOM     29  C   UNL     1       9.645  10.681  20.407  0.00  0.00    +0.000 A 
ATOM     30  C   UNL     1      10.340  11.898  20.468  0.00  0.00    +0.000 A 
BRANCH  25  32
ATOM     31  C   UNL     1      10.625  15.061  19.129  0.00  0.00    +0.000 C 
ATOM     32  C   UNL     1      11.513  13.842  19.329  0.00  0.00    +0.000 C 
ENDBRANCH  25  32
ENDBRANCH  21  28
ENDBRANCH  20  22
ENDBRANCH  18  20
ENDBRANCH   1  18
TORSDOF 6
ENDMDL
MODEL 5
REMARK VINA RESULT:      -7.5      4.321      7.356
REMARK  Name = 
REMARK  10 active torsions:
REMARK  status: ('A' for Active; 'I' for Inactive)
REMARK    1  A    between atoms: C_1  and  C_2
REMARK    2  A    between atoms: C_2  and  C_3
REMARK    3  A    between atoms: C_6  and  N_7
REMARK    4  A    between atoms: C_8  and  C_10
REMARK    5  A    between atoms: C_10  and  N_11
REMARK    6  A    between atoms: N_11  and  C_12
REMARK    7  A    between atoms: N_11  and  S_13
REMARK    8  A    between atoms: S_13  and  C_16
REMARK    9  A    between atoms: N_24  and  C_25
REMARK   10  A    between atoms: N_28  and  C_29
REMARK                            x       y       z     vdW  Elec       q    Type
REMARK                         _______ _______ _______ _____ _____    ______ ____
ROOT
ATOM      1  S   UNL     1       1.426   3.946  19.415  0.00  0.00    +0.000 S 
ATOM      2  O   UNL     1       1.184   3.431  18.070  0.00  0.00    +0.000 OA
ATOM      3  O   UNL     1       0.384   3.938  20.412  0.00  0.00    +0.000 OA
ENDROOT
BRANCH   1   4
ATOM      4  C   UNL     1       1.985   5.630  19.253  0.00  0.00    +0.000 A 
ATOM      5  C   UNL     1       2.340   6.217  18.028  0.00  0.00    +0.000 A 
ATOM      6  C   UNL     1       2.356   7.629  17.907  0.00  0.00    +0.000 A 
ATOM      7  C   UNL     1       2.010   8.403  19.020  0.00  0.00    +0.000 A 
ATOM      8  C   UNL     1       1.963   7.786  20.254  0.00  0.00    +0.000 A 
ATOM      9  C   UNL     1       1.844   6.417  20.385  0.00  0.00    +0.000 A 
ATOM     10  C   UNL     1       1.435   8.580  21.342  0.00  0.00    +0.000 A 
ATOM     11  O   UNL     1       1.995   8.671  22.414  0.00  0.00    +0.000 OA
ATOM     12  N   UNL     1       0.209   9.042  20.961  0.00  0.00    +0.000 N 
ATOM     13  C   UNL     1      -0.898   8.702  21.809  0.00  0.00    +0.000 C 
ATOM     14  C   UNL     1       0.136   9.787  19.795  0.00  0.00    +0.000 A 
ATOM     15  O   UNL     1      -0.787  10.559  19.552  0.00  0.00    +0.000 OA
ATOM     16  N   UNL     1       1.247   9.607  18.920  0.00  0.00    +0.000 N 
ATOM     17  C   UNL     1       1.768  10.766  18.239  0.00  0.00    +0.000 C 
ENDBRANCH   1   4
BRANCH   1  18
ATOM     18  N   UNL     1       2.781   3.140  20.056  0.00  0.00    +0.000 NA
ATOM     19  C   UNL     1       2.676   2.726  21.483  0.00  0.00    +0.000 C 
BRANCH  18  20
ATOM     20  C   UNL     1       4.066   3.803  19.726  0.00  0.00    +0.000 C 
BRANCH  20  22
ATOM     21  N   UNL     1       5.153   4.617  17.711  0.00  0.00    +0.000 N 
ATOM     22  C   UNL     1       4.511   3.535  18.303  0.00  0.00    +0.000 C 
ATOM     23  O   UNL     1       4.288   2.441  17.805  0.00  0.00    +0.000 OA
ATOM     24  H   UNL     1       5.221   5.464  18.265  0.00  0.00    +0.000 HD
BRANCH  21  28
ATOM     25  C   UNL     1       6.914   4.661  13.857  0.00  0.00    +0.000 A 
ATOM     26  C   UNL     1       5.616   4.176  14.025  0.00  0.00    +0.000 A 
ATOM     27  C   UNL     1       5.019   4.165  15.288  0.00  0.00    +0.000 A 
ATOM     28  C   UNL     1       5.696   4.648  16.406  0.00  0.00    +0.000 A 
ATOM     29  C   UNL     1       6.984   5.173  16.234  0.00  0.00    +0.000 A 
ATOM     30  C   UNL     1       7.587   5.179  14.969  0.00  0.00    +0.000 A 
BRANCH  25  32
ATOM     31  C   UNL     1       6.903   3.592  11.577  0.00  0.00    +0.000 C 
ATOM     32  C   UNL     1       7.550   4.621  12.491  0.00  0.00    +0.000 C 
ENDBRANCH  25  32
ENDBRANCH  21  28
ENDBRANCH  20  22
ENDBRANCH  18  20
ENDBRANCH   1  18
TORSDOF 6
ENDMDL
MODEL 6
REMARK VINA RESULT:      -7.4      3.785      5.239
REMARK  Name = 
REMARK  10 active torsions:
REMARK  status: ('A' for Active; 'I' for Inactive)
REMARK    1  A    between atoms: C_1  and  C_2
REMARK    2  A    between atoms: C_2  and  C_3
REMARK    3  A    between atoms: C_6  and  N_7
REMARK    4  A    between atoms: C_8  and  C_10
REMARK    5  A    between atoms: C_10  and  N_11
REMARK    6  A    between atoms: N_11  and  C_12
REMARK    7  A    between atoms: N_11  and  S_13
REMARK    8  A    between atoms: S_13  and  C_16
REMARK    9  A    between atoms: N_24  and  C_25
REMARK   10  A    between atoms: N_28  and  C_29
REMARK                            x       y       z     vdW  Elec       q    Type
REMARK                         _______ _______ _______ _____ _____    ______ ____
ROOT
ATOM      1  S   UNL     1      -0.570  10.828  20.429  0.00  0.00    +0.000 S 
ATOM      2  O   UNL     1      -1.074  10.165  19.229  0.00  0.00    +0.000 OA
ATOM      3  O   UNL     1      -1.391  11.754  21.167  0.00  0.00    +0.000 OA
ENDROOT
BRANCH   1   4
ATOM      4  C   UNL     1       0.922  11.692  19.977  0.00  0.00    +0.000 A 
ATOM      5  C   UNL     1       1.504  11.623  18.702  0.00  0.00    +0.000 A 
ATOM      6  C   UNL     1       2.406  12.635  18.289  0.00  0.00    +0.000 A 
ATOM      7  C   UNL     1       2.688  13.684  19.170  0.00  0.00    +0.000 A 
ATOM      8  C   UNL     1       2.324  13.540  20.494  0.00  0.00    +0.000 A 
ATOM      9  C   UNL     1       1.371  12.626  20.897  0.00  0.00    +0.000 A 
ATOM     10  C   UNL     1       2.477  14.713  21.327  0.00  0.00    +0.000 A 
ATOM     11  O   UNL     1       3.022  14.676  22.410  0.00  0.00    +0.000 OA
ATOM     12  N   UNL     1       1.805  15.737  20.727  0.00  0.00    +0.000 N 
ATOM     13  C   UNL     1       0.780  16.375  21.502  0.00  0.00    +0.000 C 
ATOM     14  C   UNL     1       2.162  16.068  19.429  0.00  0.00    +0.000 A 
ATOM     15  O   UNL     1       1.927  17.165  18.931  0.00  0.00    +0.000 OA
ATOM     16  N   UNL     1       2.859  15.035  18.736  0.00  0.00    +0.000 N 
ATOM     17  C   UNL     1       3.961  15.414  17.888  0.00  0.00    +0.000 C 
ENDBRANCH   1   4
BRANCH   1  18
ATOM     18  N   UNL     1      -0.021   9.629  21.505  0.00  0.00    +0.000 NA
ATOM     19  C   UNL     1      -0.427   9.797  22.928  0.00  0.00    +0.000 C 
BRANCH  18  20
ATOM     20  C   UNL     1       1.416   9.304  21.335  0.00  0.00    +0.000 C 
BRANCH  20  22
ATOM     21  N   UNL     1       1.664   6.898  21.101  0.00  0.00    +0.000 N 
ATOM     22  C   UNL     1       1.640   8.113  20.425  0.00  0.00    +0.000 C 
ATOM     23  O   UNL     1       1.773   8.298  19.225  0.00  0.00    +0.000 OA
ATOM     24  H   UNL     1       1.570   6.936  22.111  0.00  0.00    +0.000 HD
BRANCH  21  28
ATOM     25  C   UNL     1       2.300   3.072  19.392  0.00  0.00    +0.000 A 
ATOM     26  C   UNL     1       1.074   3.376  19.985  0.00  0.00    +0.000 A 
ATOM     27  C   UNL     1       0.846   4.636  20.543  0.00  0.00    +0.000 A 
ATOM     28  C   UNL     1       1.829   5.623  20.511  0.00  0.00    +0.000 A 
ATOM     29  C   UNL     1       3.047   5.336  19.880  0.00  0.00    +0.000 A 
ATOM     30  C   UNL     1       3.280   4.070  19.326  0.00  0.00    +0.000 A 
BRANCH  25  32
ATOM     31  C   UNL     1       3.792   1.613  17.983  0.00  0.00    +0.000 C 
ATOM     32  C   UNL     1       2.534   1.692  18.835  0.00  0.00    +0.000 C 
ENDBRANCH  25  32
ENDBRANCH  21  28
ENDBRANCH  20  22
ENDBRANCH  18  20
ENDBRANCH   1  18
TORSDOF 6
ENDMDL
MODEL 7
REMARK VINA RESULT:      -7.4      4.099      5.479
REMARK  Name = 
REMARK  10 active torsions:
REMARK  status: ('A' for Active; 'I' for Inactive)
REMARK    1  A    between atoms: C_1  and  C_2
REMARK    2  A    between atoms: C_2  and  C_3
REMARK    3  A    between atoms: C_6  and  N_7
REMARK    4  A    between atoms: C_8  and  C_10
REMARK    5  A    between atoms: C_10  and  N_11
REMARK    6  A    between atoms: N_11  and  C_12
REMARK    7  A    between atoms: N_11  and  S_13
REMARK    8  A    between atoms: S_13  and  C_16
REMARK    9  A    between atoms: N_24  and  C_25
REMARK   10  A    between atoms: N_28  and  C_29
REMARK                            x       y       z     vdW  Elec       q    Type
REMARK                         _______ _______ _______ _____ _____    ______ ____
ROOT
ATOM      1  S   UNL     1       0.559  11.392  20.453  0.00  0.00    +0.000 S 
ATOM      2  O   UNL     1      -0.806  11.904  20.534  0.00  0.00    +0.000 OA
ATOM      3  O   UNL     1       1.204  10.811  21.603  0.00  0.00    +0.000 OA
ENDROOT
BRANCH   1   4
ATOM      4  C   UNL     1       1.598  12.724  19.884  0.00  0.00    +0.000 A 
ATOM      5  C   UNL     1       2.298  12.699  18.668  0.00  0.00    +0.000 A 
ATOM      6  C   UNL     1       2.739  13.915  18.090  0.00  0.00    +0.000 A 
ATOM      7  C   UNL     1       2.458  15.115  18.752  0.00  0.00    +0.000 A 
ATOM      8  C   UNL     1       2.038  15.053  20.065  0.00  0.00    +0.000 A 
ATOM      9  C   UNL     1       1.511  13.900  20.612  0.00  0.00    +0.000 A 
ATOM     10  C   UNL     1       1.594  16.299  20.651  0.00  0.00    +0.000 A 
ATOM     11  O   UNL     1       1.978  16.682  21.736  0.00  0.00    +0.000 OA
ATOM     12  N   UNL     1       0.631  16.819  19.837  0.00  0.00    +0.000 N 
ATOM     13  C   UNL     1      -0.648  17.075  20.436  0.00  0.00    +0.000 C 
ATOM     14  C   UNL     1       0.964  17.048  18.511  0.00  0.00    +0.000 A 
ATOM     15  O   UNL     1       0.354  17.838  17.796  0.00  0.00    +0.000 OA
ATOM     16  N   UNL     1       2.100  16.315  18.062  0.00  0.00    +0.000 N 
ATOM     17  C   UNL     1       3.035  16.982  17.190  0.00  0.00    +0.000 C 
ENDBRANCH   1   4
BRANCH   1  18
ATOM     18  N   UNL     1       0.628  10.267  19.178  0.00  0.00    +0.000 NA
ATOM     19  C   UNL     1      -0.616  10.122  18.371  0.00  0.00    +0.000 C 
BRANCH  18  20
ATOM     20  C   UNL     1       1.228   8.970  19.575  0.00  0.00    +0.000 C 
BRANCH  20  22
ATOM     21  N   UNL     1       2.572   7.101  18.795  0.00  0.00    +0.000 N 
ATOM     22  C   UNL     1       2.069   8.357  18.472  0.00  0.00    +0.000 C 
ATOM     23  O   UNL     1       2.231   8.977  17.432  0.00  0.00    +0.000 OA
ATOM     24  H   UNL     1       2.363   6.751  19.724  0.00  0.00    +0.000 HD
BRANCH  21  28
ATOM     25  C   UNL     1       5.072   4.718  16.340  0.00  0.00    +0.000 A 
ATOM     26  C   UNL     1       3.951   4.153  16.949  0.00  0.00    +0.000 A 
ATOM     27  C   UNL     1       3.112   4.929  17.753  0.00  0.00    +0.000 A 
ATOM     28  C   UNL     1       3.364   6.284  17.956  0.00  0.00    +0.000 A 
ATOM     29  C   UNL     1       4.466   6.864  17.312  0.00  0.00    +0.000 A 
ATOM     30  C   UNL     1       5.313   6.086  16.510  0.00  0.00    +0.000 A 
BRANCH  25  32
ATOM     31  C   UNL     1       5.895   4.161  14.026  0.00  0.00    +0.000 C 
ATOM     32  C   UNL     1       5.984   3.849  15.512  0.00  0.00    +0.000 C 
ENDBRANCH  25  32
ENDBRANCH  21  28
ENDBRANCH  20  22
ENDBRANCH  18  20
ENDBRANCH   1  18
TORSDOF 6
ENDMDL
MODEL 8
REMARK VINA RESULT:      -7.3      1.039      1.158
REMARK  Name = 
REMARK  10 active torsions:
REMARK  status: ('A' for Active; 'I' for Inactive)
REMARK    1  A    between atoms: C_1  and  C_2
REMARK    2  A    between atoms: C_2  and  C_3
REMARK    3  A    between atoms: C_6  and  N_7
REMARK    4  A    between atoms: C_8  and  C_10
REMARK    5  A    between atoms: C_10  and  N_11
REMARK    6  A    between atoms: N_11  and  C_12
REMARK    7  A    between atoms: N_11  and  S_13
REMARK    8  A    between atoms: S_13  and  C_16
REMARK    9  A    between atoms: N_24  and  C_25
REMARK   10  A    between atoms: N_28  and  C_29
REMARK                            x       y       z     vdW  Elec       q    Type
REMARK                         _______ _______ _______ _____ _____    ______ ____
ROOT
ATOM      1  S   UNL     1      -0.101  11.868  20.870  0.00  0.00    +0.000 S 
ATOM      2  O   UNL     1       0.306  13.047  21.628  0.00  0.00    +0.000 OA
ATOM      3  O   UNL     1       0.768  11.289  19.875  0.00  0.00    +0.000 OA
ENDROOT
BRANCH   1   4
ATOM      4  C   UNL     1      -1.641  12.254  20.062  0.00  0.00    +0.000 A 
ATOM      5  C   UNL     1      -2.144  11.539  18.964  0.00  0.00    +0.000 A 
ATOM      6  C   UNL     1      -3.525  11.613  18.654  0.00  0.00    +0.000 A 
ATOM      7  C   UNL     1      -4.354  12.400  19.461  0.00  0.00    +0.000 A 
ATOM      8  C   UNL     1      -3.761  13.296  20.327  0.00  0.00    +0.000 A 
ATOM      9  C   UNL     1      -2.442  13.176  20.717  0.00  0.00    +0.000 A 
ATOM     10  C   UNL     1      -4.646  13.959  21.260  0.00  0.00    +0.000 A 
ATOM     11  O   UNL     1      -4.627  15.159  21.437  0.00  0.00    +0.000 OA
ATOM     12  N   UNL     1      -5.339  12.994  21.930  0.00  0.00    +0.000 N 
ATOM     13  C   UNL     1      -5.226  12.996  23.361  0.00  0.00    +0.000 C 
ATOM     14  C   UNL     1      -6.082  12.096  21.179  0.00  0.00    +0.000 A 
ATOM     15  O   UNL     1      -7.020  11.453  21.641  0.00  0.00    +0.000 OA
ATOM     16  N   UNL     1      -5.685  12.014  19.812  0.00  0.00    +0.000 N 
ATOM     17  C   UNL     1      -6.717  11.900  18.813  0.00  0.00    +0.000 C 
ENDBRANCH   1   4
BRANCH   1  18
ATOM     18  N   UNL     1      -0.530  10.648  21.976  0.00  0.00    +0.000 NA
ATOM     19  C   UNL     1      -1.305  11.094  23.167  0.00  0.00    +0.000 C 
BRANCH  18  20
ATOM     20  C   UNL     1       0.593   9.738  22.309  0.00  0.00    +0.000 C 
BRANCH  20  22
ATOM     21  N   UNL     1       1.725   7.941  21.129  0.00  0.00    +0.000 N 
ATOM     22  C   UNL     1       0.498   8.408  21.589  0.00  0.00    +0.000 C 
ATOM     23  O   UNL     1      -0.593   7.870  21.474  0.00  0.00    +0.000 OA
ATOM     24  H   UNL     1       2.528   8.540  21.285  0.00  0.00    +0.000 HD
BRANCH  21  28
ATOM     25  C   UNL     1       2.526   4.335  19.051  0.00  0.00    +0.000 A 
ATOM     26  C   UNL     1       1.843   4.302  20.268  0.00  0.00    +0.000 A 
ATOM     27  C   UNL     1       1.562   5.483  20.958  0.00  0.00    +0.000 A 
ATOM     28  C   UNL     1       1.944   6.721  20.447  0.00  0.00    +0.000 A 
ATOM     29  C   UNL     1       2.594   6.762  19.206  0.00  0.00    +0.000 A 
ATOM     30  C   UNL     1       2.883   5.577  18.515  0.00  0.00    +0.000 A 
BRANCH  25  32
ATOM     31  C   UNL     1       2.609   3.119  16.848  0.00  0.00    +0.000 C 
ATOM     32  C   UNL     1       2.852   3.043  18.348  0.00  0.00    +0.000 C 
ENDBRANCH  25  32
ENDBRANCH  21  28
ENDBRANCH  20  22
ENDBRANCH  18  20
ENDBRANCH   1  18
TORSDOF 6
ENDMDL
MODEL 9
REMARK VINA RESULT:      -7.3      2.382      3.772
REMARK  Name = 
REMARK  10 active torsions:
REMARK  status: ('A' for Active; 'I' for Inactive)
REMARK    1  A    between atoms: C_1  and  C_2
REMARK    2  A    between atoms: C_2  and  C_3
REMARK    3  A    between atoms: C_6  and  N_7
REMARK    4  A    between atoms: C_8  and  C_10
REMARK    5  A    between atoms: C_10  and  N_11
REMARK    6  A    between atoms: N_11  and  C_12
REMARK    7  A    between atoms: N_11  and  S_13
REMARK    8  A    between atoms: S_13  and  C_16
REMARK    9  A    between atoms: N_24  and  C_25
REMARK   10  A    between atoms: N_28  and  C_29
REMARK                            x       y       z     vdW  Elec       q    Type
REMARK                         _______ _______ _______ _____ _____    ______ ____
ROOT
ATOM      1  S   UNL     1      -0.421  12.105  21.475  0.00  0.00    +0.000 S 
ATOM      2  O   UNL     1      -0.853  10.719  21.630  0.00  0.00    +0.000 OA
ATOM      3  O   UNL     1       0.975  12.459  21.540  0.00  0.00    +0.000 OA
ENDROOT
BRANCH   1   4
ATOM      4  C   UNL     1      -1.268  13.072  22.708  0.00  0.00    +0.000 A 
ATOM      5  C   UNL     1      -0.921  14.392  23.035  0.00  0.00    +0.000 A 
ATOM      6  C   UNL     1      -1.867  15.225  23.682  0.00  0.00    +0.000 A 
ATOM      7  C   UNL     1      -3.132  14.703  23.976  0.00  0.00    +0.000 A 
ATOM      8  C   UNL     1      -3.307  13.336  23.901  0.00  0.00    +0.000 A 
ATOM      9  C   UNL     1      -2.448  12.525  23.188  0.00  0.00    +0.000 A 
ATOM     10  C   UNL     1      -4.666  12.861  24.042  0.00  0.00    +0.000 A 
ATOM     11  O   UNL     1      -4.964  11.951  24.787  0.00  0.00    +0.000 OA
ATOM     12  N   UNL     1      -5.432  13.519  23.125  0.00  0.00    +0.000 N 
ATOM     13  C   UNL     1      -6.154  12.706  22.189  0.00  0.00    +0.000 C 
ATOM     14  C   UNL     1      -5.442  14.905  23.170  0.00  0.00    +0.000 A 
ATOM     15  O   UNL     1      -6.344  15.582  22.686  0.00  0.00    +0.000 OA
ATOM     16  N   UNL     1      -4.331  15.471  23.861  0.00  0.00    +0.000 N 
ATOM     17  C   UNL     1      -4.573  16.611  24.710  0.00  0.00    +0.000 C 
ENDBRANCH   1   4
BRANCH   1  18
ATOM     18  N   UNL     1      -1.051  12.695  20.008  0.00  0.00    +0.000 NA
ATOM     19  C   UNL     1      -2.491  12.407  19.757  0.00  0.00    +0.000 C 
BRANCH  18  20
ATOM     20  C   UNL     1      -0.180  12.413  18.841  0.00  0.00    +0.000 C 
BRANCH  20  22
ATOM     21  N   UNL     1       1.158  10.428  19.254  0.00  0.00    +0.000 N 
ATOM     22  C   UNL     1       0.029  10.929  18.616  0.00  0.00    +0.000 C 
ATOM     23  O   UNL     1      -0.772  10.313  17.928  0.00  0.00    +0.000 OA
ATOM     24  H   UNL     1       1.731  11.096  19.759  0.00  0.00    +0.000 HD
BRANCH  21  28
ATOM     25  C   UNL     1       2.572   6.434  19.141  0.00  0.00    +0.000 A 
ATOM     26  C   UNL     1       1.991   6.936  20.307  0.00  0.00    +0.000 A 
ATOM     27  C   UNL     1       1.511   8.247  20.355  0.00  0.00    +0.000 A 
ATOM     28  C   UNL     1       1.588   9.080  19.242  0.00  0.00    +0.000 A 
ATOM     29  C   UNL     1       2.133   8.568  18.057  0.00  0.00    +0.000 A 
ATOM     30  C   UNL     1       2.621   7.254  18.008  0.00  0.00    +0.000 A 
BRANCH  25  32
ATOM     31  C   UNL     1       2.679   4.223  20.341  0.00  0.00    +0.000 C 
ATOM     32  C   UNL     1       3.120   5.030  19.129  0.00  0.00    +0.000 C 
ENDBRANCH  25  32
ENDBRANCH  21  28
ENDBRANCH  20  22
ENDBRANCH  18  20
ENDBRANCH   1  18
TORSDOF 6
ENDMDL
