MODEL 1
REMARK VINA RESULT:      -7.3      0.000      0.000
REMARK  Name = 
REMARK  10 active torsions:
REMARK  status: ('A' for Active; 'I' for Inactive)
REMARK    1  A    between atoms: C_1  and  C_2
REMARK    2  A    between atoms: C_2  and  C_3
REMARK    3  A    between atoms: C_3  and  C_4
REMARK    4  A    between atoms: C_4  and  C_5
REMARK    5  A    between atoms: C_5  and  S_6
REMARK    6  A    between atoms: S_6  and  C_7
REMARK    7  A    between atoms: C_10  and  C_11
REMARK    8  A    between atoms: C_16  and  N_17
REMARK    9  A    between atoms: C_18  and  C_19
REMARK   10  A    between atoms: C_21  and  O_22
REMARK                            x       y       z     vdW  Elec       q    Type
REMARK                         _______ _______ _______ _____ _____    ______ ____
ROOT
ATOM      1  C   UNL     1       1.393   9.492  18.776  0.00  0.00    +0.000 A 
ATOM      2  N   UNL     1       1.920   9.333  17.544  0.00  0.00    +0.000 NA
ATOM      3  N   UNL     1       2.680   8.222  17.256  0.00  0.00    +0.000 NA
ATOM      4  C   UNL     1       2.913   7.288  18.204  0.00  0.00    +0.000 A 
ATOM      5  C   UNL     1       2.275   7.479  19.427  0.00  0.00    +0.000 A 
ATOM      6  N   UNL     1       1.508   8.562  19.738  0.00  0.00    +0.000 NA
ENDROOT
BRANCH   4   7
ATOM      7  C   UNL     1       4.010   6.334  17.888  0.00  0.00    +0.000 A 
ATOM      8  C   UNL     1       5.118   6.897  17.185  0.00  0.00    +0.000 A 
ATOM      9  C   UNL     1       6.289   6.195  16.906  0.00  0.00    +0.000 A 
ATOM     10  C   UNL     1       6.393   4.885  17.324  0.00  0.00    +0.000 A 
ATOM     11  C   UNL     1       5.325   4.281  17.980  0.00  0.00    +0.000 A 
ATOM     12  C   UNL     1       4.123   4.970  18.272  0.00  0.00    +0.000 A 
BRANCH  12  13
ATOM     13  N   UNL     1       3.043   4.267  18.880  0.00  0.00    +0.000 N 
ATOM     14  C   UNL     1       2.057   3.553  18.200  0.00  0.00    +0.000 C 
ATOM     15  C   UNL     1       0.880   3.158  19.058  0.00  0.00    +0.000 C 
ATOM     16  O   UNL     1       2.095   3.195  17.026  0.00  0.00    +0.000 OA
ATOM     17  H   UNL     1       2.946   4.325  19.886  0.00  0.00    +0.000 HD
ENDBRANCH  12  13
ENDBRANCH   4   7
BRANCH   5  18
ATOM     18  O   UNL     1       2.388   6.604  20.471  0.00  0.00    +0.000 OA
ATOM     19  H   UNL     1       2.602   5.721  20.128  0.00  0.00    +0.000 HD
ENDBRANCH   5  18
BRANCH   1  20
ATOM     20  S   UNL     1       0.473  10.993  19.045  0.00  0.00    +0.000 S 
BRANCH  20  21
ATOM     21  C   UNL     1      -1.275  10.448  18.941  0.00  0.00    +0.000 C 
BRANCH  21  22
ATOM     22  C   UNL     1      -1.606  10.082  17.478  0.00  0.00    +0.000 C 
BRANCH  22  23
ATOM     23  C   UNL     1      -3.105   9.855  17.229  0.00  0.00    +0.000 C 
BRANCH  23  25
ATOM     24  C   UNL     1      -3.025  10.120  14.697  0.00  0.00    +0.000 C 
ATOM     25  C   UNL     1      -3.605  10.642  16.005  0.00  0.00    +0.000 C 
ENDBRANCH  23  25
ENDBRANCH  22  23
ENDBRANCH  21  22
ENDBRANCH  20  21
ENDBRANCH   1  20
TORSDOF 8
ENDMDL
MODEL 2
REMARK VINA RESULT:      -7.1      4.304      6.694
REMARK  Name = 
REMARK  10 active torsions:
REMARK  status: ('A' for Active; 'I' for Inactive)
REMARK    1  A    between atoms: C_1  and  C_2
REMARK    2  A    between atoms: C_2  and  C_3
REMARK    3  A    between atoms: C_3  and  C_4
REMARK    4  A    between atoms: C_4  and  C_5
REMARK    5  A    between atoms: C_5  and  S_6
REMARK    6  A    between atoms: S_6  and  C_7
REMARK    7  A    between atoms: C_10  and  C_11
REMARK    8  A    between atoms: C_16  and  N_17
REMARK    9  A    between atoms: C_18  and  C_19
REMARK   10  A    between atoms: C_21  and  O_22
REMARK                            x       y       z     vdW  Elec       q    Type
REMARK                         _______ _______ _______ _____ _____    ______ ____
ROOT
ATOM      1  C   UNL     1       6.260   5.193  15.352  0.00  0.00    +0.000 A 
ATOM      2  N   UNL     1       5.277   6.118  15.385  0.00  0.00    +0.000 NA
ATOM      3  N   UNL     1       4.564   6.326  16.543  0.00  0.00    +0.000 NA
ATOM      4  C   UNL     1       4.832   5.604  17.652  0.00  0.00    +0.000 A 
ATOM      5  C   UNL     1       5.908   4.724  17.567  0.00  0.00    +0.000 A 
ATOM      6  N   UNL     1       6.641   4.503  16.439  0.00  0.00    +0.000 NA
ENDROOT
BRANCH   4   7
ATOM      7  C   UNL     1       3.788   5.668  18.711  0.00  0.00    +0.000 A 
ATOM      8  C   UNL     1       3.270   6.972  18.970  0.00  0.00    +0.000 A 
ATOM      9  C   UNL     1       2.207   7.219  19.838  0.00  0.00    +0.000 A 
ATOM     10  C   UNL     1       1.619   6.154  20.486  0.00  0.00    +0.000 A 
ATOM     11  C   UNL     1       2.114   4.867  20.293  0.00  0.00    +0.000 A 
ATOM     12  C   UNL     1       3.195   4.590  19.423  0.00  0.00    +0.000 A 
BRANCH  12  13
ATOM     13  N   UNL     1       3.697   3.260  19.331  0.00  0.00    +0.000 N 
ATOM     14  C   UNL     1       3.249   2.286  18.439  0.00  0.00    +0.000 C 
ATOM     15  C   UNL     1       3.740   0.893  18.752  0.00  0.00    +0.000 C 
ATOM     16  O   UNL     1       2.562   2.473  17.440  0.00  0.00    +0.000 OA
ATOM     17  H   UNL     1       4.403   2.972  19.998  0.00  0.00    +0.000 HD
ENDBRANCH  12  13
ENDBRANCH   4   7
BRANCH   5  18
ATOM     18  O   UNL     1       6.321   3.949  18.616  0.00  0.00    +0.000 OA
ATOM     19  H   UNL     1       5.720   4.078  19.367  0.00  0.00    +0.000 HD
ENDBRANCH   5  18
BRANCH   1  20
ATOM     20  S   UNL     1       7.077   4.976  13.785  0.00  0.00    +0.000 S 
BRANCH  20  21
ATOM     21  C   UNL     1       6.406   3.384  13.170  0.00  0.00    +0.000 C 
BRANCH  21  22
ATOM     22  C   UNL     1       4.950   3.593  12.701  0.00  0.00    +0.000 C 
BRANCH  22  23
ATOM     23  C   UNL     1       4.731   3.262  11.217  0.00  0.00    +0.000 C 
BRANCH  23  25
ATOM     24  C   UNL     1       3.026   4.051   9.497  0.00  0.00    +0.000 C 
ATOM     25  C   UNL     1       3.245   3.343  10.829  0.00  0.00    +0.000 C 
ENDBRANCH  23  25
ENDBRANCH  22  23
ENDBRANCH  21  22
ENDBRANCH  20  21
ENDBRANCH   1  20
TORSDOF 8
ENDMDL
MODEL 3
REMARK VINA RESULT:      -7.0      1.236      1.416
REMARK  Name = 
REMARK  10 active torsions:
REMARK  status: ('A' for Active; 'I' for Inactive)
REMARK    1  A    between atoms: C_1  and  C_2
REMARK    2  A    between atoms: C_2  and  C_3
REMARK    3  A    between atoms: C_3  and  C_4
REMARK    4  A    between atoms: C_4  and  C_5
REMARK    5  A    between atoms: C_5  and  S_6
REMARK    6  A    between atoms: S_6  and  C_7
REMARK    7  A    between atoms: C_10  and  C_11
REMARK    8  A    between atoms: C_16  and  N_17
REMARK    9  A    between atoms: C_18  and  C_19
REMARK   10  A    between atoms: C_21  and  O_22
REMARK                            x       y       z     vdW  Elec       q    Type
REMARK                         _______ _______ _______ _____ _____    ______ ____
ROOT
ATOM      1  C   UNL     1       1.366   9.069  19.706  0.00  0.00    +0.000 A 
ATOM      2  N   UNL     1       1.506   9.113  18.364  0.00  0.00    +0.000 NA
ATOM      3  N   UNL     1       2.095   8.064  17.697  0.00  0.00    +0.000 NA
ATOM      4  C   UNL     1       2.547   6.987  18.376  0.00  0.00    +0.000 A 
ATOM      5  C   UNL     1       2.301   6.977  19.747  0.00  0.00    +0.000 A 
ATOM      6  N   UNL     1       1.710   7.994  20.435  0.00  0.00    +0.000 NA
ENDROOT
BRANCH   4   7
ATOM      7  C   UNL     1       3.459   6.097  17.607  0.00  0.00    +0.000 A 
ATOM      8  C   UNL     1       4.631   6.730  17.094  0.00  0.00    +0.000 A 
ATOM      9  C   UNL     1       5.659   6.040  16.453  0.00  0.00    +0.000 A 
ATOM     10  C   UNL     1       5.547   4.675  16.298  0.00  0.00    +0.000 A 
ATOM     11  C   UNL     1       4.404   4.019  16.749  0.00  0.00    +0.000 A 
ATOM     12  C   UNL     1       3.344   4.696  17.398  0.00  0.00    +0.000 A 
BRANCH  12  13
ATOM     13  N   UNL     1       2.173   3.973  17.766  0.00  0.00    +0.000 N 
ATOM     14  C   UNL     1       2.066   3.105  18.852  0.00  0.00    +0.000 C 
ATOM     15  C   UNL     1       0.820   2.253  18.839  0.00  0.00    +0.000 C 
ATOM     16  O   UNL     1       2.844   3.021  19.798  0.00  0.00    +0.000 OA
ATOM     17  H   UNL     1       1.360   4.049  17.167  0.00  0.00    +0.000 HD
ENDBRANCH  12  13
ENDBRANCH   4   7
BRANCH   5  18
ATOM     18  O   UNL     1       2.669   5.942  20.561  0.00  0.00    +0.000 OA
ATOM     19  H   UNL     1       2.636   6.234  21.487  0.00  0.00    +0.000 HD
ENDBRANCH   5  18
BRANCH   1  20
ATOM     20  S   UNL     1       0.637  10.506  20.464  0.00  0.00    +0.000 S 
BRANCH  20  21
ATOM     21  C   UNL     1       0.071  11.503  19.032  0.00  0.00    +0.000 C 
BRANCH  21  22
ATOM     22  C   UNL     1      -1.419  11.860  19.220  0.00  0.00    +0.000 C 
BRANCH  22  23
ATOM     23  C   UNL     1      -2.291  11.505  18.006  0.00  0.00    +0.000 C 
BRANCH  23  25
ATOM     24  C   UNL     1      -2.586   9.856  16.087  0.00  0.00    +0.000 C 
ATOM     25  C   UNL     1      -1.947  10.113  17.446  0.00  0.00    +0.000 C 
ENDBRANCH  23  25
ENDBRANCH  22  23
ENDBRANCH  21  22
ENDBRANCH  20  21
ENDBRANCH   1  20
TORSDOF 8
ENDMDL
MODEL 4
REMARK VINA RESULT:      -7.0      1.984      3.390
REMARK  Name = 
REMARK  10 active torsions:
REMARK  status: ('A' for Active; 'I' for Inactive)
REMARK    1  A    between atoms: C_1  and  C_2
REMARK    2  A    between atoms: C_2  and  C_3
REMARK    3  A    between atoms: C_3  and  C_4
REMARK    4  A    between atoms: C_4  and  C_5
REMARK    5  A    between atoms: C_5  and  S_6
REMARK    6  A    between atoms: S_6  and  C_7
REMARK    7  A    between atoms: C_10  and  C_11
REMARK    8  A    between atoms: C_16  and  N_17
REMARK    9  A    between atoms: C_18  and  C_19
REMARK   10  A    between atoms: C_21  and  O_22
REMARK                            x       y       z     vdW  Elec       q    Type
REMARK                         _______ _______ _______ _____ _____    ______ ____
ROOT
ATOM      1  C   UNL     1       1.188   9.094  20.134  0.00  0.00    +0.000 A 
ATOM      2  N   UNL     1       1.396   7.990  20.883  0.00  0.00    +0.000 NA
ATOM      3  N   UNL     1       2.049   6.905  20.345  0.00  0.00    +0.000 NA
ATOM      4  C   UNL     1       2.479   6.929  19.065  0.00  0.00    +0.000 A 
ATOM      5  C   UNL     1       2.299   8.127  18.378  0.00  0.00    +0.000 A 
ATOM      6  N   UNL     1       1.666   9.223  18.886  0.00  0.00    +0.000 NA
ENDROOT
BRANCH   4   7
ATOM      7  C   UNL     1       2.849   5.602  18.502  0.00  0.00    +0.000 A 
ATOM      8  C   UNL     1       1.775   4.667  18.402  0.00  0.00    +0.000 A 
ATOM      9  C   UNL     1       1.896   3.419  17.792  0.00  0.00    +0.000 A 
ATOM     10  C   UNL     1       3.114   3.058  17.257  0.00  0.00    +0.000 A 
ATOM     11  C   UNL     1       4.200   3.922  17.362  0.00  0.00    +0.000 A 
ATOM     12  C   UNL     1       4.106   5.192  17.980  0.00  0.00    +0.000 A 
BRANCH  12  13
ATOM     13  N   UNL     1       5.277   5.992  18.119  0.00  0.00    +0.000 N 
ATOM     14  C   UNL     1       5.879   6.727  17.099  0.00  0.00    +0.000 C 
ATOM     15  C   UNL     1       7.257   7.239  17.441  0.00  0.00    +0.000 C 
ATOM     16  O   UNL     1       5.379   7.017  16.016  0.00  0.00    +0.000 OA
ATOM     17  H   UNL     1       5.747   5.994  19.016  0.00  0.00    +0.000 HD
ENDBRANCH  12  13
ENDBRANCH   4   7
BRANCH   5  18
ATOM     18  O   UNL     1       2.711   8.315  17.088  0.00  0.00    +0.000 OA
ATOM     19  H   UNL     1       3.655   8.097  17.017  0.00  0.00    +0.000 HD
ENDBRANCH   5  18
BRANCH   1  20
ATOM     20  S   UNL     1       0.286  10.413  20.920  0.00  0.00    +0.000 S 
BRANCH  20  21
ATOM     21  C   UNL     1       0.113  11.664  19.590  0.00  0.00    +0.000 C 
BRANCH  21  22
ATOM     22  C   UNL     1      -1.386  11.945  19.350  0.00  0.00    +0.000 C 
BRANCH  22  23
ATOM     23  C   UNL     1      -1.807  11.800  17.879  0.00  0.00    +0.000 C 
BRANCH  23  25
ATOM     24  C   UNL     1      -3.183   9.675  17.595  0.00  0.00    +0.000 C 
ATOM     25  C   UNL     1      -1.816  10.328  17.432  0.00  0.00    +0.000 C 
ENDBRANCH  23  25
ENDBRANCH  22  23
ENDBRANCH  21  22
ENDBRANCH  20  21
ENDBRANCH   1  20
TORSDOF 8
ENDMDL
MODEL 5
REMARK VINA RESULT:      -6.9      1.601      3.281
REMARK  Name = 
REMARK  10 active torsions:
REMARK  status: ('A' for Active; 'I' for Inactive)
REMARK    1  A    between atoms: C_1  and  C_2
REMARK    2  A    between atoms: C_2  and  C_3
REMARK    3  A    between atoms: C_3  and  C_4
REMARK    4  A    between atoms: C_4  and  C_5
REMARK    5  A    between atoms: C_5  and  S_6
REMARK    6  A    between atoms: S_6  and  C_7
REMARK    7  A    between atoms: C_10  and  C_11
REMARK    8  A    between atoms: C_16  and  N_17
REMARK    9  A    between atoms: C_18  and  C_19
REMARK   10  A    between atoms: C_21  and  O_22
REMARK                            x       y       z     vdW  Elec       q    Type
REMARK                         _______ _______ _______ _____ _____    ______ ____
ROOT
ATOM      1  C   UNL     1       1.471   9.298  19.074  0.00  0.00    +0.000 A 
ATOM      2  N   UNL     1       1.250   8.771  20.298  0.00  0.00    +0.000 NA
ATOM      3  N   UNL     1       1.699   7.505  20.596  0.00  0.00    +0.000 NA
ATOM      4  C   UNL     1       2.355   6.774  19.668  0.00  0.00    +0.000 A 
ATOM      5  C   UNL     1       2.614   7.410  18.456  0.00  0.00    +0.000 A 
ATOM      6  N   UNL     1       2.193   8.666  18.134  0.00  0.00    +0.000 NA
ENDROOT
BRANCH   4   7
ATOM      7  C   UNL     1       2.478   5.325  19.983  0.00  0.00    +0.000 A 
ATOM      8  C   UNL     1       1.277   4.700  20.433  0.00  0.00    +0.000 A 
ATOM      9  C   UNL     1       1.163   3.329  20.661  0.00  0.00    +0.000 A 
ATOM     10  C   UNL     1       2.263   2.527  20.447  0.00  0.00    +0.000 A 
ATOM     11  C   UNL     1       3.468   3.097  20.043  0.00  0.00    +0.000 A 
ATOM     12  C   UNL     1       3.612   4.485  19.809  0.00  0.00    +0.000 A 
BRANCH  12  13
ATOM     13  N   UNL     1       4.893   5.009  19.470  0.00  0.00    +0.000 N 
ATOM     14  C   UNL     1       5.595   4.732  18.297  0.00  0.00    +0.000 C 
ATOM     15  C   UNL     1       7.038   5.175  18.325  0.00  0.00    +0.000 C 
ATOM     16  O   UNL     1       5.139   4.227  17.276  0.00  0.00    +0.000 OA
ATOM     17  H   UNL     1       5.363   5.591  20.152  0.00  0.00    +0.000 HD
ENDBRANCH  12  13
ENDBRANCH   4   7
BRANCH   5  18
ATOM     18  O   UNL     1       3.295   6.811  17.433  0.00  0.00    +0.000 OA
ATOM     19  H   UNL     1       2.908   7.084  16.585  0.00  0.00    +0.000 HD
ENDBRANCH   5  18
BRANCH   1  20
ATOM     20  S   UNL     1       0.799  10.921  18.789  0.00  0.00    +0.000 S 
BRANCH  20  21
ATOM     21  C   UNL     1      -0.963  10.744  19.267  0.00  0.00    +0.000 C 
BRANCH  21  22
ATOM     22  C   UNL     1      -1.855  11.041  18.042  0.00  0.00    +0.000 C 
BRANCH  22  23
ATOM     23  C   UNL     1      -1.959   9.863  17.062  0.00  0.00    +0.000 C 
BRANCH  23  25
ATOM     24  C   UNL     1      -3.966  11.042  16.027  0.00  0.00    +0.000 C 
ATOM     25  C   UNL     1      -2.682  10.265  15.764  0.00  0.00    +0.000 C 
ENDBRANCH  23  25
ENDBRANCH  22  23
ENDBRANCH  21  22
ENDBRANCH  20  21
ENDBRANCH   1  20
TORSDOF 8
ENDMDL
MODEL 6
REMARK VINA RESULT:      -6.8      3.876      7.158
REMARK  Name = 
REMARK  10 active torsions:
REMARK  status: ('A' for Active; 'I' for Inactive)
REMARK    1  A    between atoms: C_1  and  C_2
REMARK    2  A    between atoms: C_2  and  C_3
REMARK    3  A    between atoms: C_3  and  C_4
REMARK    4  A    between atoms: C_4  and  C_5
REMARK    5  A    between atoms: C_5  and  S_6
REMARK    6  A    between atoms: S_6  and  C_7
REMARK    7  A    between atoms: C_10  and  C_11
REMARK    8  A    between atoms: C_16  and  N_17
REMARK    9  A    between atoms: C_18  and  C_19
REMARK   10  A    between atoms: C_21  and  O_22
REMARK                            x       y       z     vdW  Elec       q    Type
REMARK                         _______ _______ _______ _____ _____    ______ ____
ROOT
ATOM      1  C   UNL     1       5.735   5.423  15.851  0.00  0.00    +0.000 A 
ATOM      2  N   UNL     1       5.995   6.626  16.406  0.00  0.00    +0.000 NA
ATOM      3  N   UNL     1       5.152   7.141  17.364  0.00  0.00    +0.000 NA
ATOM      4  C   UNL     1       4.054   6.456  17.750  0.00  0.00    +0.000 A 
ATOM      5  C   UNL     1       3.891   5.190  17.192  0.00  0.00    +0.000 A 
ATOM      6  N   UNL     1       4.714   4.648  16.251  0.00  0.00    +0.000 NA
ENDROOT
BRANCH   4   7
ATOM      7  C   UNL     1       3.055   7.251  18.516  0.00  0.00    +0.000 A 
ATOM      8  C   UNL     1       2.683   8.492  17.917  0.00  0.00    +0.000 A 
ATOM      9  C   UNL     1       1.677   9.316  18.419  0.00  0.00    +0.000 A 
ATOM     10  C   UNL     1       1.002   8.924  19.555  0.00  0.00    +0.000 A 
ATOM     11  C   UNL     1       1.356   7.739  20.195  0.00  0.00    +0.000 A 
ATOM     12  C   UNL     1       2.376   6.886  19.710  0.00  0.00    +0.000 A 
BRANCH  12  13
ATOM     13  N   UNL     1       2.735   5.728  20.458  0.00  0.00    +0.000 N 
ATOM     14  C   UNL     1       1.955   4.580  20.594  0.00  0.00    +0.000 C 
ATOM     15  C   UNL     1       2.434   3.635  21.669  0.00  0.00    +0.000 C 
ATOM     16  O   UNL     1       0.986   4.270  19.908  0.00  0.00    +0.000 OA
ATOM     17  H   UNL     1       3.603   5.749  20.977  0.00  0.00    +0.000 HD
ENDBRANCH  12  13
ENDBRANCH   4   7
BRANCH   5  18
ATOM     18  O   UNL     1       2.848   4.366  17.510  0.00  0.00    +0.000 OA
ATOM     19  H   UNL     1       2.256   4.820  18.132  0.00  0.00    +0.000 HD
ENDBRANCH   5  18
BRANCH   1  20
ATOM     20  S   UNL     1       6.866   4.885  14.586  0.00  0.00    +0.000 S 
BRANCH  20  21
ATOM     21  C   UNL     1       6.052   3.395  13.891  0.00  0.00    +0.000 C 
BRANCH  21  22
ATOM     22  C   UNL     1       5.132   3.817  12.725  0.00  0.00    +0.000 C 
BRANCH  22  23
ATOM     23  C   UNL     1       5.062   2.779  11.595  0.00  0.00    +0.000 C 
BRANCH  23  25
ATOM     24  C   UNL     1       6.153   0.544  11.040  0.00  0.00    +0.000 C 
ATOM     25  C   UNL     1       6.377   1.991  11.463  0.00  0.00    +0.000 C 
ENDBRANCH  23  25
ENDBRANCH  22  23
ENDBRANCH  21  22
ENDBRANCH  20  21
ENDBRANCH   1  20
TORSDOF 8
ENDMDL
MODEL 7
REMARK VINA RESULT:      -6.8      4.570      6.284
REMARK  Name = 
REMARK  10 active torsions:
REMARK  status: ('A' for Active; 'I' for Inactive)
REMARK    1  A    between atoms: C_1  and  C_2
REMARK    2  A    between atoms: C_2  and  C_3
REMARK    3  A    between atoms: C_3  and  C_4
REMARK    4  A    between atoms: C_4  and  C_5
REMARK    5  A    between atoms: C_5  and  S_6
REMARK    6  A    between atoms: S_6  and  C_7
REMARK    7  A    between atoms: C_10  and  C_11
REMARK    8  A    between atoms: C_16  and  N_17
REMARK    9  A    between atoms: C_18  and  C_19
REMARK   10  A    between atoms: C_21  and  O_22
REMARK                            x       y       z     vdW  Elec       q    Type
REMARK                         _______ _______ _______ _____ _____    ______ ____
ROOT
ATOM      1  C   UNL     1       3.360   5.217  19.223  0.00  0.00    +0.000 A 
ATOM      2  N   UNL     1       2.853   5.213  17.972  0.00  0.00    +0.000 NA
ATOM      3  N   UNL     1       3.655   4.885  16.903  0.00  0.00    +0.000 NA
ATOM      4  C   UNL     1       4.956   4.574  17.093  0.00  0.00    +0.000 A 
ATOM      5  C   UNL     1       5.389   4.524  18.416  0.00  0.00    +0.000 A 
ATOM      6  N   UNL     1       4.617   4.832  19.496  0.00  0.00    +0.000 NA
ENDROOT
BRANCH   4   7
ATOM      7  C   UNL     1       5.789   4.581  15.860  0.00  0.00    +0.000 A 
ATOM      8  C   UNL     1       5.308   3.754  14.801  0.00  0.00    +0.000 A 
ATOM      9  C   UNL     1       5.882   3.719  13.531  0.00  0.00    +0.000 A 
ATOM     10  C   UNL     1       6.975   4.520  13.275  0.00  0.00    +0.000 A 
ATOM     11  C   UNL     1       7.503   5.316  14.288  0.00  0.00    +0.000 A 
ATOM     12  C   UNL     1       6.942   5.366  15.587  0.00  0.00    +0.000 A 
BRANCH  12  13
ATOM     13  N   UNL     1       7.580   6.146  16.594  0.00  0.00    +0.000 N 
ATOM     14  C   UNL     1       7.112   7.361  17.093  0.00  0.00    +0.000 C 
ATOM     15  C   UNL     1       8.119   8.111  17.930  0.00  0.00    +0.000 C 
ATOM     16  O   UNL     1       5.982   7.821  16.952  0.00  0.00    +0.000 OA
ATOM     17  H   UNL     1       8.472   5.825  16.949  0.00  0.00    +0.000 HD
ENDBRANCH  12  13
ENDBRANCH   4   7
BRANCH   5  18
ATOM     18  O   UNL     1       6.669   4.193  18.768  0.00  0.00    +0.000 OA
ATOM     19  H   UNL     1       7.236   4.977  18.697  0.00  0.00    +0.000 HD
ENDBRANCH   5  18
BRANCH   1  20
ATOM     20  S   UNL     1       2.241   5.708  20.518  0.00  0.00    +0.000 S 
BRANCH  20  21
ATOM     21  C   UNL     1       0.856   4.516  20.362  0.00  0.00    +0.000 C 
BRANCH  21  22
ATOM     22  C   UNL     1       1.349   3.110  20.766  0.00  0.00    +0.000 C 
BRANCH  22  23
ATOM     23  C   UNL     1       1.553   2.166  19.571  0.00  0.00    +0.000 C 
BRANCH  23  25
ATOM     24  C   UNL     1       3.438   1.477  18.002  0.00  0.00    +0.000 C 
ATOM     25  C   UNL     1       3.019   1.713  19.448  0.00  0.00    +0.000 C 
ENDBRANCH  23  25
ENDBRANCH  22  23
ENDBRANCH  21  22
ENDBRANCH  20  21
ENDBRANCH   1  20
TORSDOF 8
ENDMDL
MODEL 8
REMARK VINA RESULT:      -6.8      2.638      3.181
REMARK  Name = 
REMARK  10 active torsions:
REMARK  status: ('A' for Active; 'I' for Inactive)
REMARK    1  A    between atoms: C_1  and  C_2
REMARK    2  A    between atoms: C_2  and  C_3
REMARK    3  A    between atoms: C_3  and  C_4
REMARK    4  A    between atoms: C_4  and  C_5
REMARK    5  A    between atoms: C_5  and  S_6
REMARK    6  A    between atoms: S_6  and  C_7
REMARK    7  A    between atoms: C_10  and  C_11
REMARK    8  A    between atoms: C_16  and  N_17
REMARK    9  A    between atoms: C_18  and  C_19
REMARK   10  A    between atoms: C_21  and  O_22
REMARK                            x       y       z     vdW  Elec       q    Type
REMARK                         _______ _______ _______ _____ _____    ______ ____
ROOT
ATOM      1  C   UNL     1       1.637   8.826  18.911  0.00  0.00    +0.000 A 
ATOM      2  N   UNL     1       2.131   8.957  17.662  0.00  0.00    +0.000 NA
ATOM      3  N   UNL     1       3.028   8.034  17.174  0.00  0.00    +0.000 NA
ATOM      4  C   UNL     1       3.428   6.996  17.940  0.00  0.00    +0.000 A 
ATOM      5  C   UNL     1       2.819   6.882  19.187  0.00  0.00    +0.000 A 
ATOM      6  N   UNL     1       1.920   7.773  19.694  0.00  0.00    +0.000 NA
ENDROOT
BRANCH   4   7
ATOM      7  C   UNL     1       4.635   6.280  17.446  0.00  0.00    +0.000 A 
ATOM      8  C   UNL     1       5.795   7.095  17.279  0.00  0.00    +0.000 A 
ATOM      9  C   UNL     1       7.049   6.587  16.941  0.00  0.00    +0.000 A 
ATOM     10  C   UNL     1       7.186   5.228  16.753  0.00  0.00    +0.000 A 
ATOM     11  C   UNL     1       6.075   4.398  16.869  0.00  0.00    +0.000 A 
ATOM     12  C   UNL     1       4.790   4.888  17.206  0.00  0.00    +0.000 A 
BRANCH  12  13
ATOM     13  N   UNL     1       3.684   3.990  17.233  0.00  0.00    +0.000 N 
ATOM     14  C   UNL     1       3.408   3.078  18.251  0.00  0.00    +0.000 C 
ATOM     15  C   UNL     1       2.356   2.057  17.893  0.00  0.00    +0.000 C 
ATOM     16  O   UNL     1       3.895   3.073  19.378  0.00  0.00    +0.000 OA
ATOM     17  H   UNL     1       3.068   3.971  16.430  0.00  0.00    +0.000 HD
ENDBRANCH  12  13
ENDBRANCH   4   7
BRANCH   5  18
ATOM     18  O   UNL     1       3.096   5.867  20.061  0.00  0.00    +0.000 OA
ATOM     19  H   UNL     1       3.779   5.292  19.680  0.00  0.00    +0.000 HD
ENDBRANCH   5  18
BRANCH   1  20
ATOM     20  S   UNL     1       0.527  10.109  19.451  0.00  0.00    +0.000 S 
BRANCH  20  21
ATOM     21  C   UNL     1       0.975  10.348  21.214  0.00  0.00    +0.000 C 
BRANCH  21  22
ATOM     22  C   UNL     1       0.170   9.356  22.081  0.00  0.00    +0.000 C 
BRANCH  22  23
ATOM     23  C   UNL     1      -0.788  10.044  23.066  0.00  0.00    +0.000 C 
BRANCH  23  25
ATOM     24  C   UNL     1      -2.345  12.060  23.098  0.00  0.00    +0.000 C 
ATOM     25  C   UNL     1      -0.957  11.539  22.746  0.00  0.00    +0.000 C 
ENDBRANCH  23  25
ENDBRANCH  22  23
ENDBRANCH  21  22
ENDBRANCH  20  21
ENDBRANCH   1  20
TORSDOF 8
ENDMDL
MODEL 9
REMARK VINA RESULT:      -6.8      4.427      7.373
REMARK  Name = 
REMARK  10 active torsions:
REMARK  status: ('A' for Active; 'I' for Inactive)
REMARK    1  A    between atoms: C_1  and  C_2
REMARK    2  A    between atoms: C_2  and  C_3
REMARK    3  A    between atoms: C_3  and  C_4
REMARK    4  A    between atoms: C_4  and  C_5
REMARK    5  A    between atoms: C_5  and  S_6
REMARK    6  A    between atoms: S_6  and  C_7
REMARK    7  A    between atoms: C_10  and  C_11
REMARK    8  A    between atoms: C_16  and  N_17
REMARK    9  A    between atoms: C_18  and  C_19
REMARK   10  A    between atoms: C_21  and  O_22
REMARK                            x       y       z     vdW  Elec       q    Type
REMARK                         _______ _______ _______ _____ _____    ______ ____
ROOT
ATOM      1  C   UNL     1       6.899   4.894  14.981  0.00  0.00    +0.000 A 
ATOM      2  N   UNL     1       5.576   5.136  14.867  0.00  0.00    +0.000 NA
ATOM      3  N   UNL     1       4.768   5.093  15.980  0.00  0.00    +0.000 NA
ATOM      4  C   UNL     1       5.287   4.801  17.193  0.00  0.00    +0.000 A 
ATOM      5  C   UNL     1       6.670   4.639  17.246  0.00  0.00    +0.000 A 
ATOM      6  N   UNL     1       7.497   4.687  16.165  0.00  0.00    +0.000 NA
ENDROOT
BRANCH   4   7
ATOM      7  C   UNL     1       4.286   4.447  18.235  0.00  0.00    +0.000 A 
ATOM      8  C   UNL     1       4.441   3.148  18.805  0.00  0.00    +0.000 A 
ATOM      9  C   UNL     1       3.679   2.683  19.876  0.00  0.00    +0.000 A 
ATOM     10  C   UNL     1       2.720   3.512  20.418  0.00  0.00    +0.000 A 
ATOM     11  C   UNL     1       2.508   4.774  19.872  0.00  0.00    +0.000 A 
ATOM     12  C   UNL     1       3.264   5.270  18.782  0.00  0.00    +0.000 A 
BRANCH  12  13
ATOM     13  N   UNL     1       2.941   6.541  18.227  0.00  0.00    +0.000 N 
ATOM     14  C   UNL     1       2.311   7.584  18.905  0.00  0.00    +0.000 C 
ATOM     15  C   UNL     1       1.827   8.698  18.009  0.00  0.00    +0.000 C 
ATOM     16  O   UNL     1       2.170   7.683  20.120  0.00  0.00    +0.000 OA
ATOM     17  H   UNL     1       3.137   6.694  17.245  0.00  0.00    +0.000 HD
ENDBRANCH  12  13
ENDBRANCH   4   7
BRANCH   5  18
ATOM     18  O   UNL     1       7.343   4.373  18.406  0.00  0.00    +0.000 OA
ATOM     19  H   UNL     1       7.177   5.085  19.045  0.00  0.00    +0.000 HD
ENDBRANCH   5  18
BRANCH   1  20
ATOM     20  S   UNL     1       7.832   4.925  13.465  0.00  0.00    +0.000 S 
BRANCH  20  21
ATOM     21  C   UNL     1       6.598   4.449  12.193  0.00  0.00    +0.000 C 
BRANCH  21  22
ATOM     22  C   UNL     1       6.663   2.923  11.969  0.00  0.00    +0.000 C 
BRANCH  22  23
ATOM     23  C   UNL     1       5.348   2.326  11.446  0.00  0.00    +0.000 C 
BRANCH  23  25
ATOM     24  C   UNL     1       3.347   3.387  10.280  0.00  0.00    +0.000 C 
ATOM     25  C   UNL     1       4.185   3.329  11.551  0.00  0.00    +0.000 C 
ENDBRANCH  23  25
ENDBRANCH  22  23
ENDBRANCH  21  22
ENDBRANCH  20  21
ENDBRANCH   1  20
TORSDOF 8
ENDMDL
