MODEL 1
REMARK VINA RESULT:      -7.7      0.000      0.000
REMARK  Name = 
REMARK  8 active torsions:
REMARK  status: ('A' for Active; 'I' for Inactive)
REMARK    1  A    between atoms: O5*_1  and  C5*_2
REMARK    2  A    between atoms: C5*_2  and  C4*_3
REMARK    3  A    between atoms: C1*_5  and  N_6
REMARK    4  A    between atoms: C_10  and  O_11
REMARK    5  A    between atoms: O_11  and  C_12
REMARK    6  A    between atoms: C_12  and  C_13
REMARK    7  A    between atoms: C2*_20  and  O2*_21
REMARK    8  A    between atoms: C3*_22  and  O3*_23
REMARK                            x       y       z     vdW  Elec       q    Type
REMARK                         _______ _______ _______ _____ _____    ______ ____
ROOT
ATOM      1  N   UNL     1       4.194   4.349  18.665  0.00  0.00    +0.000 N 
ATOM      2  C   UNL     1       3.722   4.290  17.380  0.00  0.00    +0.000 A 
ATOM      3  N   UNL     1       4.572   4.787  16.510  0.00  0.00    +0.000 NA
ATOM      4  C   UNL     1       5.664   5.158  17.261  0.00  0.00    +0.000 A 
ATOM      5  C   UNL     1       6.910   5.697  16.931  0.00  0.00    +0.000 A 
ATOM      6  N   UNL     1       7.809   5.966  17.910  0.00  0.00    +0.000 NA
ATOM      7  C   UNL     1       7.448   5.681  19.180  0.00  0.00    +0.000 A 
ATOM      8  N   UNL     1       6.298   5.133  19.621  0.00  0.00    +0.000 NA
ATOM      9  C   UNL     1       5.447   4.900  18.607  0.00  0.00    +0.000 A 
ENDROOT
BRANCH   1  12
ATOM     10  C4* UNL     1       1.822   2.225  19.972  0.00  0.00    +0.000 C 
ATOM     11  O4* UNL     1       3.218   2.435  19.656  0.00  0.00    +0.000 OA
ATOM     12  C1* UNL     1       3.545   3.838  19.858  0.00  0.00    +0.000 C 
ATOM     13  C2* UNL     1       2.256   4.565  20.256  0.00  0.00    +0.000 C 
ATOM     14  C3* UNL     1       1.414   3.425  20.816  0.00  0.00    +0.000 C 
BRANCH  13  15
ATOM     15  O2* UNL     1       2.459   5.573  21.251  0.00  0.00    +0.000 OA
ATOM     16  H2* UNL     1       1.886   5.331  22.009  0.00  0.00    +0.000 HD
ENDBRANCH  13  15
BRANCH  14  17
ATOM     17  O3* UNL     1       1.789   3.223  22.197  0.00  0.00    +0.000 OA
ATOM     18  H3* UNL     1       2.558   2.621  22.226  0.00  0.00    +0.000 HD
ENDBRANCH  14  17
BRANCH  10  19
ATOM     19  C5* UNL     1       1.004   2.052  18.685  0.00  0.00    +0.000 C 
BRANCH  19  20
ATOM     20  O5* UNL     1       1.825   1.652  17.596  0.00  0.00    +0.000 OA
ATOM     21  H5* UNL     1       1.265   1.144  16.979  0.00  0.00    +0.000 HD
ENDBRANCH  19  20
ENDBRANCH  10  19
ENDBRANCH   1  12
BRANCH   5  22
ATOM     22  O   UNL     1       7.217   6.009  15.623  0.00  0.00    +0.000 OA
BRANCH  22  23
ATOM     23  C   UNL     1       7.578   4.847  14.870  0.00  0.00    +0.000 C 
BRANCH  23  24
ATOM     24  C   UNL     1       6.695   4.767  13.636  0.00  0.00    +0.000 C 
ATOM     25  F   UNL     1       7.465   4.804  12.518  0.00  0.00    +0.000 F 
ATOM     26  F   UNL     1       6.040   3.577  13.607  0.00  0.00    +0.000 F 
ENDBRANCH  23  24
ENDBRANCH  22  23
ENDBRANCH   5  22
TORSDOF 8
ENDMDL
MODEL 2
REMARK VINA RESULT:      -7.4      2.681      3.916
REMARK  Name = 
REMARK  8 active torsions:
REMARK  status: ('A' for Active; 'I' for Inactive)
REMARK    1  A    between atoms: O5*_1  and  C5*_2
REMARK    2  A    between atoms: C5*_2  and  C4*_3
REMARK    3  A    between atoms: C1*_5  and  N_6
REMARK    4  A    between atoms: C_10  and  O_11
REMARK    5  A    between atoms: O_11  and  C_12
REMARK    6  A    between atoms: C_12  and  C_13
REMARK    7  A    between atoms: C2*_20  and  O2*_21
REMARK    8  A    between atoms: C3*_22  and  O3*_23
REMARK                            x       y       z     vdW  Elec       q    Type
REMARK                         _______ _______ _______ _____ _____    ______ ____
ROOT
ATOM      1  N   UNL     1       4.414   4.375  18.203  0.00  0.00    +0.000 N 
ATOM      2  C   UNL     1       4.913   5.100  19.253  0.00  0.00    +0.000 A 
ATOM      3  N   UNL     1       5.960   5.819  18.914  0.00  0.00    +0.000 NA
ATOM      4  C   UNL     1       6.132   5.575  17.570  0.00  0.00    +0.000 A 
ATOM      5  C   UNL     1       7.028   6.067  16.618  0.00  0.00    +0.000 A 
ATOM      6  N   UNL     1       6.954   5.632  15.336  0.00  0.00    +0.000 NA
ATOM      7  C   UNL     1       5.990   4.735  15.038  0.00  0.00    +0.000 A 
ATOM      8  N   UNL     1       5.052   4.212  15.852  0.00  0.00    +0.000 NA
ATOM      9  C   UNL     1       5.184   4.673  17.108  0.00  0.00    +0.000 A 
ENDROOT
BRANCH   1  12
ATOM     10  C4* UNL     1       1.485   3.519  19.795  0.00  0.00    +0.000 C 
ATOM     11  O4* UNL     1       2.111   4.282  18.737  0.00  0.00    +0.000 OA
ATOM     12  C1* UNL     1       3.236   3.528  18.208  0.00  0.00    +0.000 C 
ATOM     13  C2* UNL     1       3.367   2.243  19.035  0.00  0.00    +0.000 C 
ATOM     14  C3* UNL     1       1.957   2.085  19.592  0.00  0.00    +0.000 C 
BRANCH  13  15
ATOM     15  O2* UNL     1       3.727   1.100  18.253  0.00  0.00    +0.000 OA
ATOM     16  H2* UNL     1       2.894   0.756  17.869  0.00  0.00    +0.000 HD
ENDBRANCH  13  15
BRANCH  14  17
ATOM     17  O3* UNL     1       1.149   1.424  18.593  0.00  0.00    +0.000 OA
ATOM     18  H3* UNL     1       0.414   0.963  19.041  0.00  0.00    +0.000 HD
ENDBRANCH  14  17
BRANCH  10  19
ATOM     19  C5* UNL     1       1.842   4.112  21.164  0.00  0.00    +0.000 C 
BRANCH  19  20
ATOM     20  O5* UNL     1       2.104   5.507  21.076  0.00  0.00    +0.000 OA
ATOM     21  H5* UNL     1       2.636   5.654  20.271  0.00  0.00    +0.000 HD
ENDBRANCH  19  20
ENDBRANCH  10  19
ENDBRANCH   1  12
BRANCH   5  22
ATOM     22  O   UNL     1       8.021   6.952  16.979  0.00  0.00    +0.000 OA
BRANCH  22  23
ATOM     23  C   UNL     1       7.506   8.268  17.202  0.00  0.00    +0.000 C 
BRANCH  23  24
ATOM     24  C   UNL     1       8.267   8.907  18.351  0.00  0.00    +0.000 C 
ATOM     25  F   UNL     1       8.959   7.955  19.029  0.00  0.00    +0.000 F 
ATOM     26  F   UNL     1       9.192   9.779  17.871  0.00  0.00    +0.000 F 
ENDBRANCH  23  24
ENDBRANCH  22  23
ENDBRANCH   5  22
TORSDOF 8
ENDMDL
MODEL 3
REMARK VINA RESULT:      -7.3      2.987      3.968
REMARK  Name = 
REMARK  8 active torsions:
REMARK  status: ('A' for Active; 'I' for Inactive)
REMARK    1  A    between atoms: O5*_1  and  C5*_2
REMARK    2  A    between atoms: C5*_2  and  C4*_3
REMARK    3  A    between atoms: C1*_5  and  N_6
REMARK    4  A    between atoms: C_10  and  O_11
REMARK    5  A    between atoms: O_11  and  C_12
REMARK    6  A    between atoms: C_12  and  C_13
REMARK    7  A    between atoms: C2*_20  and  O2*_21
REMARK    8  A    between atoms: C3*_22  and  O3*_23
REMARK                            x       y       z     vdW  Elec       q    Type
REMARK                         _______ _______ _______ _____ _____    ______ ____
ROOT
ATOM      1  N   UNL     1       3.755   5.164  17.909  0.00  0.00    +0.000 N 
ATOM      2  C   UNL     1       3.510   6.447  18.321  0.00  0.00    +0.000 A 
ATOM      3  N   UNL     1       4.515   7.256  18.071  0.00  0.00    +0.000 NA
ATOM      4  C   UNL     1       5.448   6.468  17.435  0.00  0.00    +0.000 A 
ATOM      5  C   UNL     1       6.699   6.735  16.874  0.00  0.00    +0.000 A 
ATOM      6  N   UNL     1       7.408   5.732  16.301  0.00  0.00    +0.000 NA
ATOM      7  C   UNL     1       6.850   4.502  16.291  0.00  0.00    +0.000 A 
ATOM      8  N   UNL     1       5.646   4.125  16.766  0.00  0.00    +0.000 NA
ATOM      9  C   UNL     1       4.998   5.160  17.330  0.00  0.00    +0.000 A 
ENDROOT
BRANCH   1  12
ATOM     10  C4* UNL     1       1.313   3.531  19.702  0.00  0.00    +0.000 C 
ATOM     11  O4* UNL     1       1.617   4.457  18.632  0.00  0.00    +0.000 OA
ATOM     12  C1* UNL     1       2.844   4.037  17.975  0.00  0.00    +0.000 C 
ATOM     13  C2* UNL     1       3.381   2.813  18.725  0.00  0.00    +0.000 C 
ATOM     14  C3* UNL     1       2.120   2.277  19.392  0.00  0.00    +0.000 C 
BRANCH  13  15
ATOM     15  O2* UNL     1       3.951   1.824  17.862  0.00  0.00    +0.000 OA
ATOM     16  H2* UNL     1       4.644   1.370  18.385  0.00  0.00    +0.000 HD
ENDBRANCH  13  15
BRANCH  14  17
ATOM     17  O3* UNL     1       1.421   1.450  18.435  0.00  0.00    +0.000 OA
ATOM     18  H3* UNL     1       0.579   1.155  18.834  0.00  0.00    +0.000 HD
ENDBRANCH  14  17
BRANCH  10  19
ATOM     19  C5* UNL     1       1.631   4.165  21.062  0.00  0.00    +0.000 C 
BRANCH  19  20
ATOM     20  O5* UNL     1       2.098   3.197  21.993  0.00  0.00    +0.000 OA
ATOM     21  H5* UNL     1       1.469   2.452  21.980  0.00  0.00    +0.000 HD
ENDBRANCH  19  20
ENDBRANCH  10  19
ENDBRANCH   1  12
BRANCH   5  22
ATOM     22  O   UNL     1       7.245   7.999  16.944  0.00  0.00    +0.000 OA
BRANCH  22  23
ATOM     23  C   UNL     1       8.223   8.100  17.984  0.00  0.00    +0.000 C 
BRANCH  23  24
ATOM     24  C   UNL     1       8.459   9.568  18.296  0.00  0.00    +0.000 C 
ATOM     25  F   UNL     1       9.048   9.689  19.514  0.00  0.00    +0.000 F 
ATOM     26  F   UNL     1       9.328  10.103  17.400  0.00  0.00    +0.000 F 
ENDBRANCH  23  24
ENDBRANCH  22  23
ENDBRANCH   5  22
TORSDOF 8
ENDMDL
MODEL 4
REMARK VINA RESULT:      -7.3      2.785      3.794
REMARK  Name = 
REMARK  8 active torsions:
REMARK  status: ('A' for Active; 'I' for Inactive)
REMARK    1  A    between atoms: O5*_1  and  C5*_2
REMARK    2  A    between atoms: C5*_2  and  C4*_3
REMARK    3  A    between atoms: C1*_5  and  N_6
REMARK    4  A    between atoms: C_10  and  O_11
REMARK    5  A    between atoms: O_11  and  C_12
REMARK    6  A    between atoms: C_12  and  C_13
REMARK    7  A    between atoms: C2*_20  and  O2*_21
REMARK    8  A    between atoms: C3*_22  and  O3*_23
REMARK                            x       y       z     vdW  Elec       q    Type
REMARK                         _______ _______ _______ _____ _____    ______ ____
ROOT
ATOM      1  N   UNL     1       3.124   5.025  18.096  0.00  0.00    +0.000 N 
ATOM      2  C   UNL     1       3.143   6.310  18.571  0.00  0.00    +0.000 A 
ATOM      3  N   UNL     1       4.204   6.976  18.173  0.00  0.00    +0.000 NA
ATOM      4  C   UNL     1       4.893   6.092  17.374  0.00  0.00    +0.000 A 
ATOM      5  C   UNL     1       6.063   6.201  16.618  0.00  0.00    +0.000 A 
ATOM      6  N   UNL     1       6.511   5.134  15.913  0.00  0.00    +0.000 NA
ATOM      7  C   UNL     1       5.782   3.999  15.971  0.00  0.00    +0.000 A 
ATOM      8  N   UNL     1       4.627   3.778  16.632  0.00  0.00    +0.000 NA
ATOM      9  C   UNL     1       4.241   4.868  17.318  0.00  0.00    +0.000 A 
ENDROOT
BRANCH   1  12
ATOM     10  C4* UNL     1       1.108   3.361  20.334  0.00  0.00    +0.000 C 
ATOM     11  O4* UNL     1       1.232   4.456  19.396  0.00  0.00    +0.000 OA
ATOM     12  C1* UNL     1       2.078   4.039  18.289  0.00  0.00    +0.000 C 
ATOM     13  C2* UNL     1       2.572   2.620  18.588  0.00  0.00    +0.000 C 
ATOM     14  C3* UNL     1       1.510   2.115  19.556  0.00  0.00    +0.000 C 
BRANCH  13  15
ATOM     15  O2* UNL     1       2.630   1.783  17.428  0.00  0.00    +0.000 OA
ATOM     16  H2* UNL     1       3.404   2.086  16.909  0.00  0.00    +0.000 HD
ENDBRANCH  13  15
BRANCH  14  17
ATOM     17  O3* UNL     1       0.393   1.620  18.783  0.00  0.00    +0.000 OA
ATOM     18  H3* UNL     1       0.312   2.159  17.973  0.00  0.00    +0.000 HD
ENDBRANCH  14  17
BRANCH  10  19
ATOM     19  C5* UNL     1       1.961   3.628  21.581  0.00  0.00    +0.000 C 
BRANCH  19  20
ATOM     20  O5* UNL     1       2.648   2.457  22.004  0.00  0.00    +0.000 OA
ATOM     21  H5* UNL     1       2.468   2.340  22.955  0.00  0.00    +0.000 HD
ENDBRANCH  19  20
ENDBRANCH  10  19
ENDBRANCH   1  12
BRANCH   5  22
ATOM     22  O   UNL     1       6.796   7.369  16.622  0.00  0.00    +0.000 OA
BRANCH  22  23
ATOM     23  C   UNL     1       7.736   7.403  17.699  0.00  0.00    +0.000 C 
BRANCH  23  24
ATOM     24  C   UNL     1       8.317   8.803  17.801  0.00  0.00    +0.000 C 
ATOM     25  F   UNL     1       7.320   9.721  17.711  0.00  0.00    +0.000 F 
ATOM     26  F   UNL     1       8.890   8.984  19.020  0.00  0.00    +0.000 F 
ENDBRANCH  23  24
ENDBRANCH  22  23
ENDBRANCH   5  22
TORSDOF 8
ENDMDL
MODEL 5
REMARK VINA RESULT:      -7.3      3.363      4.082
REMARK  Name = 
REMARK  8 active torsions:
REMARK  status: ('A' for Active; 'I' for Inactive)
REMARK    1  A    between atoms: O5*_1  and  C5*_2
REMARK    2  A    between atoms: C5*_2  and  C4*_3
REMARK    3  A    between atoms: C1*_5  and  N_6
REMARK    4  A    between atoms: C_10  and  O_11
REMARK    5  A    between atoms: O_11  and  C_12
REMARK    6  A    between atoms: C_12  and  C_13
REMARK    7  A    between atoms: C2*_20  and  O2*_21
REMARK    8  A    between atoms: C3*_22  and  O3*_23
REMARK                            x       y       z     vdW  Elec       q    Type
REMARK                         _______ _______ _______ _____ _____    ______ ____
ROOT
ATOM      1  N   UNL     1       5.233   4.751  17.178  0.00  0.00    +0.000 N 
ATOM      2  C   UNL     1       4.996   5.574  16.109  0.00  0.00    +0.000 A 
ATOM      3  N   UNL     1       5.776   6.632  16.108  0.00  0.00    +0.000 NA
ATOM      4  C   UNL     1       6.581   6.474  17.214  0.00  0.00    +0.000 A 
ATOM      5  C   UNL     1       7.640   7.220  17.737  0.00  0.00    +0.000 A 
ATOM      6  N   UNL     1       8.259   6.807  18.870  0.00  0.00    +0.000 NA
ATOM      7  C   UNL     1       7.817   5.665  19.440  0.00  0.00    +0.000 A 
ATOM      8  N   UNL     1       6.834   4.844  19.018  0.00  0.00    +0.000 NA
ATOM      9  C   UNL     1       6.254   5.312  17.899  0.00  0.00    +0.000 A 
ENDROOT
BRANCH   1  12
ATOM     10  C4* UNL     1       2.285   3.041  17.668  0.00  0.00    +0.000 C 
ATOM     11  O4* UNL     1       3.333   3.410  16.740  0.00  0.00    +0.000 OA
ATOM     12  C1* UNL     1       4.598   3.476  17.455  0.00  0.00    +0.000 C 
ATOM     13  C2* UNL     1       4.313   3.201  18.935  0.00  0.00    +0.000 C 
ATOM     14  C3* UNL     1       3.001   2.429  18.864  0.00  0.00    +0.000 C 
BRANCH  13  15
ATOM     15  O2* UNL     1       5.324   2.413  19.571  0.00  0.00    +0.000 OA
ATOM     16  H2* UNL     1       4.865   1.642  19.964  0.00  0.00    +0.000 HD
ENDBRANCH  13  15
BRANCH  14  17
ATOM     17  O3* UNL     1       3.309   1.040  18.611  0.00  0.00    +0.000 OA
ATOM     18  H3* UNL     1       2.805   0.489  19.240  0.00  0.00    +0.000 HD
ENDBRANCH  14  17
BRANCH  10  19
ATOM     19  C5* UNL     1       1.421   4.263  18.008  0.00  0.00    +0.000 C 
BRANCH  19  20
ATOM     20  O5* UNL     1       1.031   4.261  19.375  0.00  0.00    +0.000 OA
ATOM     21  H5* UNL     1       0.856   3.336  19.628  0.00  0.00    +0.000 HD
ENDBRANCH  19  20
ENDBRANCH  10  19
ENDBRANCH   1  12
BRANCH   5  22
ATOM     22  O   UNL     1       8.029   8.401  17.142  0.00  0.00    +0.000 OA
BRANCH  22  23
ATOM     23  C   UNL     1       7.853   9.520  18.015  0.00  0.00    +0.000 C 
BRANCH  23  24
ATOM     24  C   UNL     1       9.203  10.173  18.257  0.00  0.00    +0.000 C 
ATOM     25  F   UNL     1       9.122  11.504  17.996  0.00  0.00    +0.000 F 
ATOM     26  F   UNL     1       9.547  10.063  19.566  0.00  0.00    +0.000 F 
ENDBRANCH  23  24
ENDBRANCH  22  23
ENDBRANCH   5  22
TORSDOF 8
ENDMDL
MODEL 6
REMARK VINA RESULT:      -7.2      1.046      1.133
REMARK  Name = 
REMARK  8 active torsions:
REMARK  status: ('A' for Active; 'I' for Inactive)
REMARK    1  A    between atoms: O5*_1  and  C5*_2
REMARK    2  A    between atoms: C5*_2  and  C4*_3
REMARK    3  A    between atoms: C1*_5  and  N_6
REMARK    4  A    between atoms: C_10  and  O_11
REMARK    5  A    between atoms: O_11  and  C_12
REMARK    6  A    between atoms: C_12  and  C_13
REMARK    7  A    between atoms: C2*_20  and  O2*_21
REMARK    8  A    between atoms: C3*_22  and  O3*_23
REMARK                            x       y       z     vdW  Elec       q    Type
REMARK                         _______ _______ _______ _____ _____    ______ ____
ROOT
ATOM      1  N   UNL     1       4.179   4.721  18.558  0.00  0.00    +0.000 N 
ATOM      2  C   UNL     1       3.431   5.164  17.499  0.00  0.00    +0.000 A 
ATOM      3  N   UNL     1       4.173   5.496  16.466  0.00  0.00    +0.000 NA
ATOM      4  C   UNL     1       5.464   5.226  16.860  0.00  0.00    +0.000 A 
ATOM      5  C   UNL     1       6.697   5.312  16.210  0.00  0.00    +0.000 A 
ATOM      6  N   UNL     1       7.831   4.968  16.869  0.00  0.00    +0.000 NA
ATOM      7  C   UNL     1       7.704   4.540  18.144  0.00  0.00    +0.000 A 
ATOM      8  N   UNL     1       6.576   4.382  18.866  0.00  0.00    +0.000 NA
ATOM      9  C   UNL     1       5.491   4.748  18.162  0.00  0.00    +0.000 A 
ENDROOT
BRANCH   1  12
ATOM     10  C4* UNL     1       2.336   2.314  20.188  0.00  0.00    +0.000 C 
ATOM     11  O4* UNL     1       3.649   2.767  19.782  0.00  0.00    +0.000 OA
ATOM     12  C1* UNL     1       3.684   4.220  19.827  0.00  0.00    +0.000 C 
ATOM     13  C2* UNL     1       2.285   4.710  20.215  0.00  0.00    +0.000 C 
ATOM     14  C3* UNL     1       1.713   3.490  20.927  0.00  0.00    +0.000 C 
BRANCH  13  15
ATOM     15  O2* UNL     1       2.303   5.840  21.093  0.00  0.00    +0.000 OA
ATOM     16  H2* UNL     1       2.273   6.634  20.520  0.00  0.00    +0.000 HD
ENDBRANCH  13  15
BRANCH  14  17
ATOM     17  O3* UNL     1       2.162   3.518  22.301  0.00  0.00    +0.000 OA
ATOM     18  H3* UNL     1       1.388   3.397  22.884  0.00  0.00    +0.000 HD
ENDBRANCH  14  17
BRANCH  10  19
ATOM     19  C5* UNL     1       1.535   1.841  18.967  0.00  0.00    +0.000 C 
BRANCH  19  20
ATOM     20  O5* UNL     1       0.210   2.357  18.981  0.00  0.00    +0.000 OA
ATOM     21  H5* UNL     1      -0.317   1.793  19.578  0.00  0.00    +0.000 HD
ENDBRANCH  19  20
ENDBRANCH  10  19
ENDBRANCH   1  12
BRANCH   5  22
ATOM     22  O   UNL     1       6.780   5.793  14.920  0.00  0.00    +0.000 OA
BRANCH  22  23
ATOM     23  C   UNL     1       7.097   4.758  13.985  0.00  0.00    +0.000 C 
BRANCH  23  24
ATOM     24  C   UNL     1       7.652   5.390  12.720  0.00  0.00    +0.000 C 
ATOM     25  F   UNL     1       8.941   5.767  12.923  0.00  0.00    +0.000 F 
ATOM     26  F   UNL     1       7.676   4.478  11.714  0.00  0.00    +0.000 F 
ENDBRANCH  23  24
ENDBRANCH  22  23
ENDBRANCH   5  22
TORSDOF 8
ENDMDL
MODEL 7
REMARK VINA RESULT:      -7.2      1.070      1.291
REMARK  Name = 
REMARK  8 active torsions:
REMARK  status: ('A' for Active; 'I' for Inactive)
REMARK    1  A    between atoms: O5*_1  and  C5*_2
REMARK    2  A    between atoms: C5*_2  and  C4*_3
REMARK    3  A    between atoms: C1*_5  and  N_6
REMARK    4  A    between atoms: C_10  and  O_11
REMARK    5  A    between atoms: O_11  and  C_12
REMARK    6  A    between atoms: C_12  and  C_13
REMARK    7  A    between atoms: C2*_20  and  O2*_21
REMARK    8  A    between atoms: C3*_22  and  O3*_23
REMARK                            x       y       z     vdW  Elec       q    Type
REMARK                         _______ _______ _______ _____ _____    ______ ____
ROOT
ATOM      1  N   UNL     1       4.205   4.095  18.163  0.00  0.00    +0.000 N 
ATOM      2  C   UNL     1       3.512   4.063  16.981  0.00  0.00    +0.000 A 
ATOM      3  N   UNL     1       4.288   4.263  15.939  0.00  0.00    +0.000 NA
ATOM      4  C   UNL     1       5.552   4.401  16.466  0.00  0.00    +0.000 A 
ATOM      5  C   UNL     1       6.812   4.582  15.888  0.00  0.00    +0.000 A 
ATOM      6  N   UNL     1       7.907   4.687  16.680  0.00  0.00    +0.000 NA
ATOM      7  C   UNL     1       7.720   4.597  18.015  0.00  0.00    +0.000 A 
ATOM      8  N   UNL     1       6.570   4.392  18.688  0.00  0.00    +0.000 NA
ATOM      9  C   UNL     1       5.523   4.307  17.850  0.00  0.00    +0.000 A 
ENDROOT
BRANCH   1  12
ATOM     10  C4* UNL     1       1.894   2.421  20.087  0.00  0.00    +0.000 C 
ATOM     11  O4* UNL     1       3.252   2.467  19.590  0.00  0.00    +0.000 OA
ATOM     12  C1* UNL     1       3.676   3.855  19.492  0.00  0.00    +0.000 C 
ATOM     13  C2* UNL     1       2.484   4.735  19.884  0.00  0.00    +0.000 C 
ATOM     14  C3* UNL     1       1.654   3.779  20.732  0.00  0.00    +0.000 C 
BRANCH  13  15
ATOM     15  O2* UNL     1       2.856   5.887  20.647  0.00  0.00    +0.000 OA
ATOM     16  H2* UNL     1       3.759   6.130  20.354  0.00  0.00    +0.000 HD
ENDBRANCH  13  15
BRANCH  14  17
ATOM     17  O3* UNL     1       2.179   3.799  22.078  0.00  0.00    +0.000 OA
ATOM     18  H3* UNL     1       2.954   3.206  22.120  0.00  0.00    +0.000 HD
ENDBRANCH  14  17
BRANCH  10  19
ATOM     19  C5* UNL     1       0.922   2.082  18.950  0.00  0.00    +0.000 C 
BRANCH  19  20
ATOM     20  O5* UNL     1       1.610   1.610  17.798  0.00  0.00    +0.000 OA
ATOM     21  H5* UNL     1       2.452   1.221  18.100  0.00  0.00    +0.000 HD
ENDBRANCH  19  20
ENDBRANCH  10  19
ENDBRANCH   1  12
BRANCH   5  22
ATOM     22  O   UNL     1       6.947   4.708  14.522  0.00  0.00    +0.000 OA
BRANCH  22  23
ATOM     23  C   UNL     1       5.903   4.028  13.819  0.00  0.00    +0.000 C 
BRANCH  23  24
ATOM     24  C   UNL     1       6.471   3.444  12.537  0.00  0.00    +0.000 C 
ATOM     25  F   UNL     1       5.459   3.004  11.745  0.00  0.00    +0.000 F 
ATOM     26  F   UNL     1       7.115   4.409  11.830  0.00  0.00    +0.000 F 
ENDBRANCH  23  24
ENDBRANCH  22  23
ENDBRANCH   5  22
TORSDOF 8
ENDMDL
MODEL 8
REMARK VINA RESULT:      -7.2      1.851      2.490
REMARK  Name = 
REMARK  8 active torsions:
REMARK  status: ('A' for Active; 'I' for Inactive)
REMARK    1  A    between atoms: O5*_1  and  C5*_2
REMARK    2  A    between atoms: C5*_2  and  C4*_3
REMARK    3  A    between atoms: C1*_5  and  N_6
REMARK    4  A    between atoms: C_10  and  O_11
REMARK    5  A    between atoms: O_11  and  C_12
REMARK    6  A    between atoms: C_12  and  C_13
REMARK    7  A    between atoms: C2*_20  and  O2*_21
REMARK    8  A    between atoms: C3*_22  and  O3*_23
REMARK                            x       y       z     vdW  Elec       q    Type
REMARK                         _______ _______ _______ _____ _____    ______ ____
ROOT
ATOM      1  N   UNL     1       4.004   5.224  18.152  0.00  0.00    +0.000 N 
ATOM      2  C   UNL     1       3.504   4.094  17.561  0.00  0.00    +0.000 A 
ATOM      3  N   UNL     1       4.251   3.677  16.563  0.00  0.00    +0.000 NA
ATOM      4  C   UNL     1       5.306   4.561  16.523  0.00  0.00    +0.000 A 
ATOM      5  C   UNL     1       6.456   4.639  15.734  0.00  0.00    +0.000 A 
ATOM      6  N   UNL     1       7.340   5.648  15.929  0.00  0.00    +0.000 NA
ATOM      7  C   UNL     1       7.062   6.539  16.906  0.00  0.00    +0.000 A 
ATOM      8  N   UNL     1       6.011   6.553  17.751  0.00  0.00    +0.000 NA
ATOM      9  C   UNL     1       5.168   5.537  17.500  0.00  0.00    +0.000 A 
ENDROOT
BRANCH   1  12
ATOM     10  C4* UNL     1       1.851   5.107  20.835  0.00  0.00    +0.000 C 
ATOM     11  O4* UNL     1       3.208   4.940  20.362  0.00  0.00    +0.000 OA
ATOM     12  C1* UNL     1       3.468   5.912  19.312  0.00  0.00    +0.000 C 
ATOM     13  C2* UNL     1       2.170   6.688  19.062  0.00  0.00    +0.000 C 
ATOM     14  C3* UNL     1       1.434   6.500  20.383  0.00  0.00    +0.000 C 
BRANCH  13  15
ATOM     15  O2* UNL     1       2.382   8.078  18.800  0.00  0.00    +0.000 OA
ATOM     16  H2* UNL     1       1.493   8.482  18.722  0.00  0.00    +0.000 HD
ENDBRANCH  13  15
BRANCH  14  17
ATOM     17  O3* UNL     1       1.914   7.497  21.313  0.00  0.00    +0.000 OA
ATOM     18  H3* UNL     1       1.774   7.169  22.222  0.00  0.00    +0.000 HD
ENDBRANCH  14  17
BRANCH  10  19
ATOM     19  C5* UNL     1       0.958   3.978  20.303  0.00  0.00    +0.000 C 
BRANCH  19  20
ATOM     20  O5* UNL     1       0.854   2.911  21.237  0.00  0.00    +0.000 OA
ATOM     21  H5* UNL     1       1.291   3.199  22.060  0.00  0.00    +0.000 HD
ENDBRANCH  19  20
ENDBRANCH  10  19
ENDBRANCH   1  12
BRANCH   5  22
ATOM     22  O   UNL     1       6.677   3.729  14.722  0.00  0.00    +0.000 OA
BRANCH  22  23
ATOM     23  C   UNL     1       5.966   4.076  13.530  0.00  0.00    +0.000 C 
BRANCH  23  24
ATOM     24  C   UNL     1       6.633   3.401  12.344  0.00  0.00    +0.000 C 
ATOM     25  F   UNL     1       5.703   2.735  11.612  0.00  0.00    +0.000 F 
ATOM     26  F   UNL     1       7.170   4.335  11.516  0.00  0.00    +0.000 F 
ENDBRANCH  23  24
ENDBRANCH  22  23
ENDBRANCH   5  22
TORSDOF 8
ENDMDL
MODEL 9
REMARK VINA RESULT:      -7.0      1.206      1.509
REMARK  Name = 
REMARK  8 active torsions:
REMARK  status: ('A' for Active; 'I' for Inactive)
REMARK    1  A    between atoms: O5*_1  and  C5*_2
REMARK    2  A    between atoms: C5*_2  and  C4*_3
REMARK    3  A    between atoms: C1*_5  and  N_6
REMARK    4  A    between atoms: C_10  and  O_11
REMARK    5  A    between atoms: O_11  and  C_12
REMARK    6  A    between atoms: C_12  and  C_13
REMARK    7  A    between atoms: C2*_20  and  O2*_21
REMARK    8  A    between atoms: C3*_22  and  O3*_23
REMARK                            x       y       z     vdW  Elec       q    Type
REMARK                         _______ _______ _______ _____ _____    ______ ____
ROOT
ATOM      1  N   UNL     1       4.553   4.299  18.141  0.00  0.00    +0.000 N 
ATOM      2  C   UNL     1       4.344   3.328  17.197  0.00  0.00    +0.000 A 
ATOM      3  N   UNL     1       5.139   3.459  16.158  0.00  0.00    +0.000 NA
ATOM      4  C   UNL     1       5.925   4.549  16.455  0.00  0.00    +0.000 A 
ATOM      5  C   UNL     1       6.988   5.168  15.791  0.00  0.00    +0.000 A 
ATOM      6  N   UNL     1       7.585   6.253  16.341  0.00  0.00    +0.000 NA
ATOM      7  C   UNL     1       7.119   6.682  17.534  0.00  0.00    +0.000 A 
ATOM      8  N   UNL     1       6.130   6.156  18.285  0.00  0.00    +0.000 NA
ATOM      9  C   UNL     1       5.573   5.092  17.683  0.00  0.00    +0.000 A 
ENDROOT
BRANCH   1  12
ATOM     10  C4* UNL     1       2.032   3.194  20.208  0.00  0.00    +0.000 C 
ATOM     11  O4* UNL     1       3.431   3.106  19.849  0.00  0.00    +0.000 OA
ATOM     12  C1* UNL     1       3.897   4.419  19.430  0.00  0.00    +0.000 C 
ATOM     13  C2* UNL     1       2.697   5.372  19.460  0.00  0.00    +0.000 C 
ATOM     14  C3* UNL     1       1.768   4.674  20.446  0.00  0.00    +0.000 C 
BRANCH  13  15
ATOM     15  O2* UNL     1       3.027   6.684  19.925  0.00  0.00    +0.000 OA
ATOM     16  H2* UNL     1       2.226   7.026  20.374  0.00  0.00    +0.000 HD
ENDBRANCH  13  15
BRANCH  14  17
ATOM     17  O3* UNL     1       2.167   5.049  21.784  0.00  0.00    +0.000 OA
ATOM     18  H3* UNL     1       2.215   4.243  22.333  0.00  0.00    +0.000 HD
ENDBRANCH  14  17
BRANCH  10  19
ATOM     19  C5* UNL     1       1.161   2.567  19.112  0.00  0.00    +0.000 C 
BRANCH  19  20
ATOM     20  O5* UNL     1       1.771   1.408  18.559  0.00  0.00    +0.000 OA
ATOM     21  H5* UNL     1       1.815   1.533  17.593  0.00  0.00    +0.000 HD
ENDBRANCH  19  20
ENDBRANCH  10  19
ENDBRANCH   1  12
BRANCH   5  22
ATOM     22  O   UNL     1       7.402   4.718  14.556  0.00  0.00    +0.000 OA
BRANCH  22  23
ATOM     23  C   UNL     1       6.324   4.676  13.616  0.00  0.00    +0.000 C 
BRANCH  23  24
ATOM     24  C   UNL     1       6.680   3.707  12.502  0.00  0.00    +0.000 C 
ATOM     25  F   UNL     1       5.546   3.237  11.922  0.00  0.00    +0.000 F 
ATOM     26  F   UNL     1       7.368   4.352  11.523  0.00  0.00    +0.000 F 
ENDBRANCH  23  24
ENDBRANCH  22  23
ENDBRANCH   5  22
TORSDOF 8
ENDMDL
