MODEL 1
REMARK VINA RESULT:      -8.2      0.000      0.000
REMARK  Name = 
REMARK  7 active torsions:
REMARK  status: ('A' for Active; 'I' for Inactive)
REMARK    1  A    between atoms: C_1  and  C_2
REMARK    2  A    between atoms: C_2  and  C_3
REMARK    3  A    between atoms: C_2  and  C_8
REMARK    4  A    between atoms: C_3  and  C_4
REMARK    5  A    between atoms: C_13  and  O_14
REMARK    6  A    between atoms: C_13  and  C_15
REMARK    7  A    between atoms: C_15  and  N_16
REMARK                            x       y       z     vdW  Elec       q    Type
REMARK                         _______ _______ _______ _____ _____    ______ ____
ROOT
ATOM      1  C   UNL     1       5.249   4.370  16.809  0.00  0.00    +0.000 C 
ATOM      2  O   UNL     1       5.083   3.151  16.743  0.00  0.00    +0.000 OA
ATOM      3  N   UNL     1       4.233   5.219  17.223  0.00  0.00    +0.000 N 
ATOM      4  C   UNL     1       4.226   6.669  17.117  0.00  0.00    +0.000 C 
ATOM      5  C   UNL     1       3.759   7.311  18.417  0.00  0.00    +0.000 C 
ATOM      6  C   UNL     1       2.399   6.744  18.895  0.00  0.00    +0.000 C 
ATOM      7  C   UNL     1       2.452   5.162  18.960  0.00  0.00    +0.000 C 
ATOM      8  C   UNL     1       1.070   4.511  19.256  0.00  0.00    +0.000 C 
ATOM      9  C   UNL     1       1.294   3.500  20.372  0.00  0.00    +0.000 C 
ATOM     10  C   UNL     1       2.499   4.016  21.133  0.00  0.00    +0.000 C 
ATOM     11  C   UNL     1       3.396   4.599  20.053  0.00  0.00    +0.000 C 
ATOM     12  C   UNL     1       2.933   4.646  17.574  0.00  0.00    +0.000 C 
ENDROOT
BRANCH   1  14
ATOM     13  C   UNL     1       7.143   4.545  15.136  0.00  0.00    +0.000 C 
ATOM     14  C   UNL     1       6.622   4.977  16.508  0.00  0.00    +0.000 C 
BRANCH  14  15
ATOM     15  C   UNL     1       7.618   4.668  17.637  0.00  0.00    +0.000 C 
BRANCH  15  16
ATOM     16  C   UNL     1       7.644   5.635  18.810  0.00  0.00    +0.000 C 
ATOM     17  F   UNL     1       6.513   5.673  19.530  0.00  0.00    +0.000 F 
ATOM     18  F   UNL     1       8.650   5.306  19.656  0.00  0.00    +0.000 F 
ATOM     19  F   UNL     1       7.894   6.893  18.374  0.00  0.00    +0.000 F 
ENDBRANCH  15  16
ENDBRANCH  14  15
ENDBRANCH   1  14
BRANCH   6  20
ATOM     20  O   UNL     1       1.413   7.065  17.888  0.00  0.00    +0.000 OA
ATOM     21  H   UNL     1       0.632   6.509  18.064  0.00  0.00    +0.000 HD
ENDBRANCH   6  20
BRANCH   6  22
ATOM     22  C   UNL     1       1.977   7.458  20.231  0.00  0.00    +0.000 C 
BRANCH  22  23
ATOM     23  N   UNL     1       1.299   8.772  20.024  0.00  0.00    +0.000 N 
ATOM     24  C   UNL     1       1.472   9.426  18.811  0.00  0.00    +0.000 A 
ATOM     25  C   UNL     1       0.991  10.652  18.573  0.00  0.00    +0.000 A 
ATOM     26  C   UNL     1       0.190  11.324  19.589  0.00  0.00    +0.000 A 
ATOM     27  C   UNL     1      -0.326  12.605  19.381  0.00  0.00    +0.000 A 
ATOM     28  C   UNL     1      -1.154  13.146  20.353  0.00  0.00    +0.000 A 
ATOM     29  N   UNL     1      -1.479  12.502  21.499  0.00  0.00    +0.000 NA
ATOM     30  C   UNL     1      -0.942  11.270  21.692  0.00  0.00    +0.000 A 
ATOM     31  C   UNL     1      -0.100  10.652  20.776  0.00  0.00    +0.000 A 
ATOM     32  C   UNL     1       0.511   9.325  21.050  0.00  0.00    +0.000 A 
ATOM     33  O   UNL     1       0.336   8.791  22.141  0.00  0.00    +0.000 OA
ENDBRANCH  22  23
ENDBRANCH   6  22
TORSDOF 6
ENDMDL
MODEL 2
REMARK VINA RESULT:      -7.4      5.443      8.774
REMARK  Name = 
REMARK  7 active torsions:
REMARK  status: ('A' for Active; 'I' for Inactive)
REMARK    1  A    between atoms: C_1  and  C_2
REMARK    2  A    between atoms: C_2  and  C_3
REMARK    3  A    between atoms: C_2  and  C_8
REMARK    4  A    between atoms: C_3  and  C_4
REMARK    5  A    between atoms: C_13  and  O_14
REMARK    6  A    between atoms: C_13  and  C_15
REMARK    7  A    between atoms: C_15  and  N_16
REMARK                            x       y       z     vdW  Elec       q    Type
REMARK                         _______ _______ _______ _____ _____    ______ ____
ROOT
ATOM      1  C   UNL     1       1.307  11.118  19.138  0.00  0.00    +0.000 C 
ATOM      2  O   UNL     1       2.227  11.581  18.463  0.00  0.00    +0.000 OA
ATOM      3  N   UNL     1       0.766  11.820  20.205  0.00  0.00    +0.000 N 
ATOM      4  C   UNL     1      -0.143  11.293  21.211  0.00  0.00    +0.000 C 
ATOM      5  C   UNL     1      -1.305  12.247  21.453  0.00  0.00    +0.000 C 
ATOM      6  C   UNL     1      -0.826  13.684  21.780  0.00  0.00    +0.000 C 
ATOM      7  C   UNL     1       0.185  14.194  20.673  0.00  0.00    +0.000 C 
ATOM      8  C   UNL     1       0.849  15.556  21.027  0.00  0.00    +0.000 C 
ATOM      9  C   UNL     1       0.718  16.439  19.795  0.00  0.00    +0.000 C 
ATOM     10  C   UNL     1      -0.508  15.922  19.070  0.00  0.00    +0.000 C 
ATOM     11  C   UNL     1      -0.454  14.418  19.279  0.00  0.00    +0.000 C 
ATOM     12  C   UNL     1       1.316  13.135  20.537  0.00  0.00    +0.000 C 
ENDROOT
BRANCH   1  14
ATOM     13  C   UNL     1       1.740   8.695  18.540  0.00  0.00    +0.000 C 
ATOM     14  C   UNL     1       0.679   9.773  18.764  0.00  0.00    +0.000 C 
BRANCH  14  15
ATOM     15  C   UNL     1      -0.263   9.926  17.559  0.00  0.00    +0.000 C 
BRANCH  15  16
ATOM     16  C   UNL     1      -1.687  10.372  17.856  0.00  0.00    +0.000 C 
ATOM     17  F   UNL     1      -1.857  11.701  17.912  0.00  0.00    +0.000 F 
ATOM     18  F   UNL     1      -2.526   9.897  16.903  0.00  0.00    +0.000 F 
ATOM     19  F   UNL     1      -2.102   9.855  19.037  0.00  0.00    +0.000 F 
ENDBRANCH  15  16
ENDBRANCH  14  15
ENDBRANCH   1  14
BRANCH   6  20
ATOM     20  O   UNL     1      -0.068  13.622  23.010  0.00  0.00    +0.000 OA
ATOM     21  H   UNL     1       0.090  14.540  23.295  0.00  0.00    +0.000 HD
ENDBRANCH   6  20
BRANCH   6  22
ATOM     22  C   UNL     1      -2.075  14.606  22.027  0.00  0.00    +0.000 C 
BRANCH  22  23
ATOM     23  N   UNL     1      -3.382  13.890  21.933  0.00  0.00    +0.000 N 
ATOM     24  C   UNL     1      -3.843  13.512  20.678  0.00  0.00    +0.000 A 
ATOM     25  C   UNL     1      -5.047  12.961  20.484  0.00  0.00    +0.000 A 
ATOM     26  C   UNL     1      -5.903  12.672  21.628  0.00  0.00    +0.000 A 
ATOM     27  C   UNL     1      -7.168  12.103  21.467  0.00  0.00    +0.000 A 
ATOM     28  C   UNL     1      -7.889  11.772  22.604  0.00  0.00    +0.000 A 
ATOM     29  N   UNL     1      -7.437  11.984  23.862  0.00  0.00    +0.000 NA
ATOM     30  C   UNL     1      -6.217  12.566  23.994  0.00  0.00    +0.000 A 
ATOM     31  C   UNL     1      -5.427  12.934  22.912  0.00  0.00    +0.000 A 
ATOM     32  C   UNL     1      -4.121  13.618  23.098  0.00  0.00    +0.000 A 
ATOM     33  O   UNL     1      -3.761  13.940  24.226  0.00  0.00    +0.000 OA
ENDBRANCH  22  23
ENDBRANCH   6  22
TORSDOF 6
ENDMDL
MODEL 3
REMARK VINA RESULT:      -7.3      4.950      9.732
REMARK  Name = 
REMARK  7 active torsions:
REMARK  status: ('A' for Active; 'I' for Inactive)
REMARK    1  A    between atoms: C_1  and  C_2
REMARK    2  A    between atoms: C_2  and  C_3
REMARK    3  A    between atoms: C_2  and  C_8
REMARK    4  A    between atoms: C_3  and  C_4
REMARK    5  A    between atoms: C_13  and  O_14
REMARK    6  A    between atoms: C_13  and  C_15
REMARK    7  A    between atoms: C_15  and  N_16
REMARK                            x       y       z     vdW  Elec       q    Type
REMARK                         _______ _______ _______ _____ _____    ______ ____
ROOT
ATOM      1  C   UNL     1       1.019  16.156  20.935  0.00  0.00    +0.000 C 
ATOM      2  O   UNL     1       0.366  16.737  21.803  0.00  0.00    +0.000 OA
ATOM      3  N   UNL     1       1.127  14.773  20.913  0.00  0.00    +0.000 N 
ATOM      4  C   UNL     1       2.047  13.995  20.099  0.00  0.00    +0.000 C 
ATOM      5  C   UNL     1       1.334  12.823  19.436  0.00  0.00    +0.000 C 
ATOM      6  C   UNL     1       0.562  11.951  20.458  0.00  0.00    +0.000 C 
ATOM      7  C   UNL     1      -0.397  12.853  21.338  0.00  0.00    +0.000 C 
ATOM      8  C   UNL     1      -1.070  12.076  22.508  0.00  0.00    +0.000 C 
ATOM      9  C   UNL     1      -2.553  12.412  22.459  0.00  0.00    +0.000 C 
ATOM     10  C   UNL     1      -2.830  12.755  21.009  0.00  0.00    +0.000 C 
ATOM     11  C   UNL     1      -1.576  13.485  20.556  0.00  0.00    +0.000 C 
ATOM     12  C   UNL     1       0.458  13.995  21.956  0.00  0.00    +0.000 C 
ENDROOT
BRANCH   1  14
ATOM     13  C   UNL     1       2.864  17.769  20.296  0.00  0.00    +0.000 C 
ATOM     14  C   UNL     1       1.670  16.951  19.801  0.00  0.00    +0.000 C 
BRANCH  14  15
ATOM     15  C   UNL     1       0.630  17.816  19.071  0.00  0.00    +0.000 C 
BRANCH  15  16
ATOM     16  C   UNL     1      -0.476  17.078  18.331  0.00  0.00    +0.000 C 
ATOM     17  F   UNL     1      -1.672  17.109  18.936  0.00  0.00    +0.000 F 
ATOM     18  F   UNL     1      -0.635  17.608  17.094  0.00  0.00    +0.000 F 
ATOM     19  F   UNL     1      -0.136  15.778  18.159  0.00  0.00    +0.000 F 
ENDBRANCH  15  16
ENDBRANCH  14  15
ENDBRANCH   1  14
BRANCH   6  20
ATOM     20  O   UNL     1       1.530  11.392  21.375  0.00  0.00    +0.000 OA
ATOM     21  H   UNL     1       2.276  11.065  20.839  0.00  0.00    +0.000 HD
ENDBRANCH   6  20
BRANCH   6  22
ATOM     22  C   UNL     1      -0.136  10.761  19.706  0.00  0.00    +0.000 C 
BRANCH  22  23
ATOM     23  N   UNL     1       0.670   9.504  19.685  0.00  0.00    +0.000 N 
ATOM     24  C   UNL     1       0.575   8.636  20.765  0.00  0.00    +0.000 A 
ATOM     25  C   UNL     1       1.334   7.541  20.883  0.00  0.00    +0.000 A 
ATOM     26  C   UNL     1       2.261   7.184  19.816  0.00  0.00    +0.000 A 
ATOM     27  C   UNL     1       3.075   6.052  19.904  0.00  0.00    +0.000 A 
ATOM     28  C   UNL     1       3.865   5.724  18.813  0.00  0.00    +0.000 A 
ATOM     29  N   UNL     1       3.899   6.451  17.671  0.00  0.00    +0.000 NA
ATOM     30  C   UNL     1       3.122   7.563  17.620  0.00  0.00    +0.000 A 
ATOM     31  C   UNL     1       2.302   7.970  18.665  0.00  0.00    +0.000 A 
ATOM     32  C   UNL     1       1.508   9.225  18.590  0.00  0.00    +0.000 A 
ATOM     33  O   UNL     1       1.634   9.964  17.619  0.00  0.00    +0.000 OA
ENDBRANCH  22  23
ENDBRANCH   6  22
TORSDOF 6
ENDMDL
MODEL 4
REMARK VINA RESULT:      -7.3      5.440      8.732
REMARK  Name = 
REMARK  7 active torsions:
REMARK  status: ('A' for Active; 'I' for Inactive)
REMARK    1  A    between atoms: C_1  and  C_2
REMARK    2  A    between atoms: C_2  and  C_3
REMARK    3  A    between atoms: C_2  and  C_8
REMARK    4  A    between atoms: C_3  and  C_4
REMARK    5  A    between atoms: C_13  and  O_14
REMARK    6  A    between atoms: C_13  and  C_15
REMARK    7  A    between atoms: C_15  and  N_16
REMARK                            x       y       z     vdW  Elec       q    Type
REMARK                         _______ _______ _______ _____ _____    ______ ____
ROOT
ATOM      1  C   UNL     1       1.830  11.517  18.619  0.00  0.00    +0.000 C 
ATOM      2  O   UNL     1       2.532  11.871  17.671  0.00  0.00    +0.000 OA
ATOM      3  N   UNL     1       1.570  12.365  19.685  0.00  0.00    +0.000 N 
ATOM      4  C   UNL     1       0.966  11.992  20.955  0.00  0.00    +0.000 C 
ATOM      5  C   UNL     1      -0.113  12.987  21.361  0.00  0.00    +0.000 C 
ATOM      6  C   UNL     1       0.404  14.448  21.356  0.00  0.00    +0.000 C 
ATOM      7  C   UNL     1       1.081  14.789  19.965  0.00  0.00    +0.000 C 
ATOM      8  C   UNL     1       1.786  16.176  19.947  0.00  0.00    +0.000 C 
ATOM      9  C   UNL     1       1.320  16.886  18.684  0.00  0.00    +0.000 C 
ATOM     10  C   UNL     1      -0.042  16.294  18.381  0.00  0.00    +0.000 C 
ATOM     11  C   UNL     1       0.097  14.831  18.769  0.00  0.00    +0.000 C 
ATOM     12  C   UNL     1       2.159  13.705  19.682  0.00  0.00    +0.000 C 
ENDROOT
BRANCH   1  14
ATOM     13  C   UNL     1       2.075   9.065  18.032  0.00  0.00    +0.000 C 
ATOM     14  C   UNL     1       1.154  10.143  18.605  0.00  0.00    +0.000 C 
BRANCH  14  15
ATOM     15  C   UNL     1      -0.199  10.206  17.878  0.00  0.00    +0.000 C 
BRANCH  15  16
ATOM     16  C   UNL     1      -1.441  10.310  18.749  0.00  0.00    +0.000 C 
ATOM     17  F   UNL     1      -1.881  11.560  18.950  0.00  0.00    +0.000 F 
ATOM     18  F   UNL     1      -2.457   9.609  18.189  0.00  0.00    +0.000 F 
ATOM     19  F   UNL     1      -1.207   9.758  19.964  0.00  0.00    +0.000 F 
ENDBRANCH  15  16
ENDBRANCH  14  15
ENDBRANCH   1  14
BRANCH   6  20
ATOM     20  O   UNL     1       1.458  14.542  22.342  0.00  0.00    +0.000 OA
ATOM     21  H   UNL     1       2.051  13.782  22.200  0.00  0.00    +0.000 HD
ENDBRANCH   6  20
BRANCH   6  22
ATOM     22  C   UNL     1      -0.756  15.413  21.794  0.00  0.00    +0.000 C 
BRANCH  22  23
ATOM     23  N   UNL     1      -1.847  14.738  22.558  0.00  0.00    +0.000 N 
ATOM     24  C   UNL     1      -1.676  14.534  23.921  0.00  0.00    +0.000 A 
ATOM     25  C   UNL     1      -2.550  13.848  24.667  0.00  0.00    +0.000 A 
ATOM     26  C   UNL     1      -3.774  13.340  24.062  0.00  0.00    +0.000 A 
ATOM     27  C   UNL     1      -4.708  12.614  24.805  0.00  0.00    +0.000 A 
ATOM     28  C   UNL     1      -5.892  12.240  24.187  0.00  0.00    +0.000 A 
ATOM     29  N   UNL     1      -6.185  12.530  22.897  0.00  0.00    +0.000 NA
ATOM     30  C   UNL     1      -5.249  13.210  22.186  0.00  0.00    +0.000 A 
ATOM     31  C   UNL     1      -4.034  13.622  22.721  0.00  0.00    +0.000 A 
ATOM     32  C   UNL     1      -3.014  14.317  21.894  0.00  0.00    +0.000 A 
ATOM     33  O   UNL     1      -3.207  14.465  20.691  0.00  0.00    +0.000 OA
ENDBRANCH  22  23
ENDBRANCH   6  22
TORSDOF 6
ENDMDL
MODEL 5
REMARK VINA RESULT:      -7.2      1.120      1.530
REMARK  Name = 
REMARK  7 active torsions:
REMARK  status: ('A' for Active; 'I' for Inactive)
REMARK    1  A    between atoms: C_1  and  C_2
REMARK    2  A    between atoms: C_2  and  C_3
REMARK    3  A    between atoms: C_2  and  C_8
REMARK    4  A    between atoms: C_3  and  C_4
REMARK    5  A    between atoms: C_13  and  O_14
REMARK    6  A    between atoms: C_13  and  C_15
REMARK    7  A    between atoms: C_15  and  N_16
REMARK                            x       y       z     vdW  Elec       q    Type
REMARK                         _______ _______ _______ _____ _____    ______ ____
ROOT
ATOM      1  C   UNL     1       5.042   4.349  16.676  0.00  0.00    +0.000 C 
ATOM      2  O   UNL     1       4.800   3.143  16.599  0.00  0.00    +0.000 OA
ATOM      3  N   UNL     1       4.108   5.245  17.173  0.00  0.00    +0.000 N 
ATOM      4  C   UNL     1       4.179   6.696  17.094  0.00  0.00    +0.000 C 
ATOM      5  C   UNL     1       3.837   7.334  18.434  0.00  0.00    +0.000 C 
ATOM      6  C   UNL     1       2.481   6.836  18.992  0.00  0.00    +0.000 C 
ATOM      7  C   UNL     1       2.445   5.253  19.025  0.00  0.00    +0.000 C 
ATOM      8  C   UNL     1       1.049   4.677  19.401  0.00  0.00    +0.000 C 
ATOM      9  C   UNL     1       1.287   3.630  20.481  0.00  0.00    +0.000 C 
ATOM     10  C   UNL     1       2.568   4.058  21.168  0.00  0.00    +0.000 C 
ATOM     11  C   UNL     1       3.424   4.612  20.041  0.00  0.00    +0.000 C 
ATOM     12  C   UNL     1       2.802   4.741  17.600  0.00  0.00    +0.000 C 
ENDROOT
BRANCH   1  14
ATOM     13  C   UNL     1       6.869   4.372  14.922  0.00  0.00    +0.000 C 
ATOM     14  C   UNL     1       6.425   4.882  16.294  0.00  0.00    +0.000 C 
BRANCH  14  15
ATOM     15  C   UNL     1       7.453   4.576  17.394  0.00  0.00    +0.000 C 
BRANCH  15  16
ATOM     16  C   UNL     1       7.520   5.552  18.559  0.00  0.00    +0.000 C 
ATOM     17  F   UNL     1       6.483   5.483  19.407  0.00  0.00    +0.000 F 
ATOM     18  F   UNL     1       8.646   5.332  19.280  0.00  0.00    +0.000 F 
ATOM     19  F   UNL     1       7.591   6.824  18.100  0.00  0.00    +0.000 F 
ENDBRANCH  15  16
ENDBRANCH  14  15
ENDBRANCH   1  14
BRANCH   6  20
ATOM     20  O   UNL     1       1.451   7.236  18.060  0.00  0.00    +0.000 OA
ATOM     21  H   UNL     1       1.045   6.420  17.714  0.00  0.00    +0.000 HD
ENDBRANCH   6  20
BRANCH   6  22
ATOM     22  C   UNL     1       2.192   7.544  20.366  0.00  0.00    +0.000 C 
BRANCH  22  23
ATOM     23  N   UNL     1       1.216   8.670  20.271  0.00  0.00    +0.000 N 
ATOM     24  C   UNL     1       0.105   8.657  21.105  0.00  0.00    +0.000 A 
ATOM     25  C   UNL     1      -0.875   9.565  21.021  0.00  0.00    +0.000 A 
ATOM     26  C   UNL     1      -0.764  10.663  20.068  0.00  0.00    +0.000 A 
ATOM     27  C   UNL     1      -1.767  11.627  19.946  0.00  0.00    +0.000 A 
ATOM     28  C   UNL     1      -1.552  12.692  19.084  0.00  0.00    +0.000 A 
ATOM     29  N   UNL     1      -0.428  12.840  18.345  0.00  0.00    +0.000 NA
ATOM     30  C   UNL     1       0.520  11.874  18.458  0.00  0.00    +0.000 A 
ATOM     31  C   UNL     1       0.390  10.772  19.293  0.00  0.00    +0.000 A 
ATOM     32  C   UNL     1       1.428   9.708  19.347  0.00  0.00    +0.000 A 
ATOM     33  O   UNL     1       2.387   9.758  18.584  0.00  0.00    +0.000 OA
ENDBRANCH  22  23
ENDBRANCH   6  22
TORSDOF 6
ENDMDL
MODEL 6
REMARK VINA RESULT:      -7.1      1.928      2.260
REMARK  Name = 
REMARK  7 active torsions:
REMARK  status: ('A' for Active; 'I' for Inactive)
REMARK    1  A    between atoms: C_1  and  C_2
REMARK    2  A    between atoms: C_2  and  C_3
REMARK    3  A    between atoms: C_2  and  C_8
REMARK    4  A    between atoms: C_3  and  C_4
REMARK    5  A    between atoms: C_13  and  O_14
REMARK    6  A    between atoms: C_13  and  C_15
REMARK    7  A    between atoms: C_15  and  N_16
REMARK                            x       y       z     vdW  Elec       q    Type
REMARK                         _______ _______ _______ _____ _____    ______ ____
ROOT
ATOM      1  C   UNL     1       5.326   3.830  16.918  0.00  0.00    +0.000 C 
ATOM      2  O   UNL     1       5.088   2.622  16.912  0.00  0.00    +0.000 OA
ATOM      3  N   UNL     1       4.346   4.761  17.228  0.00  0.00    +0.000 N 
ATOM      4  C   UNL     1       4.435   6.200  17.039  0.00  0.00    +0.000 C 
ATOM      5  C   UNL     1       3.944   6.946  18.273  0.00  0.00    +0.000 C 
ATOM      6  C   UNL     1       2.530   6.490  18.711  0.00  0.00    +0.000 C 
ATOM      7  C   UNL     1       2.481   4.915  18.868  0.00  0.00    +0.000 C 
ATOM      8  C   UNL     1       1.048   4.366  19.127  0.00  0.00    +0.000 C 
ATOM      9  C   UNL     1       1.153   3.413  20.309  0.00  0.00    +0.000 C 
ATOM     10  C   UNL     1       2.348   3.901  21.102  0.00  0.00    +0.000 C 
ATOM     11  C   UNL     1       3.332   4.363  20.040  0.00  0.00    +0.000 C 
ATOM     12  C   UNL     1       2.997   4.289  17.542  0.00  0.00    +0.000 C 
ENDROOT
BRANCH   1  14
ATOM     13  C   UNL     1       7.299   5.116  17.849  0.00  0.00    +0.000 C 
ATOM     14  C   UNL     1       6.747   4.336  16.655  0.00  0.00    +0.000 C 
BRANCH  14  15
ATOM     15  C   UNL     1       6.809   5.143  15.349  0.00  0.00    +0.000 C 
BRANCH  15  16
ATOM     16  C   UNL     1       6.385   4.423  14.078  0.00  0.00    +0.000 C 
ATOM     17  F   UNL     1       6.481   3.086  14.134  0.00  0.00    +0.000 F 
ATOM     18  F   UNL     1       5.097   4.724  13.785  0.00  0.00    +0.000 F 
ATOM     19  F   UNL     1       7.134   4.844  13.031  0.00  0.00    +0.000 F 
ENDBRANCH  15  16
ENDBRANCH  14  15
ENDBRANCH   1  14
BRANCH   6  20
ATOM     20  O   UNL     1       1.617   6.809  17.636  0.00  0.00    +0.000 OA
ATOM     21  H   UNL     1       1.231   5.968  17.330  0.00  0.00    +0.000 HD
ENDBRANCH   6  20
BRANCH   6  22
ATOM     22  C   UNL     1       2.088   7.307  19.979  0.00  0.00    +0.000 C 
BRANCH  22  23
ATOM     23  N   UNL     1       1.502   8.643  19.662  0.00  0.00    +0.000 N 
ATOM     24  C   UNL     1       1.914   9.292  18.506  0.00  0.00    +0.000 A 
ATOM     25  C   UNL     1       1.524  10.534  18.193  0.00  0.00    +0.000 A 
ATOM     26  C   UNL     1       0.574  11.231  19.051  0.00  0.00    +0.000 A 
ATOM     27  C   UNL     1       0.147  12.530  18.762  0.00  0.00    +0.000 A 
ATOM     28  C   UNL     1      -0.825  13.097  19.572  0.00  0.00    +0.000 A 
ATOM     29  N   UNL     1      -1.374  12.463  20.635  0.00  0.00    +0.000 NA
ATOM     30  C   UNL     1      -0.921  11.213  20.914  0.00  0.00    +0.000 A 
ATOM     31  C   UNL     1       0.052  10.569  20.161  0.00  0.00    +0.000 A 
ATOM     32  C   UNL     1       0.559   9.221  20.532  0.00  0.00    +0.000 A 
ATOM     33  O   UNL     1       0.172   8.693  21.569  0.00  0.00    +0.000 OA
ENDBRANCH  22  23
ENDBRANCH   6  22
TORSDOF 6
ENDMDL
MODEL 7
REMARK VINA RESULT:      -7.1      5.622      8.990
REMARK  Name = 
REMARK  7 active torsions:
REMARK  status: ('A' for Active; 'I' for Inactive)
REMARK    1  A    between atoms: C_1  and  C_2
REMARK    2  A    between atoms: C_2  and  C_3
REMARK    3  A    between atoms: C_2  and  C_8
REMARK    4  A    between atoms: C_3  and  C_4
REMARK    5  A    between atoms: C_13  and  O_14
REMARK    6  A    between atoms: C_13  and  C_15
REMARK    7  A    between atoms: C_15  and  N_16
REMARK                            x       y       z     vdW  Elec       q    Type
REMARK                         _______ _______ _______ _____ _____    ______ ____
ROOT
ATOM      1  C   UNL     1       1.309  11.346  19.089  0.00  0.00    +0.000 C 
ATOM      2  O   UNL     1       2.108  11.660  18.206  0.00  0.00    +0.000 OA
ATOM      3  N   UNL     1       0.981  12.218  20.116  0.00  0.00    +0.000 N 
ATOM      4  C   UNL     1       0.250  11.886  21.328  0.00  0.00    +0.000 C 
ATOM      5  C   UNL     1      -0.826  12.924  21.620  0.00  0.00    +0.000 C 
ATOM      6  C   UNL     1      -0.261  14.365  21.644  0.00  0.00    +0.000 C 
ATOM      7  C   UNL     1       0.553  14.662  20.318  0.00  0.00    +0.000 C 
ATOM      8  C   UNL     1       1.304  16.024  20.348  0.00  0.00    +0.000 C 
ATOM      9  C   UNL     1       0.982  16.729  19.038  0.00  0.00    +0.000 C 
ATOM     10  C   UNL     1      -0.366  16.178  18.617  0.00  0.00    +0.000 C 
ATOM     11  C   UNL     1      -0.314  14.718  19.034  0.00  0.00    +0.000 C 
ATOM     12  C   UNL     1       1.614  13.538  20.150  0.00  0.00    +0.000 C 
ENDROOT
BRANCH   1  14
ATOM     13  C   UNL     1       1.573   8.827  19.109  0.00  0.00    +0.000 C 
ATOM     14  C   UNL     1       0.589   9.995  19.030  0.00  0.00    +0.000 C 
BRANCH  14  15
ATOM     15  C   UNL     1      -0.320   9.912  17.794  0.00  0.00    +0.000 C 
BRANCH  15  16
ATOM     16  C   UNL     1      -1.727  10.471  17.941  0.00  0.00    +0.000 C 
ATOM     17  F   UNL     1      -2.705   9.629  17.576  0.00  0.00    +0.000 F 
ATOM     18  F   UNL     1      -1.953  10.818  19.232  0.00  0.00    +0.000 F 
ATOM     19  F   UNL     1      -1.862  11.599  17.203  0.00  0.00    +0.000 F 
ENDBRANCH  15  16
ENDBRANCH  14  15
ENDBRANCH   1  14
BRANCH   6  20
ATOM     20  O   UNL     1       0.700  14.440  22.722  0.00  0.00    +0.000 OA
ATOM     21  H   UNL     1       0.754  15.375  22.993  0.00  0.00    +0.000 HD
ENDBRANCH   6  20
BRANCH   6  22
ATOM     22  C   UNL     1      -1.423  15.376  21.960  0.00  0.00    +0.000 C 
BRANCH  22  23
ATOM     23  N   UNL     1      -2.635  14.736  22.552  0.00  0.00    +0.000 N 
ATOM     24  C   UNL     1      -2.611  14.382  23.895  0.00  0.00    +0.000 A 
ATOM     25  C   UNL     1      -3.607  13.712  24.486  0.00  0.00    +0.000 A 
ATOM     26  C   UNL     1      -4.809  13.387  23.729  0.00  0.00    +0.000 A 
ATOM     27  C   UNL     1      -5.868  12.684  24.308  0.00  0.00    +0.000 A 
ATOM     28  C   UNL     1      -7.016  12.489  23.555  0.00  0.00    +0.000 A 
ATOM     29  N   UNL     1      -7.160  12.933  22.285  0.00  0.00    +0.000 NA
ATOM     30  C   UNL     1      -6.106  13.587  21.732  0.00  0.00    +0.000 A 
ATOM     31  C   UNL     1      -4.917  13.825  22.409  0.00  0.00    +0.000 A 
ATOM     32  C   UNL     1      -3.766  14.497  21.750  0.00  0.00    +0.000 A 
ATOM     33  O   UNL     1      -3.832  14.782  20.559  0.00  0.00    +0.000 OA
ENDBRANCH  22  23
ENDBRANCH   6  22
TORSDOF 6
ENDMDL
MODEL 8
REMARK VINA RESULT:      -7.0      0.771      1.011
REMARK  Name = 
REMARK  7 active torsions:
REMARK  status: ('A' for Active; 'I' for Inactive)
REMARK    1  A    between atoms: C_1  and  C_2
REMARK    2  A    between atoms: C_2  and  C_3
REMARK    3  A    between atoms: C_2  and  C_8
REMARK    4  A    between atoms: C_3  and  C_4
REMARK    5  A    between atoms: C_13  and  O_14
REMARK    6  A    between atoms: C_13  and  C_15
REMARK    7  A    between atoms: C_15  and  N_16
REMARK                            x       y       z     vdW  Elec       q    Type
REMARK                         _______ _______ _______ _____ _____    ______ ____
ROOT
ATOM      1  C   UNL     1       5.207   4.697  16.598  0.00  0.00    +0.000 C 
ATOM      2  O   UNL     1       5.177   3.467  16.532  0.00  0.00    +0.000 OA
ATOM      3  N   UNL     1       4.128   5.424  17.079  0.00  0.00    +0.000 N 
ATOM      4  C   UNL     1       3.950   6.864  16.985  0.00  0.00    +0.000 C 
ATOM      5  C   UNL     1       3.492   7.447  18.316  0.00  0.00    +0.000 C 
ATOM      6  C   UNL     1       2.238   6.728  18.872  0.00  0.00    +0.000 C 
ATOM      7  C   UNL     1       2.475   5.163  18.921  0.00  0.00    +0.000 C 
ATOM      8  C   UNL     1       1.197   4.358  19.296  0.00  0.00    +0.000 C 
ATOM      9  C   UNL     1       1.603   3.378  20.387  0.00  0.00    +0.000 C 
ATOM     10  C   UNL     1       2.785   4.028  21.077  0.00  0.00    +0.000 C 
ATOM     11  C   UNL     1       3.542   4.710  19.950  0.00  0.00    +0.000 C 
ATOM     12  C   UNL     1       2.926   4.706  17.504  0.00  0.00    +0.000 C 
ENDROOT
BRANCH   1  14
ATOM     13  C   UNL     1       7.224   4.777  15.068  0.00  0.00    +0.000 C 
ATOM     14  C   UNL     1       6.480   5.457  16.218  0.00  0.00    +0.000 C 
BRANCH  14  15
ATOM     15  C   UNL     1       7.376   5.674  17.448  0.00  0.00    +0.000 C 
BRANCH  15  16
ATOM     16  C   UNL     1       7.742   7.112  17.783  0.00  0.00    +0.000 C 
ATOM     17  F   UNL     1       8.589   7.248  18.814  0.00  0.00    +0.000 F 
ATOM     18  F   UNL     1       8.316   7.704  16.708  0.00  0.00    +0.000 F 
ATOM     19  F   UNL     1       6.626   7.822  18.073  0.00  0.00    +0.000 F 
ENDBRANCH  15  16
ENDBRANCH  14  15
ENDBRANCH   1  14
BRANCH   6  20
ATOM     20  O   UNL     1       1.162   6.935  17.929  0.00  0.00    +0.000 OA
ATOM     21  H   UNL     1       1.432   7.665  17.342  0.00  0.00    +0.000 HD
ENDBRANCH   6  20
BRANCH   6  22
ATOM     22  C   UNL     1       1.821   7.388  20.236  0.00  0.00    +0.000 C 
BRANCH  22  23
ATOM     23  N   UNL     1       1.273   8.770  20.095  0.00  0.00    +0.000 N 
ATOM     24  C   UNL     1       1.319   9.379  18.848  0.00  0.00    +0.000 A 
ATOM     25  C   UNL     1       0.949  10.649  18.647  0.00  0.00    +0.000 A 
ATOM     26  C   UNL     1       0.407  11.428  19.753  0.00  0.00    +0.000 A 
ATOM     27  C   UNL     1       0.015  12.759  19.586  0.00  0.00    +0.000 A 
ATOM     28  C   UNL     1      -0.575  13.409  20.659  0.00  0.00    +0.000 A 
ATOM     29  N   UNL     1      -0.780  12.827  21.864  0.00  0.00    +0.000 NA
ATOM     30  C   UNL     1      -0.363  11.543  22.012  0.00  0.00    +0.000 A 
ATOM     31  C   UNL     1       0.241  10.815  20.995  0.00  0.00    +0.000 A 
ATOM     32  C   UNL     1       0.732   9.429  21.214  0.00  0.00    +0.000 A 
ATOM     33  O   UNL     1       0.678   8.938  22.337  0.00  0.00    +0.000 OA
ENDBRANCH  22  23
ENDBRANCH   6  22
TORSDOF 6
ENDMDL
MODEL 9
REMARK VINA RESULT:      -7.0      4.664      9.466
REMARK  Name = 
REMARK  7 active torsions:
REMARK  status: ('A' for Active; 'I' for Inactive)
REMARK    1  A    between atoms: C_1  and  C_2
REMARK    2  A    between atoms: C_2  and  C_3
REMARK    3  A    between atoms: C_2  and  C_8
REMARK    4  A    between atoms: C_3  and  C_4
REMARK    5  A    between atoms: C_13  and  O_14
REMARK    6  A    between atoms: C_13  and  C_15
REMARK    7  A    between atoms: C_15  and  N_16
REMARK                            x       y       z     vdW  Elec       q    Type
REMARK                         _______ _______ _______ _____ _____    ______ ____
ROOT
ATOM      1  C   UNL     1       1.606  16.046  21.253  0.00  0.00    +0.000 C 
ATOM      2  O   UNL     1       0.805  16.713  21.909  0.00  0.00    +0.000 OA
ATOM      3  N   UNL     1       1.525  14.662  21.200  0.00  0.00    +0.000 N 
ATOM      4  C   UNL     1       2.534  13.760  20.668  0.00  0.00    +0.000 C 
ATOM      5  C   UNL     1       1.905  12.705  19.767  0.00  0.00    +0.000 C 
ATOM      6  C   UNL     1       0.745  11.953  20.466  0.00  0.00    +0.000 C 
ATOM      7  C   UNL     1      -0.305  12.982  21.055  0.00  0.00    +0.000 C 
ATOM      8  C   UNL     1      -1.403  12.308  21.929  0.00  0.00    +0.000 C 
ATOM      9  C   UNL     1      -2.739  12.856  21.448  0.00  0.00    +0.000 C 
ATOM     10  C   UNL     1      -2.509  13.238  20.000  0.00  0.00    +0.000 C 
ATOM     11  C   UNL     1      -1.089  13.780  19.982  0.00  0.00    +0.000 C 
ATOM     12  C   UNL     1       0.468  13.987  21.955  0.00  0.00    +0.000 C 
ENDROOT
BRANCH   1  14
ATOM     13  C   UNL     1       3.656  17.533  21.273  0.00  0.00    +0.000 C 
ATOM     14  C   UNL     1       2.676  16.741  20.407  0.00  0.00    +0.000 C 
BRANCH  14  15
ATOM     15  C   UNL     1       2.032  17.605  19.312  0.00  0.00    +0.000 C 
BRANCH  15  16
ATOM     16  C   UNL     1       1.627  16.896  18.029  0.00  0.00    +0.000 C 
ATOM     17  F   UNL     1       2.258  15.734  17.809  0.00  0.00    +0.000 F 
ATOM     18  F   UNL     1       0.297  16.637  18.045  0.00  0.00    +0.000 F 
ATOM     19  F   UNL     1       1.857  17.696  16.960  0.00  0.00    +0.000 F 
ENDBRANCH  15  16
ENDBRANCH  14  15
ENDBRANCH   1  14
BRANCH   6  20
ATOM     20  O   UNL     1       1.299  11.257  21.605  0.00  0.00    +0.000 OA
ATOM     21  H   UNL     1       0.867  11.620  22.400  0.00  0.00    +0.000 HD
ENDBRANCH   6  20
BRANCH   6  22
ATOM     22  C   UNL     1       0.154  10.878  19.483  0.00  0.00    +0.000 C 
BRANCH  22  23
ATOM     23  N   UNL     1       0.869   9.567  19.521  0.00  0.00    +0.000 N 
ATOM     24  C   UNL     1       0.646   8.720  20.598  0.00  0.00    +0.000 A 
ATOM     25  C   UNL     1       1.317   7.575  20.772  0.00  0.00    +0.000 A 
ATOM     26  C   UNL     1       2.281   7.143  19.767  0.00  0.00    +0.000 A 
ATOM     27  C   UNL     1       3.006   5.958  19.914  0.00  0.00    +0.000 A 
ATOM     28  C   UNL     1       3.837   5.564  18.876  0.00  0.00    +0.000 A 
ATOM     29  N   UNL     1       3.994   6.274  17.734  0.00  0.00    +0.000 NA
ATOM     30  C   UNL     1       3.302   7.437  17.627  0.00  0.00    +0.000 A 
ATOM     31  C   UNL     1       2.450   7.912  18.616  0.00  0.00    +0.000 A 
ATOM     32  C   UNL     1       1.752   9.218  18.483  0.00  0.00    +0.000 A 
ATOM     33  O   UNL     1       1.990   9.936  17.517  0.00  0.00    +0.000 OA
ENDBRANCH  22  23
ENDBRANCH   6  22
TORSDOF 6
ENDMDL
