MODEL 1
REMARK VINA RESULT:      -7.7      0.000      0.000
REMARK  Name = 
REMARK  4 active torsions:
REMARK  status: ('A' for Active; 'I' for Inactive)
REMARK    1  A    between atoms: C_1  and  C_2
REMARK    2  A    between atoms: C_5  and  S_6
REMARK    3  A    between atoms: S_6  and  C_7
REMARK    4  A    between atoms: C_14  and  C_15
REMARK                            x       y       z     vdW  Elec       q    Type
REMARK                         _______ _______ _______ _____ _____    ______ ____
ROOT
ATOM      1  C   UNL     1       1.138  10.361  19.332  0.00  0.00    +0.000 C 
ATOM      2  C   UNL     1       0.827   9.991  20.595  0.00  0.00    +0.000 C 
ATOM      3 CL   UNL     1      -0.075  11.027  21.675  0.00  0.00    +0.000 Cl
ATOM      4  C   UNL     1       1.164   8.647  21.200  0.00  0.00    +0.000 C 
ATOM      5  O   UNL     1       0.990   8.380  22.382  0.00  0.00    +0.000 OA
ATOM      6  C   UNL     1       1.690   7.707  20.228  0.00  0.00    +0.000 A 
ATOM      7  N   UNL     1       1.938   6.367  20.419  0.00  0.00    +0.000 NA
ATOM      8  C   UNL     1       2.369   5.901  19.256  0.00  0.00    +0.000 A 
ATOM      9  N   UNL     1       2.435   6.925  18.333  0.00  0.00    +0.000 N 
ATOM     10  C   UNL     1       1.991   8.067  18.939  0.00  0.00    +0.000 A 
ATOM     11  C   UNL     1       1.828   9.382  18.401  0.00  0.00    +0.000 C 
ATOM     12  O   UNL     1       2.199   9.676  17.270  0.00  0.00    +0.000 OA
ATOM     13  H   UNL     1       2.729   6.806  17.370  0.00  0.00    +0.000 HD
ENDROOT
BRANCH   8  14
ATOM     14  C   UNL     1       2.726   4.522  18.924  0.00  0.00    +0.000 A 
ATOM     15  C   UNL     1       1.980   3.776  18.018  0.00  0.00    +0.000 A 
ATOM     16  C   UNL     1       2.381   2.473  17.737  0.00  0.00    +0.000 A 
ATOM     17  C   UNL     1       3.510   1.958  18.364  0.00  0.00    +0.000 A 
ATOM     18  C   UNL     1       4.195   2.775  19.253  0.00  0.00    +0.000 A 
ATOM     19  N   UNL     1       3.834   4.044  19.549  0.00  0.00    +0.000 NA
ENDBRANCH   8  14
BRANCH   1  20
ATOM     20  S   UNL     1       0.624  11.859  18.598  0.00  0.00    +0.000 S 
BRANCH  20  25
ATOM     21  C   UNL     1      -5.306  10.508  18.146  0.00  0.00    +0.000 C 
ATOM     22  C   UNL     1      -3.852  10.879  18.187  0.00  0.00    +0.000 A 
ATOM     23  C   UNL     1      -2.889  10.096  17.541  0.00  0.00    +0.000 A 
ATOM     24  C   UNL     1      -1.531  10.425  17.624  0.00  0.00    +0.000 A 
ATOM     25  C   UNL     1      -1.115  11.543  18.350  0.00  0.00    +0.000 A 
ATOM     26  C   UNL     1      -2.076  12.329  18.995  0.00  0.00    +0.000 A 
ATOM     27  C   UNL     1      -3.434  12.002  18.910  0.00  0.00    +0.000 A 
ENDBRANCH  20  25
ENDBRANCH   1  20
TORSDOF 3
ENDMDL
MODEL 2
REMARK VINA RESULT:      -7.6      1.823      2.654
REMARK  Name = 
REMARK  4 active torsions:
REMARK  status: ('A' for Active; 'I' for Inactive)
REMARK    1  A    between atoms: C_1  and  C_2
REMARK    2  A    between atoms: C_5  and  S_6
REMARK    3  A    between atoms: S_6  and  C_7
REMARK    4  A    between atoms: C_14  and  C_15
REMARK                            x       y       z     vdW  Elec       q    Type
REMARK                         _______ _______ _______ _____ _____    ______ ____
ROOT
ATOM      1  C   UNL     1      -0.531  11.975  20.748  0.00  0.00    +0.000 C 
ATOM      2  C   UNL     1      -0.598  11.432  21.986  0.00  0.00    +0.000 C 
ATOM      3 CL   UNL     1      -1.598  12.107  23.248  0.00  0.00    +0.000 Cl
ATOM      4  C   UNL     1       0.127  10.172  22.407  0.00  0.00    +0.000 C 
ATOM      5  O   UNL     1       0.158   9.770  23.563  0.00  0.00    +0.000 OA
ATOM      6  C   UNL     1       0.753   9.484  21.294  0.00  0.00    +0.000 A 
ATOM      7  N   UNL     1       1.343   8.241  21.313  0.00  0.00    +0.000 NA
ATOM      8  C   UNL     1       1.741   8.001  20.072  0.00  0.00    +0.000 A 
ATOM      9  N   UNL     1       1.449   9.082  19.266  0.00  0.00    +0.000 N 
ATOM     10  C   UNL     1       0.809  10.016  20.031  0.00  0.00    +0.000 A 
ATOM     11  C   UNL     1       0.269  11.287  19.658  0.00  0.00    +0.000 C 
ATOM     12  O   UNL     1       0.425  11.761  18.539  0.00  0.00    +0.000 OA
ATOM     13  H   UNL     1       1.652   9.125  18.273  0.00  0.00    +0.000 HD
ENDROOT
BRANCH   8  14
ATOM     14  C   UNL     1       2.387   6.793  19.560  0.00  0.00    +0.000 A 
ATOM     15  C   UNL     1       3.021   6.775  18.323  0.00  0.00    +0.000 A 
ATOM     16  C   UNL     1       3.627   5.596  17.900  0.00  0.00    +0.000 A 
ATOM     17  C   UNL     1       3.583   4.476  18.721  0.00  0.00    +0.000 A 
ATOM     18  C   UNL     1       2.930   4.584  19.941  0.00  0.00    +0.000 A 
ATOM     19  N   UNL     1       2.331   5.713  20.384  0.00  0.00    +0.000 NA
ENDBRANCH   8  14
BRANCH   1  20
ATOM     20  S   UNL     1      -1.478  13.347  20.233  0.00  0.00    +0.000 S 
BRANCH  20  25
ATOM     21  C   UNL     1      -6.846  11.046  18.477  0.00  0.00    +0.000 C 
ATOM     22  C   UNL     1      -5.515  11.549  18.958  0.00  0.00    +0.000 A 
ATOM     23  C   UNL     1      -5.412  12.307  20.130  0.00  0.00    +0.000 A 
ATOM     24  C   UNL     1      -4.173  12.810  20.545  0.00  0.00    +0.000 A 
ATOM     25  C   UNL     1      -3.019  12.561  19.798  0.00  0.00    +0.000 A 
ATOM     26  C   UNL     1      -3.120  11.801  18.628  0.00  0.00    +0.000 A 
ATOM     27  C   UNL     1      -4.358  11.295  18.214  0.00  0.00    +0.000 A 
ENDBRANCH  20  25
ENDBRANCH   1  20
TORSDOF 3
ENDMDL
MODEL 3
REMARK VINA RESULT:      -7.6      1.549      2.207
REMARK  Name = 
REMARK  4 active torsions:
REMARK  status: ('A' for Active; 'I' for Inactive)
REMARK    1  A    between atoms: C_1  and  C_2
REMARK    2  A    between atoms: C_5  and  S_6
REMARK    3  A    between atoms: S_6  and  C_7
REMARK    4  A    between atoms: C_14  and  C_15
REMARK                            x       y       z     vdW  Elec       q    Type
REMARK                         _______ _______ _______ _____ _____    ______ ____
ROOT
ATOM      1  C   UNL     1      -0.063  11.632  20.463  0.00  0.00    +0.000 C 
ATOM      2  C   UNL     1      -0.247  11.264  21.752  0.00  0.00    +0.000 C 
ATOM      3 CL   UNL     1      -1.218  12.202  22.860  0.00  0.00    +0.000 Cl
ATOM      4  C   UNL     1       0.306   9.998  22.367  0.00  0.00    +0.000 C 
ATOM      5  O   UNL     1       0.239   9.747  23.563  0.00  0.00    +0.000 OA
ATOM      6  C   UNL     1       0.898   9.106  21.386  0.00  0.00    +0.000 A 
ATOM      7  N   UNL     1       1.338   7.820  21.594  0.00  0.00    +0.000 NA
ATOM      8  C   UNL     1       1.760   7.379  20.418  0.00  0.00    +0.000 A 
ATOM      9  N   UNL     1       1.631   8.372  19.469  0.00  0.00    +0.000 N 
ATOM     10  C   UNL     1       1.071   9.462  20.073  0.00  0.00    +0.000 A 
ATOM     11  C   UNL     1       0.699  10.725  19.515  0.00  0.00    +0.000 C 
ATOM     12  O   UNL     1       0.960  11.031  18.357  0.00  0.00    +0.000 OA
ATOM     13  H   UNL     1       1.883   8.263  18.492  0.00  0.00    +0.000 HD
ENDROOT
BRANCH   8  14
ATOM     14  C   UNL     1       2.283   6.051  20.098  0.00  0.00    +0.000 A 
ATOM     15  C   UNL     1       1.680   4.896  20.584  0.00  0.00    +0.000 A 
ATOM     16  C   UNL     1       2.220   3.662  20.231  0.00  0.00    +0.000 A 
ATOM     17  C   UNL     1       3.338   3.620  19.407  0.00  0.00    +0.000 A 
ATOM     18  C   UNL     1       3.873   4.822  18.966  0.00  0.00    +0.000 A 
ATOM     19  N   UNL     1       3.374   6.038  19.289  0.00  0.00    +0.000 NA
ENDBRANCH   8  14
BRANCH   1  20
ATOM     20  S   UNL     1      -0.820  13.021  19.727  0.00  0.00    +0.000 S 
BRANCH  20  25
ATOM     21  C   UNL     1      -6.449  11.218  18.226  0.00  0.00    +0.000 C 
ATOM     22  C   UNL     1      -5.059  11.600  18.647  0.00  0.00    +0.000 A 
ATOM     23  C   UNL     1      -4.840  12.387  19.783  0.00  0.00    +0.000 A 
ATOM     24  C   UNL     1      -3.543  12.776  20.140  0.00  0.00    +0.000 A 
ATOM     25  C   UNL     1      -2.446  12.381  19.370  0.00  0.00    +0.000 A 
ATOM     26  C   UNL     1      -2.663  11.592  18.236  0.00  0.00    +0.000 A 
ATOM     27  C   UNL     1      -3.959  11.200  17.879  0.00  0.00    +0.000 A 
ENDBRANCH  20  25
ENDBRANCH   1  20
TORSDOF 3
ENDMDL
MODEL 4
REMARK VINA RESULT:      -7.6      0.633      1.140
REMARK  Name = 
REMARK  4 active torsions:
REMARK  status: ('A' for Active; 'I' for Inactive)
REMARK    1  A    between atoms: C_1  and  C_2
REMARK    2  A    between atoms: C_5  and  S_6
REMARK    3  A    between atoms: S_6  and  C_7
REMARK    4  A    between atoms: C_14  and  C_15
REMARK                            x       y       z     vdW  Elec       q    Type
REMARK                         _______ _______ _______ _____ _____    ______ ____
ROOT
ATOM      1  C   UNL     1       1.005  10.469  19.460  0.00  0.00    +0.000 C 
ATOM      2  C   UNL     1       0.792  10.099  20.744  0.00  0.00    +0.000 C 
ATOM      3 CL   UNL     1      -0.054  11.120  21.881  0.00  0.00    +0.000 Cl
ATOM      4  C   UNL     1       1.202   8.766  21.328  0.00  0.00    +0.000 C 
ATOM      5  O   UNL     1       1.118   8.501  22.520  0.00  0.00    +0.000 OA
ATOM      6  C   UNL     1       1.679   7.833  20.324  0.00  0.00    +0.000 A 
ATOM      7  N   UNL     1       1.970   6.500  20.501  0.00  0.00    +0.000 NA
ATOM      8  C   UNL     1       2.328   6.038  19.312  0.00  0.00    +0.000 A 
ATOM      9  N   UNL     1       2.305   7.058  18.384  0.00  0.00    +0.000 N 
ATOM     10  C   UNL     1       1.879   8.193  19.016  0.00  0.00    +0.000 A 
ATOM     11  C   UNL     1       1.649   9.501  18.486  0.00  0.00    +0.000 C 
ATOM     12  O   UNL     1       1.932   9.798  17.331  0.00  0.00    +0.000 OA
ATOM     13  H   UNL     1       2.533   6.941  17.402  0.00  0.00    +0.000 HD
ENDROOT
BRANCH   8  14
ATOM     14  C   UNL     1       2.692   4.666  18.961  0.00  0.00    +0.000 A 
ATOM     15  C   UNL     1       2.005   3.575  19.483  0.00  0.00    +0.000 A 
ATOM     16  C   UNL     1       2.393   2.295  19.098  0.00  0.00    +0.000 A 
ATOM     17  C   UNL     1       3.449   2.144  18.207  0.00  0.00    +0.000 A 
ATOM     18  C   UNL     1       4.077   3.288  17.734  0.00  0.00    +0.000 A 
ATOM     19  N   UNL     1       3.725   4.546  18.087  0.00  0.00    +0.000 NA
ENDBRANCH   8  14
BRANCH   1  20
ATOM     20  S   UNL     1       0.406  11.951  18.760  0.00  0.00    +0.000 S 
BRANCH  20  25
ATOM     21  C   UNL     1      -5.549  11.012  17.840  0.00  0.00    +0.000 C 
ATOM     22  C   UNL     1      -4.086  11.190  18.128  0.00  0.00    +0.000 A 
ATOM     23  C   UNL     1      -3.648  12.092  19.103  0.00  0.00    +0.000 A 
ATOM     24  C   UNL     1      -2.279  12.285  19.330  0.00  0.00    +0.000 A 
ATOM     25  C   UNL     1      -1.330  11.577  18.590  0.00  0.00    +0.000 A 
ATOM     26  C   UNL     1      -1.767  10.672  17.616  0.00  0.00    +0.000 A 
ATOM     27  C   UNL     1      -3.135  10.477  17.390  0.00  0.00    +0.000 A 
ENDBRANCH  20  25
ENDBRANCH   1  20
TORSDOF 3
ENDMDL
MODEL 5
REMARK VINA RESULT:      -7.5      1.977      3.109
REMARK  Name = 
REMARK  4 active torsions:
REMARK  status: ('A' for Active; 'I' for Inactive)
REMARK    1  A    between atoms: C_1  and  C_2
REMARK    2  A    between atoms: C_5  and  S_6
REMARK    3  A    between atoms: S_6  and  C_7
REMARK    4  A    between atoms: C_14  and  C_15
REMARK                            x       y       z     vdW  Elec       q    Type
REMARK                         _______ _______ _______ _____ _____    ______ ____
ROOT
ATOM      1  C   UNL     1       0.689  10.909  20.596  0.00  0.00    +0.000 C 
ATOM      2  C   UNL     1       1.145  10.950  19.323  0.00  0.00    +0.000 C 
ATOM      3 CL   UNL     1       1.310  12.448  18.439  0.00  0.00    +0.000 Cl
ATOM      4  C   UNL     1       1.611   9.741  18.542  0.00  0.00    +0.000 C 
ATOM      5  O   UNL     1       1.897   9.780  17.352  0.00  0.00    +0.000 OA
ATOM      6  C   UNL     1       1.705   8.545  19.358  0.00  0.00    +0.000 A 
ATOM      7  N   UNL     1       2.244   7.333  18.993  0.00  0.00    +0.000 NA
ATOM      8  C   UNL     1       2.154   6.552  20.060  0.00  0.00    +0.000 A 
ATOM      9  N   UNL     1       1.535   7.231  21.089  0.00  0.00    +0.000 N 
ATOM     10  C   UNL     1       1.263   8.498  20.655  0.00  0.00    +0.000 A 
ATOM     11  C   UNL     1       0.668   9.595  21.354  0.00  0.00    +0.000 C 
ATOM     12  O   UNL     1       0.203   9.477  22.482  0.00  0.00    +0.000 OA
ATOM     13  H   UNL     1       1.363   6.839  22.009  0.00  0.00    +0.000 HD
ENDROOT
BRANCH   8  14
ATOM     14  C   UNL     1       2.628   5.176  20.201  0.00  0.00    +0.000 A 
ATOM     15  C   UNL     1       2.026   4.286  21.083  0.00  0.00    +0.000 A 
ATOM     16  C   UNL     1       2.518   2.986  21.161  0.00  0.00    +0.000 A 
ATOM     17  C   UNL     1       3.591   2.617  20.358  0.00  0.00    +0.000 A 
ATOM     18  C   UNL     1       4.129   3.570  19.505  0.00  0.00    +0.000 A 
ATOM     19  N   UNL     1       3.676   4.840  19.404  0.00  0.00    +0.000 NA
ENDBRANCH   8  14
BRANCH   1  20
ATOM     20  S   UNL     1       0.285  12.323  21.534  0.00  0.00    +0.000 S 
BRANCH  20  25
ATOM     21  C   UNL     1      -5.767  12.867  21.023  0.00  0.00    +0.000 C 
ATOM     22  C   UNL     1      -4.287  12.654  21.157  0.00  0.00    +0.000 A 
ATOM     23  C   UNL     1      -3.682  12.564  22.415  0.00  0.00    +0.000 A 
ATOM     24  C   UNL     1      -2.294  12.410  22.527  0.00  0.00    +0.000 A 
ATOM     25  C   UNL     1      -1.493  12.342  21.385  0.00  0.00    +0.000 A 
ATOM     26  C   UNL     1      -2.097  12.430  20.127  0.00  0.00    +0.000 A 
ATOM     27  C   UNL     1      -3.484  12.580  20.013  0.00  0.00    +0.000 A 
ENDBRANCH  20  25
ENDBRANCH   1  20
TORSDOF 3
ENDMDL
MODEL 6
REMARK VINA RESULT:      -7.5      4.225      8.106
REMARK  Name = 
REMARK  4 active torsions:
REMARK  status: ('A' for Active; 'I' for Inactive)
REMARK    1  A    between atoms: C_1  and  C_2
REMARK    2  A    between atoms: C_5  and  S_6
REMARK    3  A    between atoms: S_6  and  C_7
REMARK    4  A    between atoms: C_14  and  C_15
REMARK                            x       y       z     vdW  Elec       q    Type
REMARK                         _______ _______ _______ _____ _____    ______ ____
ROOT
ATOM      1  C   UNL     1       3.974   4.820  18.459  0.00  0.00    +0.000 C 
ATOM      2  C   UNL     1       3.609   4.087  19.537  0.00  0.00    +0.000 C 
ATOM      3 CL   UNL     1       4.342   2.546  19.909  0.00  0.00    +0.000 Cl
ATOM      4  C   UNL     1       2.585   4.524  20.560  0.00  0.00    +0.000 C 
ATOM      5  O   UNL     1       2.175   3.794  21.454  0.00  0.00    +0.000 OA
ATOM      6  C   UNL     1       2.163   5.901  20.384  0.00  0.00    +0.000 A 
ATOM      7  N   UNL     1       1.375   6.643  21.233  0.00  0.00    +0.000 NA
ATOM      8  C   UNL     1       1.286   7.850  20.695  0.00  0.00    +0.000 A 
ATOM      9  N   UNL     1       1.972   7.885  19.499  0.00  0.00    +0.000 N 
ATOM     10  C   UNL     1       2.543   6.659  19.305  0.00  0.00    +0.000 A 
ATOM     11  C   UNL     1       3.383   6.200  18.242  0.00  0.00    +0.000 C 
ATOM     12  O   UNL     1       3.619   6.884  17.253  0.00  0.00    +0.000 OA
ATOM     13  H   UNL     1       2.052   8.708  18.910  0.00  0.00    +0.000 HD
ENDROOT
BRANCH   8  14
ATOM     14  C   UNL     1       0.593   9.019  21.236  0.00  0.00    +0.000 A 
ATOM     15  C   UNL     1       0.133   9.049  22.548  0.00  0.00    +0.000 A 
ATOM     16  C   UNL     1      -0.507  10.198  23.005  0.00  0.00    +0.000 A 
ATOM     17  C   UNL     1      -0.665  11.277  22.143  0.00  0.00    +0.000 A 
ATOM     18  C   UNL     1      -0.173  11.161  20.851  0.00  0.00    +0.000 A 
ATOM     19  N   UNL     1       0.454  10.061  20.374  0.00  0.00    +0.000 NA
ENDBRANCH   8  14
BRANCH   1  20
ATOM     20  S   UNL     1       5.255   4.371  17.363  0.00  0.00    +0.000 S 
BRANCH  20  25
ATOM     21  C   UNL     1       9.001   8.992  18.705  0.00  0.00    +0.000 C 
ATOM     22  C   UNL     1       8.137   7.823  18.328  0.00  0.00    +0.000 A 
ATOM     23  C   UNL     1       7.377   7.838  17.154  0.00  0.00    +0.000 A 
ATOM     24  C   UNL     1       6.539   6.763  16.835  0.00  0.00    +0.000 A 
ATOM     25  C   UNL     1       6.451   5.656  17.682  0.00  0.00    +0.000 A 
ATOM     26  C   UNL     1       7.213   5.638  18.856  0.00  0.00    +0.000 A 
ATOM     27  C   UNL     1       8.053   6.712  19.173  0.00  0.00    +0.000 A 
ENDBRANCH  20  25
ENDBRANCH   1  20
TORSDOF 3
ENDMDL
MODEL 7
REMARK VINA RESULT:      -7.4      1.740      2.396
REMARK  Name = 
REMARK  4 active torsions:
REMARK  status: ('A' for Active; 'I' for Inactive)
REMARK    1  A    between atoms: C_1  and  C_2
REMARK    2  A    between atoms: C_5  and  S_6
REMARK    3  A    between atoms: S_6  and  C_7
REMARK    4  A    between atoms: C_14  and  C_15
REMARK                            x       y       z     vdW  Elec       q    Type
REMARK                         _______ _______ _______ _____ _____    ______ ____
ROOT
ATOM      1  C   UNL     1      -0.407  11.927  20.718  0.00  0.00    +0.000 C 
ATOM      2  C   UNL     1      -0.641  11.401  21.942  0.00  0.00    +0.000 C 
ATOM      3 CL   UNL     1      -1.717  12.156  23.092  0.00  0.00    +0.000 Cl
ATOM      4  C   UNL     1      -0.056  10.097  22.437  0.00  0.00    +0.000 C 
ATOM      5  O   UNL     1      -0.174   9.704  23.591  0.00  0.00    +0.000 OA
ATOM      6  C   UNL     1       0.633   9.357  21.396  0.00  0.00    +0.000 A 
ATOM      7  N   UNL     1       1.128   8.076  21.479  0.00  0.00    +0.000 NA
ATOM      8  C   UNL     1       1.635   7.798  20.287  0.00  0.00    +0.000 A 
ATOM      9  N   UNL     1       1.505   8.890  19.453  0.00  0.00    +0.000 N 
ATOM     10  C   UNL     1       0.858   9.873  20.146  0.00  0.00    +0.000 A 
ATOM     11  C   UNL     1       0.451  11.176  19.718  0.00  0.00    +0.000 C 
ATOM     12  O   UNL     1       0.756  11.628  18.620  0.00  0.00    +0.000 OA
ATOM     13  H   UNL     1       1.814   8.910  18.487  0.00  0.00    +0.000 HD
ENDROOT
BRANCH   8  14
ATOM     14  C   UNL     1       2.242   6.542  19.846  0.00  0.00    +0.000 A 
ATOM     15  C   UNL     1       2.048   5.356  20.545  0.00  0.00    +0.000 A 
ATOM     16  C   UNL     1       2.644   4.193  20.064  0.00  0.00    +0.000 A 
ATOM     17  C   UNL     1       3.410   4.250  18.906  0.00  0.00    +0.000 A 
ATOM     18  C   UNL     1       3.549   5.477  18.272  0.00  0.00    +0.000 A 
ATOM     19  N   UNL     1       2.984   6.625  18.710  0.00  0.00    +0.000 NA
ENDBRANCH   8  14
BRANCH   1  20
ATOM     20  S   UNL     1      -1.195  13.359  20.105  0.00  0.00    +0.000 S 
BRANCH  20  25
ATOM     21  C   UNL     1      -6.473  10.707  18.588  0.00  0.00    +0.000 C 
ATOM     22  C   UNL     1      -5.188  11.416  18.906  0.00  0.00    +0.000 A 
ATOM     23  C   UNL     1      -4.026  11.169  18.167  0.00  0.00    +0.000 A 
ATOM     24  C   UNL     1      -2.822  11.801  18.501  0.00  0.00    +0.000 A 
ATOM     25  C   UNL     1      -2.763  12.692  19.575  0.00  0.00    +0.000 A 
ATOM     26  C   UNL     1      -3.924  12.942  20.314  0.00  0.00    +0.000 A 
ATOM     27  C   UNL     1      -5.129  12.312  19.979  0.00  0.00    +0.000 A 
ENDBRANCH  20  25
ENDBRANCH   1  20
TORSDOF 3
ENDMDL
MODEL 8
REMARK VINA RESULT:      -7.3      1.598      2.139
REMARK  Name = 
REMARK  4 active torsions:
REMARK  status: ('A' for Active; 'I' for Inactive)
REMARK    1  A    between atoms: C_1  and  C_2
REMARK    2  A    between atoms: C_5  and  S_6
REMARK    3  A    between atoms: S_6  and  C_7
REMARK    4  A    between atoms: C_14  and  C_15
REMARK                            x       y       z     vdW  Elec       q    Type
REMARK                         _______ _______ _______ _____ _____    ______ ____
ROOT
ATOM      1  C   UNL     1      -0.198  11.767  20.712  0.00  0.00    +0.000 C 
ATOM      2  C   UNL     1      -0.465  11.126  21.874  0.00  0.00    +0.000 C 
ATOM      3 CL   UNL     1      -1.567  11.772  23.064  0.00  0.00    +0.000 Cl
ATOM      4  C   UNL     1       0.102   9.776  22.254  0.00  0.00    +0.000 C 
ATOM      5  O   UNL     1      -0.048   9.273  23.360  0.00  0.00    +0.000 OA
ATOM      6  C   UNL     1       0.814   9.136  21.164  0.00  0.00    +0.000 A 
ATOM      7  N   UNL     1       1.301   7.850  21.134  0.00  0.00    +0.000 NA
ATOM      8  C   UNL     1       1.838   7.686  19.933  0.00  0.00    +0.000 A 
ATOM      9  N   UNL     1       1.734   8.854  19.207  0.00  0.00    +0.000 N 
ATOM     10  C   UNL     1       1.073   9.770  19.976  0.00  0.00    +0.000 A 
ATOM     11  C   UNL     1       0.682  11.111  19.666  0.00  0.00    +0.000 C 
ATOM     12  O   UNL     1       1.018  11.666  18.626  0.00  0.00    +0.000 OA
ATOM     13  H   UNL     1       2.067   8.966  18.256  0.00  0.00    +0.000 HD
ENDROOT
BRANCH   8  14
ATOM     14  C   UNL     1       2.451   6.476  19.388  0.00  0.00    +0.000 A 
ATOM     15  C   UNL     1       3.006   6.452  18.113  0.00  0.00    +0.000 A 
ATOM     16  C   UNL     1       3.586   5.271  17.659  0.00  0.00    +0.000 A 
ATOM     17  C   UNL     1       3.596   4.156  18.488  0.00  0.00    +0.000 A 
ATOM     18  C   UNL     1       3.021   4.269  19.746  0.00  0.00    +0.000 A 
ATOM     19  N   UNL     1       2.450   5.401  20.219  0.00  0.00    +0.000 NA
ENDBRANCH   8  14
BRANCH   1  20
ATOM     20  S   UNL     1      -0.964  13.257  20.222  0.00  0.00    +0.000 S 
BRANCH  20  25
ATOM     21  C   UNL     1      -6.267  10.824  18.445  0.00  0.00    +0.000 C 
ATOM     22  C   UNL     1      -4.972  11.482  18.828  0.00  0.00    +0.000 A 
ATOM     23  C   UNL     1      -3.794  11.221  18.120  0.00  0.00    +0.000 A 
ATOM     24  C   UNL     1      -2.583  11.804  18.515  0.00  0.00    +0.000 A 
ATOM     25  C   UNL     1      -2.533  12.657  19.619  0.00  0.00    +0.000 A 
ATOM     26  C   UNL     1      -3.711  12.921  20.327  0.00  0.00    +0.000 A 
ATOM     27  C   UNL     1      -4.922  12.341  19.931  0.00  0.00    +0.000 A 
ENDBRANCH  20  25
ENDBRANCH   1  20
TORSDOF 3
ENDMDL
MODEL 9
REMARK VINA RESULT:      -7.3      1.662      2.699
REMARK  Name = 
REMARK  4 active torsions:
REMARK  status: ('A' for Active; 'I' for Inactive)
REMARK    1  A    between atoms: C_1  and  C_2
REMARK    2  A    between atoms: C_5  and  S_6
REMARK    3  A    between atoms: S_6  and  C_7
REMARK    4  A    between atoms: C_14  and  C_15
REMARK                            x       y       z     vdW  Elec       q    Type
REMARK                         _______ _______ _______ _____ _____    ______ ____
ROOT
ATOM      1  C   UNL     1       0.548  10.731  20.474  0.00  0.00    +0.000 C 
ATOM      2  C   UNL     1       1.151  10.823  19.267  0.00  0.00    +0.000 C 
ATOM      3 CL   UNL     1       1.368  12.350  18.447  0.00  0.00    +0.000 Cl
ATOM      4  C   UNL     1       1.745   9.652  18.516  0.00  0.00    +0.000 C 
ATOM      5  O   UNL     1       2.169   9.734  17.371  0.00  0.00    +0.000 OA
ATOM      6  C   UNL     1       1.782   8.436  19.308  0.00  0.00    +0.000 A 
ATOM      7  N   UNL     1       2.402   7.252  18.980  0.00  0.00    +0.000 NA
ATOM      8  C   UNL     1       2.212   6.438  20.008  0.00  0.00    +0.000 A 
ATOM      9  N   UNL     1       1.453   7.068  20.973  0.00  0.00    +0.000 N 
ATOM     10  C   UNL     1       1.192   8.338  20.541  0.00  0.00    +0.000 A 
ATOM     11  C   UNL     1       0.482   9.396  21.191  0.00  0.00    +0.000 C 
ATOM     12  O   UNL     1      -0.109   9.231  22.253  0.00  0.00    +0.000 OA
ATOM     13  H   UNL     1       1.186   6.644  21.855  0.00  0.00    +0.000 HD
ENDROOT
BRANCH   8  14
ATOM     14  C   UNL     1       2.712   5.074  20.171  0.00  0.00    +0.000 A 
ATOM     15  C   UNL     1       2.118   4.182  21.056  0.00  0.00    +0.000 A 
ATOM     16  C   UNL     1       2.635   2.893  21.153  0.00  0.00    +0.000 A 
ATOM     17  C   UNL     1       3.724   2.536  20.367  0.00  0.00    +0.000 A 
ATOM     18  C   UNL     1       4.253   3.490  19.509  0.00  0.00    +0.000 A 
ATOM     19  N   UNL     1       3.776   4.750  19.389  0.00  0.00    +0.000 NA
ENDBRANCH   8  14
BRANCH   1  20
ATOM     20  S   UNL     1      -0.011  12.105  21.393  0.00  0.00    +0.000 S 
BRANCH  20  25
ATOM     21  C   UNL     1      -5.732  12.405  19.302  0.00  0.00    +0.000 C 
ATOM     22  C   UNL     1      -4.308  12.401  19.780  0.00  0.00    +0.000 A 
ATOM     23  C   UNL     1      -3.280  11.894  18.977  0.00  0.00    +0.000 A 
ATOM     24  C   UNL     1      -1.963  11.852  19.451  0.00  0.00    +0.000 A 
ATOM     25  C   UNL     1      -1.653  12.320  20.730  0.00  0.00    +0.000 A 
ATOM     26  C   UNL     1      -2.680  12.830  21.533  0.00  0.00    +0.000 A 
ATOM     27  C   UNL     1      -3.996  12.874  21.059  0.00  0.00    +0.000 A 
ENDBRANCH  20  25
ENDBRANCH   1  20
TORSDOF 3
ENDMDL
