MODEL 1
REMARK VINA RESULT:      -8.5      0.000      0.000
REMARK  Name = 
REMARK  9 active torsions:
REMARK  status: ('A' for Active; 'I' for Inactive)
REMARK    1  A    between atoms: C_1  and  C_2
REMARK    2  A    between atoms: C_4  and  N_5
REMARK    3  A    between atoms: C_10  and  C_11
REMARK    4  A    between atoms: N_13  and  C_14
REMARK    5  A    between atoms: C_21  and  C_22
REMARK    6  A    between atoms: N_24  and  C_25
REMARK    7  A    between atoms: N_24  and  C_26
REMARK    8  A    between atoms: C_26  and  C_27
REMARK    9  A    between atoms: N_31  and  C_32
REMARK                            x       y       z     vdW  Elec       q    Type
REMARK                         _______ _______ _______ _____ _____    ______ ____
ROOT
ATOM      1  C   UNL     1       2.535   8.736  17.501  0.00  0.00    +0.000 C 
ATOM      2  C   UNL     1       2.028   8.316  18.847  0.00  0.00    +0.000 A 
ATOM      3  C   UNL     1       2.146   6.986  19.266  0.00  0.00    +0.000 A 
ATOM      4  C   UNL     1       1.630   6.496  20.471  0.00  0.00    +0.000 A 
ATOM      5  C   UNL     1       1.112   7.435  21.389  0.00  0.00    +0.000 A 
ATOM      6  C   UNL     1       1.023   8.803  21.028  0.00  0.00    +0.000 A 
ATOM      7  C   UNL     1       0.591  10.002  21.679  0.00  0.00    +0.000 A 
ATOM      8  C   UNL     1       0.762  11.079  20.810  0.00  0.00    +0.000 A 
ATOM      9  N   UNL     1       1.137  10.519  19.616  0.00  0.00    +0.000 N 
ATOM     10  C   UNL     1       1.437   9.189  19.760  0.00  0.00    +0.000 A 
ATOM     11  H   UNL     1       1.241  11.026  18.750  0.00  0.00    +0.000 HD
ENDROOT
BRANCH   4  12
ATOM     12  N   UNL     1       1.657   5.114  20.790  0.00  0.00    +0.000 N 
ATOM     13  C   UNL     1       2.425   4.111  20.168  0.00  0.00    +0.000 A 
ATOM     14  N   UNL     1       1.950   2.856  20.195  0.00  0.00    +0.000 NA
ATOM     15  C   UNL     1       2.605   1.940  19.444  0.00  0.00    +0.000 A 
ATOM     16  C   UNL     1       3.696   2.223  18.657  0.00  0.00    +0.000 A 
ATOM     17  C   UNL     1       4.138   3.515  18.735  0.00  0.00    +0.000 A 
ATOM     18  N   UNL     1       3.539   4.436  19.507  0.00  0.00    +0.000 NA
ATOM     19  H   UNL     1       0.772   4.707  21.057  0.00  0.00    +0.000 HD
BRANCH  17  20
ATOM     20  C   UNL     1       5.253   4.005  17.938  0.00  0.00    +0.000 A 
ATOM     21  C   UNL     1       5.285   4.030  16.557  0.00  0.00    +0.000 A 
ATOM     22  N   UNL     1       6.523   4.503  16.237  0.00  0.00    +0.000 N 
ATOM     23  C   UNL     1       7.032   4.745  14.912  0.00  0.00    +0.000 C 
ATOM     24  C   UNL     1       7.198   4.721  17.403  0.00  0.00    +0.000 A 
ATOM     25  N   UNL     1       6.447   4.462  18.453  0.00  0.00    +0.000 NA
ENDBRANCH  17  20
ENDBRANCH   4  12
BRANCH   8  26
ATOM     26  C   UNL     1       0.491  12.485  21.049  0.00  0.00    +0.000 C 
ATOM     27  O   UNL     1       1.414  13.241  21.363  0.00  0.00    +0.000 OA
ATOM     28  N   UNL     1      -0.820  12.985  20.936  0.00  0.00    +0.000 N 
ATOM     29  C   UNL     1      -1.967  12.304  20.335  0.00  0.00    +0.000 C 
BRANCH  28  30
ATOM     30  C   UNL     1      -1.011  14.422  21.164  0.00  0.00    +0.000 C 
BRANCH  30  31
ATOM     31  C   UNL     1      -1.469  14.712  22.562  0.00  0.00    +0.000 A 
ATOM     32  N   UNL     1      -0.705  14.700  23.643  0.00  0.00    +0.000 NA
ATOM     33  C   UNL     1      -1.550  14.891  24.705  0.00  0.00    +0.000 A 
ATOM     34  C   UNL     1      -2.843  15.052  24.272  0.00  0.00    +0.000 A 
ATOM     35  N   UNL     1      -2.778  14.958  22.908  0.00  0.00    +0.000 N 
ATOM     36  C   UNL     1      -3.898  15.076  22.008  0.00  0.00    +0.000 C 
ENDBRANCH  30  31
ENDBRANCH  28  30
ENDBRANCH   8  26
TORSDOF 5
ENDMDL
MODEL 2
REMARK VINA RESULT:      -8.4      2.850     10.965
REMARK  Name = 
REMARK  9 active torsions:
REMARK  status: ('A' for Active; 'I' for Inactive)
REMARK    1  A    between atoms: C_1  and  C_2
REMARK    2  A    between atoms: C_4  and  N_5
REMARK    3  A    between atoms: C_10  and  C_11
REMARK    4  A    between atoms: N_13  and  C_14
REMARK    5  A    between atoms: C_21  and  C_22
REMARK    6  A    between atoms: N_24  and  C_25
REMARK    7  A    between atoms: N_24  and  C_26
REMARK    8  A    between atoms: C_26  and  C_27
REMARK    9  A    between atoms: N_31  and  C_32
REMARK                            x       y       z     vdW  Elec       q    Type
REMARK                         _______ _______ _______ _____ _____    ______ ____
ROOT
ATOM      1  C   UNL     1       0.050  13.241  18.385  0.00  0.00    +0.000 C 
ATOM      2  C   UNL     1      -0.035  12.359  19.593  0.00  0.00    +0.000 A 
ATOM      3  C   UNL     1      -0.736  12.779  20.730  0.00  0.00    +0.000 A 
ATOM      4  C   UNL     1      -0.796  12.052  21.924  0.00  0.00    +0.000 A 
ATOM      5  C   UNL     1      -0.263  10.745  21.922  0.00  0.00    +0.000 A 
ATOM      6  C   UNL     1       0.409  10.257  20.773  0.00  0.00    +0.000 A 
ATOM      7  C   UNL     1       1.035   9.025  20.406  0.00  0.00    +0.000 A 
ATOM      8  C   UNL     1       1.518   9.129  19.102  0.00  0.00    +0.000 A 
ATOM      9  N   UNL     1       1.326  10.440  18.753  0.00  0.00    +0.000 N 
ATOM     10  C   UNL     1       0.542  11.092  19.670  0.00  0.00    +0.000 A 
ATOM     11  H   UNL     1       1.663  10.865  17.902  0.00  0.00    +0.000 HD
ENDROOT
BRANCH   4  12
ATOM     12  N   UNL     1      -1.406  12.580  23.091  0.00  0.00    +0.000 N 
ATOM     13  C   UNL     1      -2.760  12.931  23.261  0.00  0.00    +0.000 A 
ATOM     14  N   UNL     1      -3.048  13.883  24.161  0.00  0.00    +0.000 NA
ATOM     15  C   UNL     1      -4.324  14.333  24.185  0.00  0.00    +0.000 A 
ATOM     16  C   UNL     1      -5.316  13.891  23.342  0.00  0.00    +0.000 A 
ATOM     17  C   UNL     1      -4.941  12.885  22.495  0.00  0.00    +0.000 A 
ATOM     18  N   UNL     1      -3.694  12.384  22.479  0.00  0.00    +0.000 NA
ATOM     19  H   UNL     1      -0.847  13.232  23.623  0.00  0.00    +0.000 HD
BRANCH  17  20
ATOM     20  C   UNL     1      -5.846  12.326  21.503  0.00  0.00    +0.000 A 
ATOM     21  C   UNL     1      -5.621  12.325  20.139  0.00  0.00    +0.000 A 
ATOM     22  N   UNL     1      -6.736  11.763  19.593  0.00  0.00    +0.000 N 
ATOM     23  C   UNL     1      -6.971  11.509  18.195  0.00  0.00    +0.000 C 
ATOM     24  C   UNL     1      -7.595  11.469  20.613  0.00  0.00    +0.000 A 
ATOM     25  N   UNL     1      -7.074  11.766  21.785  0.00  0.00    +0.000 NA
ENDBRANCH  17  20
ENDBRANCH   4  12
BRANCH   8  26
ATOM     26  C   UNL     1       2.194   8.120  18.305  0.00  0.00    +0.000 C 
ATOM     27  O   UNL     1       2.611   8.409  17.180  0.00  0.00    +0.000 OA
ATOM     28  N   UNL     1       2.363   6.816  18.805  0.00  0.00    +0.000 N 
ATOM     29  C   UNL     1       2.169   6.377  20.187  0.00  0.00    +0.000 C 
BRANCH  28  30
ATOM     30  C   UNL     1       3.081   5.861  17.953  0.00  0.00    +0.000 C 
BRANCH  30  31
ATOM     31  C   UNL     1       2.605   4.455  18.163  0.00  0.00    +0.000 A 
ATOM     32  N   UNL     1       1.409   3.989  17.842  0.00  0.00    +0.000 NA
ATOM     33  C   UNL     1       1.362   2.706  18.323  0.00  0.00    +0.000 A 
ATOM     34  C   UNL     1       2.551   2.368  18.919  0.00  0.00    +0.000 A 
ATOM     35  N   UNL     1       3.343   3.478  18.794  0.00  0.00    +0.000 N 
ATOM     36  C   UNL     1       4.699   3.595  19.265  0.00  0.00    +0.000 C 
ENDBRANCH  30  31
ENDBRANCH  28  30
ENDBRANCH   8  26
TORSDOF 5
ENDMDL
MODEL 3
REMARK VINA RESULT:      -8.4      3.449     10.221
REMARK  Name = 
REMARK  9 active torsions:
REMARK  status: ('A' for Active; 'I' for Inactive)
REMARK    1  A    between atoms: C_1  and  C_2
REMARK    2  A    between atoms: C_4  and  N_5
REMARK    3  A    between atoms: C_10  and  C_11
REMARK    4  A    between atoms: N_13  and  C_14
REMARK    5  A    between atoms: C_21  and  C_22
REMARK    6  A    between atoms: N_24  and  C_25
REMARK    7  A    between atoms: N_24  and  C_26
REMARK    8  A    between atoms: C_26  and  C_27
REMARK    9  A    between atoms: N_31  and  C_32
REMARK                            x       y       z     vdW  Elec       q    Type
REMARK                         _______ _______ _______ _____ _____    ______ ____
ROOT
ATOM      1  C   UNL     1      -0.201  10.044  22.879  0.00  0.00    +0.000 C 
ATOM      2  C   UNL     1       0.115  10.350  21.447  0.00  0.00    +0.000 A 
ATOM      3  C   UNL     1      -0.202  11.600  20.902  0.00  0.00    +0.000 A 
ATOM      4  C   UNL     1      -0.014  11.937  19.558  0.00  0.00    +0.000 A 
ATOM      5  C   UNL     1       0.693  11.023  18.747  0.00  0.00    +0.000 A 
ATOM      6  C   UNL     1       1.082   9.765  19.273  0.00  0.00    +0.000 A 
ATOM      7  C   UNL     1       1.803   8.634  18.778  0.00  0.00    +0.000 A 
ATOM      8  C   UNL     1       1.896   7.675  19.786  0.00  0.00    +0.000 A 
ATOM      9  N   UNL     1       1.116   8.153  20.807  0.00  0.00    +0.000 N 
ATOM     10  C   UNL     1       0.740   9.453  20.583  0.00  0.00    +0.000 A 
ATOM     11  H   UNL     1       0.891   7.643  21.648  0.00  0.00    +0.000 HD
ENDROOT
BRANCH   4  12
ATOM     12  N   UNL     1      -0.474  13.168  19.023  0.00  0.00    +0.000 N 
ATOM     13  C   UNL     1       0.263  14.359  18.869  0.00  0.00    +0.000 A 
ATOM     14  N   UNL     1      -0.414  15.517  18.885  0.00  0.00    +0.000 NA
ATOM     15  C   UNL     1       0.322  16.653  18.915  0.00  0.00    +0.000 A 
ATOM     16  C   UNL     1       1.696  16.684  18.950  0.00  0.00    +0.000 A 
ATOM     17  C   UNL     1       2.298  15.457  18.880  0.00  0.00    +0.000 A 
ATOM     18  N   UNL     1       1.596  14.314  18.801  0.00  0.00    +0.000 NA
ATOM     19  H   UNL     1      -1.425  13.420  19.254  0.00  0.00    +0.000 HD
BRANCH  17  20
ATOM     20  C   UNL     1       3.742  15.295  18.949  0.00  0.00    +0.000 A 
ATOM     21  C   UNL     1       4.567  15.090  17.860  0.00  0.00    +0.000 A 
ATOM     22  N   UNL     1       5.816  14.934  18.382  0.00  0.00    +0.000 N 
ATOM     23  C   UNL     1       7.035  14.728  17.642  0.00  0.00    +0.000 C 
ATOM     24  C   UNL     1       5.712  15.021  19.740  0.00  0.00    +0.000 A 
ATOM     25  N   UNL     1       4.476  15.272  20.116  0.00  0.00    +0.000 NA
ENDBRANCH  17  20
ENDBRANCH   4  12
BRANCH   8  26
ATOM     26  C   UNL     1       2.563   6.385  19.750  0.00  0.00    +0.000 C 
ATOM     27  O   UNL     1       2.255   5.514  20.568  0.00  0.00    +0.000 OA
ATOM     28  N   UNL     1       3.565   6.132  18.795  0.00  0.00    +0.000 N 
ATOM     29  C   UNL     1       3.870   6.936  17.612  0.00  0.00    +0.000 C 
BRANCH  28  30
ATOM     30  C   UNL     1       4.173   4.796  18.803  0.00  0.00    +0.000 C 
BRANCH  30  31
ATOM     31  C   UNL     1       5.664   4.858  18.662  0.00  0.00    +0.000 A 
ATOM     32  N   UNL     1       6.508   5.309  19.576  0.00  0.00    +0.000 NA
ATOM     33  C   UNL     1       7.744   5.303  18.984  0.00  0.00    +0.000 A 
ATOM     34  C   UNL     1       7.667   4.814  17.704  0.00  0.00    +0.000 A 
ATOM     35  N   UNL     1       6.344   4.513  17.515  0.00  0.00    +0.000 N 
ATOM     36  C   UNL     1       5.777   3.956  16.313  0.00  0.00    +0.000 C 
ENDBRANCH  30  31
ENDBRANCH  28  30
ENDBRANCH   8  26
TORSDOF 5
ENDMDL
MODEL 4
REMARK VINA RESULT:      -8.4      2.914     10.798
REMARK  Name = 
REMARK  9 active torsions:
REMARK  status: ('A' for Active; 'I' for Inactive)
REMARK    1  A    between atoms: C_1  and  C_2
REMARK    2  A    between atoms: C_4  and  N_5
REMARK    3  A    between atoms: C_10  and  C_11
REMARK    4  A    between atoms: N_13  and  C_14
REMARK    5  A    between atoms: C_21  and  C_22
REMARK    6  A    between atoms: N_24  and  C_25
REMARK    7  A    between atoms: N_24  and  C_26
REMARK    8  A    between atoms: C_26  and  C_27
REMARK    9  A    between atoms: N_31  and  C_32
REMARK                            x       y       z     vdW  Elec       q    Type
REMARK                         _______ _______ _______ _____ _____    ______ ____
ROOT
ATOM      1  C   UNL     1       1.493  12.634  19.844  0.00  0.00    +0.000 C 
ATOM      2  C   UNL     1       0.700  11.876  20.864  0.00  0.00    +0.000 A 
ATOM      3  C   UNL     1      -0.190  12.548  21.712  0.00  0.00    +0.000 A 
ATOM      4  C   UNL     1      -0.906  11.928  22.741  0.00  0.00    +0.000 A 
ATOM      5  C   UNL     1      -0.858  10.519  22.816  0.00  0.00    +0.000 A 
ATOM      6  C   UNL     1      -0.011   9.793  21.941  0.00  0.00    +0.000 A 
ATOM      7  C   UNL     1       0.275   8.410  21.716  0.00  0.00    +0.000 A 
ATOM      8  C   UNL     1       1.202   8.298  20.680  0.00  0.00    +0.000 A 
ATOM      9  N   UNL     1       1.579   9.586  20.398  0.00  0.00    +0.000 N 
ATOM     10  C   UNL     1       0.771  10.495  21.032  0.00  0.00    +0.000 A 
ATOM     11  H   UNL     1       2.318   9.843  19.761  0.00  0.00    +0.000 HD
ENDROOT
BRANCH   4  12
ATOM     12  N   UNL     1      -1.693  12.672  23.658  0.00  0.00    +0.000 N 
ATOM     13  C   UNL     1      -3.026  13.094  23.491  0.00  0.00    +0.000 A 
ATOM     14  N   UNL     1      -3.417  14.198  24.146  0.00  0.00    +0.000 NA
ATOM     15  C   UNL     1      -4.640  14.689  23.838  0.00  0.00    +0.000 A 
ATOM     16  C   UNL     1      -5.478  14.142  22.895  0.00  0.00    +0.000 A 
ATOM     17  C   UNL     1      -5.016  12.991  22.317  0.00  0.00    +0.000 A 
ATOM     18  N   UNL     1      -3.828  12.453  22.637  0.00  0.00    +0.000 NA
ATOM     19  H   UNL     1      -1.204  13.387  24.178  0.00  0.00    +0.000 HD
BRANCH  17  20
ATOM     20  C   UNL     1      -5.748  12.300  21.268  0.00  0.00    +0.000 A 
ATOM     21  C   UNL     1      -5.476  12.399  19.917  0.00  0.00    +0.000 A 
ATOM     22  N   UNL     1      -6.431  11.645  19.304  0.00  0.00    +0.000 N 
ATOM     23  C   UNL     1      -6.554  11.404  17.889  0.00  0.00    +0.000 C 
ATOM     24  C   UNL     1      -7.249  11.142  20.273  0.00  0.00    +0.000 A 
ATOM     25  N   UNL     1      -6.845  11.492  21.477  0.00  0.00    +0.000 NA
ENDBRANCH  17  20
ENDBRANCH   4  12
BRANCH   8  26
ATOM     26  C   UNL     1       1.758   7.094  20.090  0.00  0.00    +0.000 C 
ATOM     27  O   UNL     1       1.687   6.024  20.701  0.00  0.00    +0.000 OA
ATOM     28  N   UNL     1       2.387   7.145  18.832  0.00  0.00    +0.000 N 
ATOM     29  C   UNL     1       2.335   8.247  17.872  0.00  0.00    +0.000 C 
BRANCH  28  30
ATOM     30  C   UNL     1       2.899   5.882  18.289  0.00  0.00    +0.000 C 
BRANCH  30  31
ATOM     31  C   UNL     1       4.382   5.752  18.473  0.00  0.00    +0.000 A 
ATOM     32  N   UNL     1       4.990   5.337  19.572  0.00  0.00    +0.000 NA
ATOM     33  C   UNL     1       6.332   5.497  19.345  0.00  0.00    +0.000 A 
ATOM     34  C   UNL     1       6.555   5.987  18.082  0.00  0.00    +0.000 A 
ATOM     35  N   UNL     1       5.310   6.126  17.527  0.00  0.00    +0.000 N 
ATOM     36  C   UNL     1       5.038   6.602  16.195  0.00  0.00    +0.000 C 
ENDBRANCH  30  31
ENDBRANCH  28  30
ENDBRANCH   8  26
TORSDOF 5
ENDMDL
MODEL 5
REMARK VINA RESULT:      -8.4      0.552      1.151
REMARK  Name = 
REMARK  9 active torsions:
REMARK  status: ('A' for Active; 'I' for Inactive)
REMARK    1  A    between atoms: C_1  and  C_2
REMARK    2  A    between atoms: C_4  and  N_5
REMARK    3  A    between atoms: C_10  and  C_11
REMARK    4  A    between atoms: N_13  and  C_14
REMARK    5  A    between atoms: C_21  and  C_22
REMARK    6  A    between atoms: N_24  and  C_25
REMARK    7  A    between atoms: N_24  and  C_26
REMARK    8  A    between atoms: C_26  and  C_27
REMARK    9  A    between atoms: N_31  and  C_32
REMARK                            x       y       z     vdW  Elec       q    Type
REMARK                         _______ _______ _______ _____ _____    ______ ____
ROOT
ATOM      1  C   UNL     1       2.586   8.720  17.560  0.00  0.00    +0.000 C 
ATOM      2  C   UNL     1       2.038   8.293  18.887  0.00  0.00    +0.000 A 
ATOM      3  C   UNL     1       2.188   6.971  19.325  0.00  0.00    +0.000 A 
ATOM      4  C   UNL     1       1.638   6.473  20.511  0.00  0.00    +0.000 A 
ATOM      5  C   UNL     1       1.046   7.399  21.396  0.00  0.00    +0.000 A 
ATOM      6  C   UNL     1       0.921   8.760  21.018  0.00  0.00    +0.000 A 
ATOM      7  C   UNL     1       0.417   9.946  21.637  0.00  0.00    +0.000 A 
ATOM      8  C   UNL     1       0.584  11.022  20.765  0.00  0.00    +0.000 A 
ATOM      9  N   UNL     1       1.032  10.466  19.594  0.00  0.00    +0.000 N 
ATOM     10  C   UNL     1       1.375   9.150  19.764  0.00  0.00    +0.000 A 
ATOM     11  H   UNL     1       1.154  10.969  18.728  0.00  0.00    +0.000 HD
ENDROOT
BRANCH   4  12
ATOM     12  N   UNL     1       1.703   5.096  20.845  0.00  0.00    +0.000 N 
ATOM     13  C   UNL     1       2.492   4.105  20.228  0.00  0.00    +0.000 A 
ATOM     14  N   UNL     1       2.050   2.840  20.272  0.00  0.00    +0.000 NA
ATOM     15  C   UNL     1       2.723   1.932  19.527  0.00  0.00    +0.000 A 
ATOM     16  C   UNL     1       3.801   2.234  18.728  0.00  0.00    +0.000 A 
ATOM     17  C   UNL     1       4.210   3.538  18.788  0.00  0.00    +0.000 A 
ATOM     18  N   UNL     1       3.592   4.452  19.554  0.00  0.00    +0.000 NA
ATOM     19  H   UNL     1       0.831   4.669  21.123  0.00  0.00    +0.000 HD
BRANCH  17  20
ATOM     20  C   UNL     1       5.305   4.047  17.977  0.00  0.00    +0.000 A 
ATOM     21  C   UNL     1       5.301   4.114  16.597  0.00  0.00    +0.000 A 
ATOM     22  N   UNL     1       6.532   4.592  16.259  0.00  0.00    +0.000 N 
ATOM     23  C   UNL     1       7.007   4.872  14.928  0.00  0.00    +0.000 C 
ATOM     24  C   UNL     1       7.239   4.772  17.412  0.00  0.00    +0.000 A 
ATOM     25  N   UNL     1       6.514   4.484  18.474  0.00  0.00    +0.000 NA
ENDBRANCH  17  20
ENDBRANCH   4  12
BRANCH   8  26
ATOM     26  C   UNL     1       0.250  12.419  20.978  0.00  0.00    +0.000 C 
ATOM     27  O   UNL     1       1.052  13.158  21.554  0.00  0.00    +0.000 OA
ATOM     28  N   UNL     1      -0.987  12.927  20.541  0.00  0.00    +0.000 N 
ATOM     29  C   UNL     1      -1.929  12.275  19.631  0.00  0.00    +0.000 C 
BRANCH  28  30
ATOM     30  C   UNL     1      -1.241  14.355  20.766  0.00  0.00    +0.000 C 
BRANCH  30  31
ATOM     31  C   UNL     1      -2.460  14.582  21.608  0.00  0.00    +0.000 A 
ATOM     32  N   UNL     1      -3.677  14.836  21.153  0.00  0.00    +0.000 NA
ATOM     33  C   UNL     1      -4.446  15.100  22.257  0.00  0.00    +0.000 A 
ATOM     34  C   UNL     1      -3.703  14.978  23.405  0.00  0.00    +0.000 A 
ATOM     35  N   UNL     1      -2.448  14.627  22.984  0.00  0.00    +0.000 N 
ATOM     36  C   UNL     1      -1.318  14.376  23.843  0.00  0.00    +0.000 C 
ENDBRANCH  30  31
ENDBRANCH  28  30
ENDBRANCH   8  26
TORSDOF 5
ENDMDL
MODEL 6
REMARK VINA RESULT:      -8.3      1.892      2.615
REMARK  Name = 
REMARK  9 active torsions:
REMARK  status: ('A' for Active; 'I' for Inactive)
REMARK    1  A    between atoms: C_1  and  C_2
REMARK    2  A    between atoms: C_4  and  N_5
REMARK    3  A    between atoms: C_10  and  C_11
REMARK    4  A    between atoms: N_13  and  C_14
REMARK    5  A    between atoms: C_21  and  C_22
REMARK    6  A    between atoms: N_24  and  C_25
REMARK    7  A    between atoms: N_24  and  C_26
REMARK    8  A    between atoms: C_26  and  C_27
REMARK    9  A    between atoms: N_31  and  C_32
REMARK                            x       y       z     vdW  Elec       q    Type
REMARK                         _______ _______ _______ _____ _____    ______ ____
ROOT
ATOM      1  C   UNL     1       2.564   8.805  17.435  0.00  0.00    +0.000 C 
ATOM      2  C   UNL     1       2.032   8.465  18.794  0.00  0.00    +0.000 A 
ATOM      3  C   UNL     1       2.147   7.163  19.295  0.00  0.00    +0.000 A 
ATOM      4  C   UNL     1       1.608   6.745  20.517  0.00  0.00    +0.000 A 
ATOM      5  C   UNL     1       1.069   7.735  21.366  0.00  0.00    +0.000 A 
ATOM      6  C   UNL     1       0.982   9.078  20.921  0.00  0.00    +0.000 A 
ATOM      7  C   UNL     1       0.534  10.312  21.489  0.00  0.00    +0.000 A 
ATOM      8  C   UNL     1       0.717  11.336  20.560  0.00  0.00    +0.000 A 
ATOM      9  N   UNL     1       1.118  10.706  19.410  0.00  0.00    +0.000 N 
ATOM     10  C   UNL     1       1.420   9.388  19.640  0.00  0.00    +0.000 A 
ATOM     11  H   UNL     1       1.237  11.160  18.517  0.00  0.00    +0.000 HD
ENDROOT
BRANCH   4  12
ATOM     12  N   UNL     1       1.634   5.385  20.920  0.00  0.00    +0.000 N 
ATOM     13  C   UNL     1       2.413   4.348  20.371  0.00  0.00    +0.000 A 
ATOM     14  N   UNL     1       1.940   3.096  20.467  0.00  0.00    +0.000 NA
ATOM     15  C   UNL     1       2.608   2.138  19.783  0.00  0.00    +0.000 A 
ATOM     16  C   UNL     1       3.710   2.376  18.996  0.00  0.00    +0.000 A 
ATOM     17  C   UNL     1       4.148   3.672  19.001  0.00  0.00    +0.000 A 
ATOM     18  N   UNL     1       3.535   4.636  19.707  0.00  0.00    +0.000 NA
ATOM     19  H   UNL     1       0.746   4.992  21.198  0.00  0.00    +0.000 HD
BRANCH  17  20
ATOM     20  C   UNL     1       5.273   4.115  18.192  0.00  0.00    +0.000 A 
ATOM     21  C   UNL     1       5.279   4.171  16.811  0.00  0.00    +0.000 A 
ATOM     22  N   UNL     1       6.535   4.580  16.476  0.00  0.00    +0.000 N 
ATOM     23  C   UNL     1       7.031   4.824  15.146  0.00  0.00    +0.000 C 
ATOM     24  C   UNL     1       7.245   4.732  17.632  0.00  0.00    +0.000 A 
ATOM     25  N   UNL     1       6.501   4.491  18.692  0.00  0.00    +0.000 NA
ENDBRANCH  17  20
ENDBRANCH   4  12
BRANCH   8  26
ATOM     26  C   UNL     1       0.436  12.752  20.708  0.00  0.00    +0.000 C 
ATOM     27  O   UNL     1       0.858  13.360  21.696  0.00  0.00    +0.000 OA
ATOM     28  N   UNL     1      -0.324  13.430  19.737  0.00  0.00    +0.000 N 
ATOM     29  C   UNL     1      -0.676  12.942  18.403  0.00  0.00    +0.000 C 
BRANCH  28  30
ATOM     30  C   UNL     1      -0.541  14.867  19.941  0.00  0.00    +0.000 C 
BRANCH  30  31
ATOM     31  C   UNL     1       0.412  15.699  19.136  0.00  0.00    +0.000 A 
ATOM     32  N   UNL     1       1.697  15.440  18.953  0.00  0.00    +0.000 NA
ATOM     33  C   UNL     1       2.205  16.515  18.271  0.00  0.00    +0.000 A 
ATOM     34  C   UNL     1       1.218  17.431  18.004  0.00  0.00    +0.000 A 
ATOM     35  N   UNL     1       0.077  16.893  18.539  0.00  0.00    +0.000 N 
ATOM     36  C   UNL     1      -1.231  17.496  18.495  0.00  0.00    +0.000 C 
ENDBRANCH  30  31
ENDBRANCH  28  30
ENDBRANCH   8  26
TORSDOF 5
ENDMDL
MODEL 7
REMARK VINA RESULT:      -8.3      2.867      4.755
REMARK  Name = 
REMARK  9 active torsions:
REMARK  status: ('A' for Active; 'I' for Inactive)
REMARK    1  A    between atoms: C_1  and  C_2
REMARK    2  A    between atoms: C_4  and  N_5
REMARK    3  A    between atoms: C_10  and  C_11
REMARK    4  A    between atoms: N_13  and  C_14
REMARK    5  A    between atoms: C_21  and  C_22
REMARK    6  A    between atoms: N_24  and  C_25
REMARK    7  A    between atoms: N_24  and  C_26
REMARK    8  A    between atoms: C_26  and  C_27
REMARK    9  A    between atoms: N_31  and  C_32
REMARK                            x       y       z     vdW  Elec       q    Type
REMARK                         _______ _______ _______ _____ _____    ______ ____
ROOT
ATOM      1  C   UNL     1       0.718   8.758  21.919  0.00  0.00    +0.000 C 
ATOM      2  C   UNL     1       0.803   9.161  20.479  0.00  0.00    +0.000 A 
ATOM      3  C   UNL     1       1.756   8.578  19.634  0.00  0.00    +0.000 A 
ATOM      4  C   UNL     1       1.954   8.955  18.302  0.00  0.00    +0.000 A 
ATOM      5  C   UNL     1       1.026   9.852  17.731  0.00  0.00    +0.000 A 
ATOM      6  C   UNL     1       0.010  10.426  18.536  0.00  0.00    +0.000 A 
ATOM      7  C   UNL     1      -1.081  11.324  18.312  0.00  0.00    +0.000 A 
ATOM      8  C   UNL     1      -1.769  11.513  19.510  0.00  0.00    +0.000 A 
ATOM      9  N   UNL     1      -1.017  10.871  20.459  0.00  0.00    +0.000 N 
ATOM     10  C   UNL     1      -0.038  10.101  19.886  0.00  0.00    +0.000 A 
ATOM     11  H   UNL     1      -1.192  10.906  21.452  0.00  0.00    +0.000 HD
ENDROOT
BRANCH   4  12
ATOM     12  N   UNL     1       3.020   8.430  17.526  0.00  0.00    +0.000 N 
ATOM     13  C   UNL     1       3.587   7.143  17.618  0.00  0.00    +0.000 A 
ATOM     14  N   UNL     1       4.868   7.000  17.246  0.00  0.00    +0.000 NA
ATOM     15  C   UNL     1       5.448   5.804  17.506  0.00  0.00    +0.000 A 
ATOM     16  C   UNL     1       4.815   4.758  18.135  0.00  0.00    +0.000 A 
ATOM     17  C   UNL     1       3.498   4.980  18.430  0.00  0.00    +0.000 A 
ATOM     18  N   UNL     1       2.881   6.138  18.142  0.00  0.00    +0.000 NA
ATOM     19  H   UNL     1       3.759   9.079  17.298  0.00  0.00    +0.000 HD
BRANCH  17  20
ATOM     20  C   UNL     1       2.684   4.003  19.135  0.00  0.00    +0.000 A 
ATOM     21  C   UNL     1       2.552   3.928  20.509  0.00  0.00    +0.000 A 
ATOM     22  N   UNL     1       1.757   2.844  20.733  0.00  0.00    +0.000 N 
ATOM     23  C   UNL     1       1.298   2.367  22.012  0.00  0.00    +0.000 C 
ATOM     24  C   UNL     1       1.457   2.291  19.521  0.00  0.00    +0.000 A 
ATOM     25  N   UNL     1       1.975   2.987  18.530  0.00  0.00    +0.000 NA
ENDBRANCH  17  20
ENDBRANCH   4  12
BRANCH   8  26
ATOM     26  C   UNL     1      -2.957  12.312  19.754  0.00  0.00    +0.000 C 
ATOM     27  O   UNL     1      -2.895  13.283  20.513  0.00  0.00    +0.000 OA
ATOM     28  N   UNL     1      -4.177  11.975  19.140  0.00  0.00    +0.000 N 
ATOM     29  C   UNL     1      -4.371  11.036  18.035  0.00  0.00    +0.000 C 
BRANCH  28  30
ATOM     30  C   UNL     1      -5.326  12.846  19.412  0.00  0.00    +0.000 C 
BRANCH  30  31
ATOM     31  C   UNL     1      -6.300  12.210  20.358  0.00  0.00    +0.000 A 
ATOM     32  N   UNL     1      -7.079  11.176  20.085  0.00  0.00    +0.000 NA
ATOM     33  C   UNL     1      -7.889  11.013  21.179  0.00  0.00    +0.000 A 
ATOM     34  C   UNL     1      -7.585  11.937  22.148  0.00  0.00    +0.000 A 
ATOM     35  N   UNL     1      -6.560  12.679  21.626  0.00  0.00    +0.000 N 
ATOM     36  C   UNL     1      -5.896  13.771  22.292  0.00  0.00    +0.000 C 
ENDBRANCH  30  31
ENDBRANCH  28  30
ENDBRANCH   8  26
TORSDOF 5
ENDMDL
MODEL 8
REMARK VINA RESULT:      -8.2      1.162      1.260
REMARK  Name = 
REMARK  9 active torsions:
REMARK  status: ('A' for Active; 'I' for Inactive)
REMARK    1  A    between atoms: C_1  and  C_2
REMARK    2  A    between atoms: C_4  and  N_5
REMARK    3  A    between atoms: C_10  and  C_11
REMARK    4  A    between atoms: N_13  and  C_14
REMARK    5  A    between atoms: C_21  and  C_22
REMARK    6  A    between atoms: N_24  and  C_25
REMARK    7  A    between atoms: N_24  and  C_26
REMARK    8  A    between atoms: C_26  and  C_27
REMARK    9  A    between atoms: N_31  and  C_32
REMARK                            x       y       z     vdW  Elec       q    Type
REMARK                         _______ _______ _______ _____ _____    ______ ____
ROOT
ATOM      1  C   UNL     1       2.205   9.065  17.573  0.00  0.00    +0.000 C 
ATOM      2  C   UNL     1       1.835   8.544  18.928  0.00  0.00    +0.000 A 
ATOM      3  C   UNL     1       2.205   7.251  19.317  0.00  0.00    +0.000 A 
ATOM      4  C   UNL     1       1.831   6.662  20.529  0.00  0.00    +0.000 A 
ATOM      5  C   UNL     1       1.191   7.481  21.484  0.00  0.00    +0.000 A 
ATOM      6  C   UNL     1       0.844   8.815  21.153  0.00  0.00    +0.000 A 
ATOM      7  C   UNL     1       0.231   9.909  21.842  0.00  0.00    +0.000 A 
ATOM      8  C   UNL     1       0.172  11.010  20.988  0.00  0.00    +0.000 A 
ATOM      9  N   UNL     1       0.595  10.542  19.771  0.00  0.00    +0.000 N 
ATOM     10  C   UNL     1       1.133   9.285  19.878  0.00  0.00    +0.000 A 
ATOM     11  H   UNL     1       0.573  11.070  18.911  0.00  0.00    +0.000 HD
ENDROOT
BRANCH   4  12
ATOM     12  N   UNL     1       2.117   5.303  20.821  0.00  0.00    +0.000 N 
ATOM     13  C   UNL     1       2.742   4.364  19.977  0.00  0.00    +0.000 A 
ATOM     14  N   UNL     1       2.446   3.068  20.160  0.00  0.00    +0.000 NA
ATOM     15  C   UNL     1       2.914   2.200  19.234  0.00  0.00    +0.000 A 
ATOM     16  C   UNL     1       3.644   2.567  18.128  0.00  0.00    +0.000 A 
ATOM     17  C   UNL     1       3.939   3.900  18.054  0.00  0.00    +0.000 A 
ATOM     18  N   UNL     1       3.530   4.780  18.983  0.00  0.00    +0.000 NA
ATOM     19  H   UNL     1       1.421   4.815  21.367  0.00  0.00    +0.000 HD
BRANCH  17  20
ATOM     20  C   UNL     1       4.664   4.475  16.932  0.00  0.00    +0.000 A 
ATOM     21  C   UNL     1       5.344   3.747  15.974  0.00  0.00    +0.000 A 
ATOM     22  N   UNL     1       5.918   4.676  15.159  0.00  0.00    +0.000 N 
ATOM     23  C   UNL     1       6.709   4.414  13.984  0.00  0.00    +0.000 C 
ATOM     24  C   UNL     1       5.598   5.910  15.646  0.00  0.00    +0.000 A 
ATOM     25  N   UNL     1       4.812   5.826  16.700  0.00  0.00    +0.000 NA
ENDBRANCH  17  20
ENDBRANCH   4  12
BRANCH   8  26
ATOM     26  C   UNL     1      -0.336  12.342  21.264  0.00  0.00    +0.000 C 
ATOM     27  O   UNL     1       0.339  13.127  21.935  0.00  0.00    +0.000 OA
ATOM     28  N   UNL     1      -1.598  12.734  20.780  0.00  0.00    +0.000 N 
ATOM     29  C   UNL     1      -2.403  12.042  19.773  0.00  0.00    +0.000 C 
BRANCH  28  30
ATOM     30  C   UNL     1      -2.031  14.105  21.075  0.00  0.00    +0.000 C 
BRANCH  30  31
ATOM     31  C   UNL     1      -2.989  14.155  22.227  0.00  0.00    +0.000 A 
ATOM     32  N   UNL     1      -2.671  14.006  23.503  0.00  0.00    +0.000 NA
ATOM     33  C   UNL     1      -3.858  13.994  24.189  0.00  0.00    +0.000 A 
ATOM     34  C   UNL     1      -4.915  14.168  23.331  0.00  0.00    +0.000 A 
ATOM     35  N   UNL     1      -4.352  14.291  22.089  0.00  0.00    +0.000 N 
ATOM     36  C   UNL     1      -5.076  14.503  20.861  0.00  0.00    +0.000 C 
ENDBRANCH  30  31
ENDBRANCH  28  30
ENDBRANCH   8  26
TORSDOF 5
ENDMDL
MODEL 9
REMARK VINA RESULT:      -8.2      1.165      1.337
REMARK  Name = 
REMARK  9 active torsions:
REMARK  status: ('A' for Active; 'I' for Inactive)
REMARK    1  A    between atoms: C_1  and  C_2
REMARK    2  A    between atoms: C_4  and  N_5
REMARK    3  A    between atoms: C_10  and  C_11
REMARK    4  A    between atoms: N_13  and  C_14
REMARK    5  A    between atoms: C_21  and  C_22
REMARK    6  A    between atoms: N_24  and  C_25
REMARK    7  A    between atoms: N_24  and  C_26
REMARK    8  A    between atoms: C_26  and  C_27
REMARK    9  A    between atoms: N_31  and  C_32
REMARK                            x       y       z     vdW  Elec       q    Type
REMARK                         _______ _______ _______ _____ _____    ______ ____
ROOT
ATOM      1  C   UNL     1       2.112   9.229  17.592  0.00  0.00    +0.000 C 
ATOM      2  C   UNL     1       1.697   8.735  18.944  0.00  0.00    +0.000 A 
ATOM      3  C   UNL     1       2.173   7.510  19.429  0.00  0.00    +0.000 A 
ATOM      4  C   UNL     1       1.773   6.941  20.643  0.00  0.00    +0.000 A 
ATOM      5  C   UNL     1       0.978   7.729  21.503  0.00  0.00    +0.000 A 
ATOM      6  C   UNL     1       0.517   8.999  21.076  0.00  0.00    +0.000 A 
ATOM      7  C   UNL     1      -0.260  10.049  21.658  0.00  0.00    +0.000 A 
ATOM      8  C   UNL     1      -0.371  11.096  20.743  0.00  0.00    +0.000 A 
ATOM      9  N   UNL     1       0.190  10.620  19.587  0.00  0.00    +0.000 N 
ATOM     10  C   UNL     1       0.850   9.437  19.800  0.00  0.00    +0.000 A 
ATOM     11  H   UNL     1       0.177  11.102  18.700  0.00  0.00    +0.000 HD
ENDROOT
BRANCH   4  12
ATOM     12  N   UNL     1       2.180   5.638  21.028  0.00  0.00    +0.000 N 
ATOM     13  C   UNL     1       2.846   4.683  20.235  0.00  0.00    +0.000 A 
ATOM     14  N   UNL     1       2.664   3.389  20.533  0.00  0.00    +0.000 NA
ATOM     15  C   UNL     1       3.163   2.485  19.658  0.00  0.00    +0.000 A 
ATOM     16  C   UNL     1       3.817   2.815  18.495  0.00  0.00    +0.000 A 
ATOM     17  C   UNL     1       4.000   4.156  18.302  0.00  0.00    +0.000 A 
ATOM     18  N   UNL     1       3.558   5.076  19.175  0.00  0.00    +0.000 NA
ATOM     19  H   UNL     1       1.548   5.144  21.642  0.00  0.00    +0.000 HD
BRANCH  17  20
ATOM     20  C   UNL     1       4.631   4.691  17.105  0.00  0.00    +0.000 A 
ATOM     21  C   UNL     1       5.382   3.952  16.211  0.00  0.00    +0.000 A 
ATOM     22  N   UNL     1       5.824   4.851  15.287  0.00  0.00    +0.000 N 
ATOM     23  C   UNL     1       6.624   4.562  14.124  0.00  0.00    +0.000 C 
ATOM     24  C   UNL     1       5.361   6.082  15.650  0.00  0.00    +0.000 A 
ATOM     25  N   UNL     1       4.607   6.017  16.728  0.00  0.00    +0.000 NA
ENDBRANCH  17  20
ENDBRANCH   4  12
BRANCH   8  26
ATOM     26  C   UNL     1      -1.038  12.375  20.909  0.00  0.00    +0.000 C 
ATOM     27  O   UNL     1      -2.270  12.419  20.968  0.00  0.00    +0.000 OA
ATOM     28  N   UNL     1      -0.287  13.562  20.988  0.00  0.00    +0.000 N 
ATOM     29  C   UNL     1       1.157  13.672  21.192  0.00  0.00    +0.000 C 
BRANCH  28  30
ATOM     30  C   UNL     1      -1.031  14.812  21.184  0.00  0.00    +0.000 C 
BRANCH  30  31
ATOM     31  C   UNL     1      -1.412  15.019  22.619  0.00  0.00    +0.000 A 
ATOM     32  N   UNL     1      -0.584  14.984  23.651  0.00  0.00    +0.000 NA
ATOM     33  C   UNL     1      -1.369  15.095  24.769  0.00  0.00    +0.000 A 
ATOM     34  C   UNL     1      -2.691  15.230  24.422  0.00  0.00    +0.000 A 
ATOM     35  N   UNL     1      -2.706  15.203  23.053  0.00  0.00    +0.000 N 
ATOM     36  C   UNL     1      -3.881  15.324  22.228  0.00  0.00    +0.000 C 
ENDBRANCH  30  31
ENDBRANCH  28  30
ENDBRANCH   8  26
TORSDOF 5
ENDMDL
