MODEL 1
REMARK VINA RESULT:      -7.8      0.000      0.000
REMARK  Name = 
REMARK  7 active torsions:
REMARK  status: ('A' for Active; 'I' for Inactive)
REMARK    1  A    between atoms: C_2  and  O_3
REMARK    2  A    between atoms: C_2  and  C_4
REMARK    3  A    between atoms: C_4  and  C_5
REMARK    4  A    between atoms: C_10  and  O_11
REMARK    5  A    between atoms: O_11  and  C_12
REMARK    6  A    between atoms: C_12  and  C_13
REMARK    7  A    between atoms: C_15  and  C_16
REMARK                            x       y       z     vdW  Elec       q    Type
REMARK                         _______ _______ _______ _____ _____    ______ ____
ROOT
ATOM      1  C   UNL     1       4.195   3.983  17.559  0.00  0.00    +0.000 A 
ATOM      2  C   UNL     1       4.002   2.860  18.344  0.00  0.00    +0.000 A 
ATOM      3  S   UNL     1       3.102   3.169  19.745  0.00  0.00    +0.000 S 
ATOM      4  C   UNL     1       2.979   4.842  19.379  0.00  0.00    +0.000 A 
ATOM      5  C   UNL     1       2.302   5.800  20.160  0.00  0.00    +0.000 A 
ATOM      6  C   UNL     1       2.311   7.143  19.782  0.00  0.00    +0.000 A 
ATOM      7  C   UNL     1       2.980   7.533  18.639  0.00  0.00    +0.000 A 
ATOM      8  C   UNL     1       3.626   6.566  17.862  0.00  0.00    +0.000 A 
ATOM      9 CL   UNL     1       4.484   7.080  16.471  0.00  0.00    +0.000 Cl
ATOM     10  C   UNL     1       3.644   5.181  18.190  0.00  0.00    +0.000 A 
ENDROOT
BRANCH   1  11
ATOM     11  C   UNL     1       4.876   3.894  16.215  0.00  0.00    +0.000 C 
BRANCH  11  13
ATOM     12  O   UNL     1       6.989   4.279  15.148  0.00  0.00    +0.000 OA
ATOM     13  C   UNL     1       6.371   4.135  16.199  0.00  0.00    +0.000 C 
BRANCH  13  14
ATOM     14  O   UNL     1       7.009   4.141  17.385  0.00  0.00    +0.000 OA
ATOM     15  H   UNL     1       6.569   3.651  18.103  0.00  0.00    +0.000 HD
ENDBRANCH  13  14
ENDBRANCH  11  13
ENDBRANCH   1  11
BRANCH   6  16
ATOM     16  O   UNL     1       1.628   7.959  20.631  0.00  0.00    +0.000 OA
BRANCH  16  17
ATOM     17  C   UNL     1       0.949   9.098  20.089  0.00  0.00    +0.000 C 
BRANCH  17  18
ATOM     18  C   UNL     1       0.337   9.879  21.200  0.00  0.00    +0.000 A 
ATOM     19  C   UNL     1      -0.409  11.072  21.082  0.00  0.00    +0.000 A 
ATOM     20  C   UNL     1      -0.750  11.403  22.368  0.00  0.00    +0.000 A 
ATOM     21  O   UNL     1      -0.237  10.459  23.211  0.00  0.00    +0.000 OA
ATOM     22  N   UNL     1       0.444   9.497  22.478  0.00  0.00    +0.000 NA
BRANCH  20  23
ATOM     23  C   UNL     1      -1.535  12.480  22.959  0.00  0.00    +0.000 A 
ATOM     24  C   UNL     1      -2.815  12.211  23.470  0.00  0.00    +0.000 A 
ATOM     25  C   UNL     1      -3.556  13.205  24.115  0.00  0.00    +0.000 A 
ATOM     26  C   UNL     1      -3.023  14.483  24.246  0.00  0.00    +0.000 A 
ATOM     27 CL   UNL     1      -3.912  15.696  25.080  0.00  0.00    +0.000 Cl
ATOM     28  C   UNL     1      -1.769  14.780  23.716  0.00  0.00    +0.000 A 
ATOM     29  C   UNL     1      -1.030  13.782  23.073  0.00  0.00    +0.000 A 
ENDBRANCH  20  23
ENDBRANCH  17  18
ENDBRANCH  16  17
ENDBRANCH   6  16
TORSDOF 7
ENDMDL
MODEL 2
REMARK VINA RESULT:      -7.8      1.215      1.238
REMARK  Name = 
REMARK  7 active torsions:
REMARK  status: ('A' for Active; 'I' for Inactive)
REMARK    1  A    between atoms: C_2  and  O_3
REMARK    2  A    between atoms: C_2  and  C_4
REMARK    3  A    between atoms: C_4  and  C_5
REMARK    4  A    between atoms: C_10  and  O_11
REMARK    5  A    between atoms: O_11  and  C_12
REMARK    6  A    between atoms: C_12  and  C_13
REMARK    7  A    between atoms: C_15  and  C_16
REMARK                            x       y       z     vdW  Elec       q    Type
REMARK                         _______ _______ _______ _____ _____    ______ ____
ROOT
ATOM      1  C   UNL     1       4.588   4.205  17.887  0.00  0.00    +0.000 A 
ATOM      2  C   UNL     1       4.466   3.165  18.791  0.00  0.00    +0.000 A 
ATOM      3  S   UNL     1       3.410   3.511  20.070  0.00  0.00    +0.000 S 
ATOM      4  C   UNL     1       3.110   5.096  19.483  0.00  0.00    +0.000 A 
ATOM      5  C   UNL     1       2.248   6.037  20.082  0.00  0.00    +0.000 A 
ATOM      6  C   UNL     1       2.121   7.315  19.537  0.00  0.00    +0.000 A 
ATOM      7  C   UNL     1       2.838   7.657  18.408  0.00  0.00    +0.000 A 
ATOM      8  C   UNL     1       3.670   6.704  17.812  0.00  0.00    +0.000 A 
ATOM      9 CL   UNL     1       4.581   7.164  16.436  0.00  0.00    +0.000 Cl
ATOM     10  C   UNL     1       3.833   5.382  18.316  0.00  0.00    +0.000 A 
ENDROOT
BRANCH   1  11
ATOM     11  C   UNL     1       5.395   4.054  16.621  0.00  0.00    +0.000 C 
BRANCH  11  13
ATOM     12  O   UNL     1       7.371   5.179  15.858  0.00  0.00    +0.000 OA
ATOM     13  C   UNL     1       6.855   4.451  16.700  0.00  0.00    +0.000 C 
BRANCH  13  14
ATOM     14  O   UNL     1       7.582   3.933  17.709  0.00  0.00    +0.000 OA
ATOM     15  H   UNL     1       8.151   4.564  18.186  0.00  0.00    +0.000 HD
ENDBRANCH  13  14
ENDBRANCH  11  13
ENDBRANCH   1  11
BRANCH   6  16
ATOM     16  O   UNL     1       1.265   8.123  20.220  0.00  0.00    +0.000 OA
BRANCH  16  17
ATOM     17  C   UNL     1       1.532   8.394  21.601  0.00  0.00    +0.000 C 
BRANCH  17  18
ATOM     18  C   UNL     1       0.624   9.475  22.074  0.00  0.00    +0.000 A 
ATOM     19  C   UNL     1      -0.116  10.368  21.270  0.00  0.00    +0.000 A 
ATOM     20  C   UNL     1      -0.789  11.168  22.158  0.00  0.00    +0.000 A 
ATOM     21  O   UNL     1      -0.469  10.774  23.426  0.00  0.00    +0.000 OA
ATOM     22  N   UNL     1       0.416   9.706  23.376  0.00  0.00    +0.000 NA
BRANCH  20  23
ATOM     23  C   UNL     1      -1.743  12.260  22.011  0.00  0.00    +0.000 A 
ATOM     24  C   UNL     1      -2.913  12.274  22.789  0.00  0.00    +0.000 A 
ATOM     25  C   UNL     1      -3.804  13.348  22.728  0.00  0.00    +0.000 A 
ATOM     26  C   UNL     1      -3.536  14.417  21.879  0.00  0.00    +0.000 A 
ATOM     27 CL   UNL     1      -4.606  15.762  21.837  0.00  0.00    +0.000 Cl
ATOM     28  C   UNL     1      -2.399  14.407  21.074  0.00  0.00    +0.000 A 
ATOM     29  C   UNL     1      -1.509  13.331  21.138  0.00  0.00    +0.000 A 
ENDBRANCH  20  23
ENDBRANCH  17  18
ENDBRANCH  16  17
ENDBRANCH   6  16
TORSDOF 7
ENDMDL
MODEL 3
REMARK VINA RESULT:      -7.6      3.724      4.283
REMARK  Name = 
REMARK  7 active torsions:
REMARK  status: ('A' for Active; 'I' for Inactive)
REMARK    1  A    between atoms: C_2  and  O_3
REMARK    2  A    between atoms: C_2  and  C_4
REMARK    3  A    between atoms: C_4  and  C_5
REMARK    4  A    between atoms: C_10  and  O_11
REMARK    5  A    between atoms: O_11  and  C_12
REMARK    6  A    between atoms: C_12  and  C_13
REMARK    7  A    between atoms: C_15  and  C_16
REMARK                            x       y       z     vdW  Elec       q    Type
REMARK                         _______ _______ _______ _____ _____    ______ ____
ROOT
ATOM      1  C   UNL     1       4.276   4.328  18.253  0.00  0.00    +0.000 A 
ATOM      2  C   UNL     1       4.954   4.705  17.107  0.00  0.00    +0.000 A 
ATOM      3  S   UNL     1       4.692   6.322  16.677  0.00  0.00    +0.000 S 
ATOM      4  C   UNL     1       3.614   6.568  17.989  0.00  0.00    +0.000 A 
ATOM      5  C   UNL     1       2.962   7.781  18.293  0.00  0.00    +0.000 A 
ATOM      6  C   UNL     1       2.068   7.846  19.363  0.00  0.00    +0.000 A 
ATOM      7  C   UNL     1       1.826   6.722  20.126  0.00  0.00    +0.000 A 
ATOM      8  C   UNL     1       2.499   5.533  19.827  0.00  0.00    +0.000 A 
ATOM      9 CL   UNL     1       2.149   4.142  20.763  0.00  0.00    +0.000 Cl
ATOM     10  C   UNL     1       3.428   5.408  18.756  0.00  0.00    +0.000 A 
ENDROOT
BRANCH   1  11
ATOM     11  C   UNL     1       4.465   2.960  18.863  0.00  0.00    +0.000 C 
BRANCH  11  13
ATOM     12  O   UNL     1       2.491   2.088  17.816  0.00  0.00    +0.000 OA
ATOM     13  C   UNL     1       3.583   1.853  18.324  0.00  0.00    +0.000 C 
BRANCH  13  14
ATOM     14  O   UNL     1       4.025   0.588  18.464  0.00  0.00    +0.000 OA
ATOM     15  H   UNL     1       3.696  -0.049  17.804  0.00  0.00    +0.000 HD
ENDBRANCH  13  14
ENDBRANCH  11  13
ENDBRANCH   1  11
BRANCH   6  16
ATOM     16  O   UNL     1       1.505   9.072  19.536  0.00  0.00    +0.000 OA
BRANCH  16  17
ATOM     17  C   UNL     1       1.501   9.987  18.434  0.00  0.00    +0.000 C 
BRANCH  17  18
ATOM     18  C   UNL     1       0.291  10.851  18.516  0.00  0.00    +0.000 A 
ATOM     19  C   UNL     1      -1.054  10.422  18.504  0.00  0.00    +0.000 A 
ATOM     20  C   UNL     1      -1.792  11.575  18.597  0.00  0.00    +0.000 A 
ATOM     21  O   UNL     1      -0.935  12.635  18.661  0.00  0.00    +0.000 OA
ATOM     22  N   UNL     1       0.376  12.182  18.614  0.00  0.00    +0.000 NA
BRANCH  20  23
ATOM     23  C   UNL     1      -3.220  11.856  18.672  0.00  0.00    +0.000 A 
ATOM     24  C   UNL     1      -4.060  11.490  17.606  0.00  0.00    +0.000 A 
ATOM     25  C   UNL     1      -5.442  11.673  17.685  0.00  0.00    +0.000 A 
ATOM     26  C   UNL     1      -5.998  12.233  18.830  0.00  0.00    +0.000 A 
ATOM     27 CL   UNL     1      -7.704  12.415  18.950  0.00  0.00    +0.000 Cl
ATOM     28  C   UNL     1      -5.180  12.634  19.885  0.00  0.00    +0.000 A 
ATOM     29  C   UNL     1      -3.797  12.448  19.803  0.00  0.00    +0.000 A 
ENDBRANCH  20  23
ENDBRANCH  17  18
ENDBRANCH  16  17
ENDBRANCH   6  16
TORSDOF 7
ENDMDL
MODEL 4
REMARK VINA RESULT:      -7.6      0.829      1.031
REMARK  Name = 
REMARK  7 active torsions:
REMARK  status: ('A' for Active; 'I' for Inactive)
REMARK    1  A    between atoms: C_2  and  O_3
REMARK    2  A    between atoms: C_2  and  C_4
REMARK    3  A    between atoms: C_4  and  C_5
REMARK    4  A    between atoms: C_10  and  O_11
REMARK    5  A    between atoms: O_11  and  C_12
REMARK    6  A    between atoms: C_12  and  C_13
REMARK    7  A    between atoms: C_15  and  C_16
REMARK                            x       y       z     vdW  Elec       q    Type
REMARK                         _______ _______ _______ _____ _____    ______ ____
ROOT
ATOM      1  C   UNL     1       4.280   4.005  17.701  0.00  0.00    +0.000 A 
ATOM      2  C   UNL     1       4.071   2.937  18.554  0.00  0.00    +0.000 A 
ATOM      3  S   UNL     1       3.099   3.324  19.887  0.00  0.00    +0.000 S 
ATOM      4  C   UNL     1       2.960   4.963  19.395  0.00  0.00    +0.000 A 
ATOM      5  C   UNL     1       2.227   5.959  20.072  0.00  0.00    +0.000 A 
ATOM      6  C   UNL     1       2.228   7.272  19.599  0.00  0.00    +0.000 A 
ATOM      7  C   UNL     1       2.943   7.594  18.463  0.00  0.00    +0.000 A 
ATOM      8  C   UNL     1       3.645   6.590  17.789  0.00  0.00    +0.000 A 
ATOM      9 CL   UNL     1       4.559   7.023  16.407  0.00  0.00    +0.000 Cl
ATOM     10  C   UNL     1       3.675   5.233  18.217  0.00  0.00    +0.000 A 
ENDROOT
BRANCH   1  11
ATOM     11  C   UNL     1       5.026   3.837  16.400  0.00  0.00    +0.000 C 
BRANCH  11  13
ATOM     12  O   UNL     1       7.105   4.430  17.439  0.00  0.00    +0.000 OA
ATOM     13  C   UNL     1       6.480   4.261  16.396  0.00  0.00    +0.000 C 
BRANCH  13  14
ATOM     14  O   UNL     1       7.053   4.493  15.199  0.00  0.00    +0.000 OA
ATOM     15  H   UNL     1       6.938   3.790  14.534  0.00  0.00    +0.000 HD
ENDBRANCH  13  14
ENDBRANCH  11  13
ENDBRANCH   1  11
BRANCH   6  16
ATOM     16  O   UNL     1       1.489   8.130  20.353  0.00  0.00    +0.000 OA
BRANCH  16  17
ATOM     17  C   UNL     1       1.155   9.410  19.807  0.00  0.00    +0.000 C 
BRANCH  17  18
ATOM     18  C   UNL     1       0.396  10.195  20.820  0.00  0.00    +0.000 A 
ATOM     19  C   UNL     1      -0.750  10.986  20.589  0.00  0.00    +0.000 A 
ATOM     20  C   UNL     1      -1.075  11.503  21.818  0.00  0.00    +0.000 A 
ATOM     21  O   UNL     1      -0.172  11.045  22.734  0.00  0.00    +0.000 OA
ATOM     22  N   UNL     1       0.753  10.219  22.109  0.00  0.00    +0.000 NA
BRANCH  20  23
ATOM     23  C   UNL     1      -2.150  12.360  22.300  0.00  0.00    +0.000 A 
ATOM     24  C   UNL     1      -2.826  12.031  23.487  0.00  0.00    +0.000 A 
ATOM     25  C   UNL     1      -3.805  12.876  24.015  0.00  0.00    +0.000 A 
ATOM     26  C   UNL     1      -4.122  14.058  23.354  0.00  0.00    +0.000 A 
ATOM     27 CL   UNL     1      -5.292  15.124  24.027  0.00  0.00    +0.000 Cl
ATOM     28  C   UNL     1      -3.488  14.387  22.158  0.00  0.00    +0.000 A 
ATOM     29  C   UNL     1      -2.509  13.539  21.632  0.00  0.00    +0.000 A 
ENDBRANCH  20  23
ENDBRANCH  17  18
ENDBRANCH  16  17
ENDBRANCH   6  16
TORSDOF 7
ENDMDL
MODEL 5
REMARK VINA RESULT:      -7.6      3.909      4.490
REMARK  Name = 
REMARK  7 active torsions:
REMARK  status: ('A' for Active; 'I' for Inactive)
REMARK    1  A    between atoms: C_2  and  O_3
REMARK    2  A    between atoms: C_2  and  C_4
REMARK    3  A    between atoms: C_4  and  C_5
REMARK    4  A    between atoms: C_10  and  O_11
REMARK    5  A    between atoms: O_11  and  C_12
REMARK    6  A    between atoms: C_12  and  C_13
REMARK    7  A    between atoms: C_15  and  C_16
REMARK                            x       y       z     vdW  Elec       q    Type
REMARK                         _______ _______ _______ _____ _____    ______ ____
ROOT
ATOM      1  C   UNL     1       4.020   4.556  18.381  0.00  0.00    +0.000 A 
ATOM      2  C   UNL     1       4.622   5.033  17.231  0.00  0.00    +0.000 A 
ATOM      3  S   UNL     1       4.269   6.660  16.916  0.00  0.00    +0.000 S 
ATOM      4  C   UNL     1       3.247   6.775  18.290  0.00  0.00    +0.000 A 
ATOM      5  C   UNL     1       2.559   7.935  18.700  0.00  0.00    +0.000 A 
ATOM      6  C   UNL     1       1.717   7.892  19.812  0.00  0.00    +0.000 A 
ATOM      7  C   UNL     1       1.562   6.714  20.514  0.00  0.00    +0.000 A 
ATOM      8  C   UNL     1       2.271   5.579  20.109  0.00  0.00    +0.000 A 
ATOM      9 CL   UNL     1       2.030   4.118  20.971  0.00  0.00    +0.000 Cl
ATOM     10  C   UNL     1       3.150   5.562  18.990  0.00  0.00    +0.000 A 
ENDROOT
BRANCH   1  11
ATOM     11  C   UNL     1       4.298   3.164  18.894  0.00  0.00    +0.000 C 
BRANCH  11  13
ATOM     12  O   UNL     1       2.499   2.245  17.602  0.00  0.00    +0.000 OA
ATOM     13  C   UNL     1       3.526   2.037  18.242  0.00  0.00    +0.000 C 
BRANCH  13  14
ATOM     14  O   UNL     1       3.984   0.784  18.429  0.00  0.00    +0.000 OA
ATOM     15  H   UNL     1       3.305   0.086  18.455  0.00  0.00    +0.000 HD
ENDBRANCH  13  14
ENDBRANCH  11  13
ENDBRANCH   1  11
BRANCH   6  16
ATOM     16  O   UNL     1       1.109   9.078  20.088  0.00  0.00    +0.000 OA
BRANCH  16  17
ATOM     17  C   UNL     1       1.107  10.098  19.083  0.00  0.00    +0.000 C 
BRANCH  17  18
ATOM     18  C   UNL     1      -0.284  10.300  18.590  0.00  0.00    +0.000 A 
ATOM     19  C   UNL     1      -1.264  11.146  19.153  0.00  0.00    +0.000 A 
ATOM     20  C   UNL     1      -2.368  10.987  18.355  0.00  0.00    +0.000 A 
ATOM     21  O   UNL     1      -2.064  10.094  17.367  0.00  0.00    +0.000 OA
ATOM     22  N   UNL     1      -0.752   9.663  17.511  0.00  0.00    +0.000 NA
BRANCH  20  23
ATOM     23  C   UNL     1      -3.699  11.579  18.343  0.00  0.00    +0.000 A 
ATOM     24  C   UNL     1      -4.189  12.217  19.495  0.00  0.00    +0.000 A 
ATOM     25  C   UNL     1      -5.427  12.863  19.488  0.00  0.00    +0.000 A 
ATOM     26  C   UNL     1      -6.193  12.870  18.326  0.00  0.00    +0.000 A 
ATOM     27 CL   UNL     1      -7.695  13.706  18.300  0.00  0.00    +0.000 Cl
ATOM     28  C   UNL     1      -5.741  12.214  17.183  0.00  0.00    +0.000 A 
ATOM     29  C   UNL     1      -4.501  11.569  17.194  0.00  0.00    +0.000 A 
ENDBRANCH  20  23
ENDBRANCH  17  18
ENDBRANCH  16  17
ENDBRANCH   6  16
TORSDOF 7
ENDMDL
MODEL 6
REMARK VINA RESULT:      -7.6      4.680     10.606
REMARK  Name = 
REMARK  7 active torsions:
REMARK  status: ('A' for Active; 'I' for Inactive)
REMARK    1  A    between atoms: C_2  and  O_3
REMARK    2  A    between atoms: C_2  and  C_4
REMARK    3  A    between atoms: C_4  and  C_5
REMARK    4  A    between atoms: C_10  and  O_11
REMARK    5  A    between atoms: O_11  and  C_12
REMARK    6  A    between atoms: C_12  and  C_13
REMARK    7  A    between atoms: C_15  and  C_16
REMARK                            x       y       z     vdW  Elec       q    Type
REMARK                         _______ _______ _______ _____ _____    ______ ____
ROOT
ATOM      1  C   UNL     1      -4.650  11.720  17.145  0.00  0.00    +0.000 A 
ATOM      2  C   UNL     1      -4.445  11.061  15.946  0.00  0.00    +0.000 A 
ATOM      3  S   UNL     1      -2.995  10.186  15.903  0.00  0.00    +0.000 S 
ATOM      4  C   UNL     1      -2.558  10.701  17.481  0.00  0.00    +0.000 A 
ATOM      5  C   UNL     1      -1.383  10.327  18.165  0.00  0.00    +0.000 A 
ATOM      6  C   UNL     1      -1.114  10.850  19.430  0.00  0.00    +0.000 A 
ATOM      7  C   UNL     1      -2.002  11.730  20.015  0.00  0.00    +0.000 A 
ATOM      8  C   UNL     1      -3.175  12.071  19.334  0.00  0.00    +0.000 A 
ATOM      9 CL   UNL     1      -4.240  13.197  20.062  0.00  0.00    +0.000 Cl
ATOM     10  C   UNL     1      -3.508  11.564  18.047  0.00  0.00    +0.000 A 
ENDROOT
BRANCH   1  11
ATOM     11  C   UNL     1      -5.933  12.463  17.423  0.00  0.00    +0.000 C 
BRANCH  11  13
ATOM     12  O   UNL     1      -7.584  12.435  19.162  0.00  0.00    +0.000 OA
ATOM     13  C   UNL     1      -6.912  11.791  18.363  0.00  0.00    +0.000 C 
BRANCH  13  14
ATOM     14  O   UNL     1      -6.985  10.446  18.321  0.00  0.00    +0.000 OA
ATOM     15  H   UNL     1      -7.313  10.016  19.131  0.00  0.00    +0.000 HD
ENDBRANCH  13  14
ENDBRANCH  11  13
ENDBRANCH   1  11
BRANCH   6  16
ATOM     16  O   UNL     1       0.057  10.414  19.969  0.00  0.00    +0.000 OA
BRANCH  16  17
ATOM     17  C   UNL     1       1.280  10.718  19.288  0.00  0.00    +0.000 C 
BRANCH  17  18
ATOM     18  C   UNL     1       1.809   9.480  18.650  0.00  0.00    +0.000 A 
ATOM     19  C   UNL     1       1.825   8.184  19.209  0.00  0.00    +0.000 A 
ATOM     20  C   UNL     1       2.407   7.394  18.250  0.00  0.00    +0.000 A 
ATOM     21  O   UNL     1       2.722   8.176  17.176  0.00  0.00    +0.000 OA
ATOM     22  N   UNL     1       2.342   9.488  17.423  0.00  0.00    +0.000 NA
BRANCH  20  23
ATOM     23  C   UNL     1       2.699   5.969  18.157  0.00  0.00    +0.000 A 
ATOM     24  C   UNL     1       4.008   5.509  18.382  0.00  0.00    +0.000 A 
ATOM     25  C   UNL     1       4.300   4.143  18.379  0.00  0.00    +0.000 A 
ATOM     26  C   UNL     1       3.284   3.223  18.142  0.00  0.00    +0.000 A 
ATOM     27 CL   UNL     1       3.630   1.539  18.185  0.00  0.00    +0.000 Cl
ATOM     28  C   UNL     1       1.986   3.660  17.882  0.00  0.00    +0.000 A 
ATOM     29  C   UNL     1       1.697   5.028  17.887  0.00  0.00    +0.000 A 
ENDBRANCH  20  23
ENDBRANCH  17  18
ENDBRANCH  16  17
ENDBRANCH   6  16
TORSDOF 7
ENDMDL
MODEL 7
REMARK VINA RESULT:      -7.6      1.446      1.602
REMARK  Name = 
REMARK  7 active torsions:
REMARK  status: ('A' for Active; 'I' for Inactive)
REMARK    1  A    between atoms: C_2  and  O_3
REMARK    2  A    between atoms: C_2  and  C_4
REMARK    3  A    between atoms: C_4  and  C_5
REMARK    4  A    between atoms: C_10  and  O_11
REMARK    5  A    between atoms: O_11  and  C_12
REMARK    6  A    between atoms: C_12  and  C_13
REMARK    7  A    between atoms: C_15  and  C_16
REMARK                            x       y       z     vdW  Elec       q    Type
REMARK                         _______ _______ _______ _____ _____    ______ ____
ROOT
ATOM      1  C   UNL     1       4.580   4.295  17.891  0.00  0.00    +0.000 A 
ATOM      2  C   UNL     1       4.299   3.396  18.904  0.00  0.00    +0.000 A 
ATOM      3  S   UNL     1       3.188   3.989  20.036  0.00  0.00    +0.000 S 
ATOM      4  C   UNL     1       3.077   5.503  19.236  0.00  0.00    +0.000 A 
ATOM      5  C   UNL     1       2.263   6.581  19.639  0.00  0.00    +0.000 A 
ATOM      6  C   UNL     1       2.293   7.783  18.932  0.00  0.00    +0.000 A 
ATOM      7  C   UNL     1       3.118   7.916  17.833  0.00  0.00    +0.000 A 
ATOM      8  C   UNL     1       3.902   6.829  17.432  0.00  0.00    +0.000 A 
ATOM      9 CL   UNL     1       4.948   7.031  16.091  0.00  0.00    +0.000 Cl
ATOM     10  C   UNL     1       3.907   5.576  18.106  0.00  0.00    +0.000 A 
ENDROOT
BRANCH   1  11
ATOM     11  C   UNL     1       5.461   3.916  16.725  0.00  0.00    +0.000 C 
BRANCH  11  13
ATOM     12  O   UNL     1       7.524   4.355  17.867  0.00  0.00    +0.000 OA
ATOM     13  C   UNL     1       6.909   4.350  16.805  0.00  0.00    +0.000 C 
BRANCH  13  14
ATOM     14  O   UNL     1       7.489   4.779  15.667  0.00  0.00    +0.000 OA
ATOM     15  H   UNL     1       7.064   4.486  14.840  0.00  0.00    +0.000 HD
ENDBRANCH  13  14
ENDBRANCH  11  13
ENDBRANCH   1  11
BRANCH   6  16
ATOM     16  O   UNL     1       1.467   8.740  19.435  0.00  0.00    +0.000 OA
BRANCH  16  17
ATOM     17  C   UNL     1       0.875   9.680  18.531  0.00  0.00    +0.000 C 
BRANCH  17  18
ATOM     18  C   UNL     1      -0.092  10.535  19.275  0.00  0.00    +0.000 A 
ATOM     19  C   UNL     1       0.094  11.103  20.554  0.00  0.00    +0.000 A 
ATOM     20  C   UNL     1      -1.065  11.794  20.804  0.00  0.00    +0.000 A 
ATOM     21  O   UNL     1      -1.898  11.648  19.733  0.00  0.00    +0.000 OA
ATOM     22  N   UNL     1      -1.287  10.859  18.767  0.00  0.00    +0.000 NA
BRANCH  20  23
ATOM     23  C   UNL     1      -1.525  12.626  21.908  0.00  0.00    +0.000 A 
ATOM     24  C   UNL     1      -2.804  12.420  22.452  0.00  0.00    +0.000 A 
ATOM     25  C   UNL     1      -3.239  13.147  23.562  0.00  0.00    +0.000 A 
ATOM     26  C   UNL     1      -2.399  14.096  24.135  0.00  0.00    +0.000 A 
ATOM     27 CL   UNL     1      -2.914  14.959  25.530  0.00  0.00    +0.000 Cl
ATOM     28  C   UNL     1      -1.140  14.341  23.591  0.00  0.00    +0.000 A 
ATOM     29  C   UNL     1      -0.707  13.610  22.480  0.00  0.00    +0.000 A 
ENDBRANCH  20  23
ENDBRANCH  17  18
ENDBRANCH  16  17
ENDBRANCH   6  16
TORSDOF 7
ENDMDL
MODEL 8
REMARK VINA RESULT:      -7.5      3.415      3.935
REMARK  Name = 
REMARK  7 active torsions:
REMARK  status: ('A' for Active; 'I' for Inactive)
REMARK    1  A    between atoms: C_2  and  O_3
REMARK    2  A    between atoms: C_2  and  C_4
REMARK    3  A    between atoms: C_4  and  C_5
REMARK    4  A    between atoms: C_10  and  O_11
REMARK    5  A    between atoms: O_11  and  C_12
REMARK    6  A    between atoms: C_12  and  C_13
REMARK    7  A    between atoms: C_15  and  C_16
REMARK                            x       y       z     vdW  Elec       q    Type
REMARK                         _______ _______ _______ _____ _____    ______ ____
ROOT
ATOM      1  C   UNL     1       5.099   4.164  16.876  0.00  0.00    +0.000 A 
ATOM      2  C   UNL     1       4.297   3.048  17.035  0.00  0.00    +0.000 A 
ATOM      3  S   UNL     1       2.731   3.421  17.564  0.00  0.00    +0.000 S 
ATOM      4  C   UNL     1       3.085   5.098  17.649  0.00  0.00    +0.000 A 
ATOM      5  C   UNL     1       2.177   6.105  18.034  0.00  0.00    +0.000 A 
ATOM      6  C   UNL     1       2.597   7.434  18.111  0.00  0.00    +0.000 A 
ATOM      7  C   UNL     1       3.901   7.763  17.804  0.00  0.00    +0.000 A 
ATOM      8  C   UNL     1       4.783   6.756  17.399  0.00  0.00    +0.000 A 
ATOM      9 CL   UNL     1       6.408   7.182  17.064  0.00  0.00    +0.000 Cl
ATOM     10  C   UNL     1       4.412   5.385  17.294  0.00  0.00    +0.000 A 
ENDROOT
BRANCH   1  11
ATOM     11  C   UNL     1       6.493   4.054  16.306  0.00  0.00    +0.000 C 
BRANCH  11  13
ATOM     12  O   UNL     1       7.461   5.333  14.524  0.00  0.00    +0.000 OA
ATOM     13  C   UNL     1       6.664   4.462  14.858  0.00  0.00    +0.000 C 
BRANCH  13  14
ATOM     14  O   UNL     1       5.871   3.863  13.949  0.00  0.00    +0.000 OA
ATOM     15  H   UNL     1       6.095   2.938  13.738  0.00  0.00    +0.000 HD
ENDBRANCH  13  14
ENDBRANCH  11  13
ENDBRANCH   1  11
BRANCH   6  16
ATOM     16  O   UNL     1       1.622   8.297  18.505  0.00  0.00    +0.000 OA
BRANCH  16  17
ATOM     17  C   UNL     1       1.726   9.672  18.117  0.00  0.00    +0.000 C 
BRANCH  17  18
ATOM     18  C   UNL     1       0.453  10.373  18.444  0.00  0.00    +0.000 A 
ATOM     19  C   UNL     1      -0.782  10.237  17.772  0.00  0.00    +0.000 A 
ATOM     20  C   UNL     1      -1.638  11.079  18.436  0.00  0.00    +0.000 A 
ATOM     21  O   UNL     1      -0.953  11.684  19.450  0.00  0.00    +0.000 OA
ATOM     22  N   UNL     1       0.362  11.239  19.460  0.00  0.00    +0.000 NA
BRANCH  20  23
ATOM     23  C   UNL     1      -3.053  11.397  18.292  0.00  0.00    +0.000 A 
ATOM     24  C   UNL     1      -3.734  12.037  19.342  0.00  0.00    +0.000 A 
ATOM     25  C   UNL     1      -5.068  12.426  19.201  0.00  0.00    +0.000 A 
ATOM     26  C   UNL     1      -5.737  12.171  18.009  0.00  0.00    +0.000 A 
ATOM     27 CL   UNL     1      -7.364  12.692  17.815  0.00  0.00    +0.000 Cl
ATOM     28  C   UNL     1      -5.091  11.507  16.968  0.00  0.00    +0.000 A 
ATOM     29  C   UNL     1      -3.755  11.119  17.112  0.00  0.00    +0.000 A 
ENDBRANCH  20  23
ENDBRANCH  17  18
ENDBRANCH  16  17
ENDBRANCH   6  16
TORSDOF 7
ENDMDL
MODEL 9
REMARK VINA RESULT:      -7.5      4.342     10.662
REMARK  Name = 
REMARK  7 active torsions:
REMARK  status: ('A' for Active; 'I' for Inactive)
REMARK    1  A    between atoms: C_2  and  O_3
REMARK    2  A    between atoms: C_2  and  C_4
REMARK    3  A    between atoms: C_4  and  C_5
REMARK    4  A    between atoms: C_10  and  O_11
REMARK    5  A    between atoms: O_11  and  C_12
REMARK    6  A    between atoms: C_12  and  C_13
REMARK    7  A    between atoms: C_15  and  C_16
REMARK                            x       y       z     vdW  Elec       q    Type
REMARK                         _______ _______ _______ _____ _____    ______ ____
ROOT
ATOM      1  C   UNL     1      -3.848  12.094  18.895  0.00  0.00    +0.000 A 
ATOM      2  C   UNL     1      -4.066  12.845  20.036  0.00  0.00    +0.000 A 
ATOM      3  S   UNL     1      -2.782  12.776  21.138  0.00  0.00    +0.000 S 
ATOM      4  C   UNL     1      -1.899  11.689  20.145  0.00  0.00    +0.000 A 
ATOM      5  C   UNL     1      -0.624  11.165  20.443  0.00  0.00    +0.000 A 
ATOM      6  C   UNL     1      -0.025  10.250  19.577  0.00  0.00    +0.000 A 
ATOM      7  C   UNL     1      -0.679   9.861  18.425  0.00  0.00    +0.000 A 
ATOM      8  C   UNL     1      -1.932  10.410  18.132  0.00  0.00    +0.000 A 
ATOM      9 CL   UNL     1      -2.742   9.881  16.718  0.00  0.00    +0.000 Cl
ATOM     10  C   UNL     1      -2.589  11.353  18.971  0.00  0.00    +0.000 A 
ENDROOT
BRANCH   1  11
ATOM     11  C   UNL     1      -4.824  12.113  17.743  0.00  0.00    +0.000 C 
BRANCH  11  13
ATOM     12  O   UNL     1      -6.260  10.405  18.623  0.00  0.00    +0.000 OA
ATOM     13  C   UNL     1      -6.163  11.448  17.983  0.00  0.00    +0.000 C 
BRANCH  13  14
ATOM     14  O   UNL     1      -7.247  12.022  17.425  0.00  0.00    +0.000 OA
ATOM     15  H   UNL     1      -7.114  12.398  16.536  0.00  0.00    +0.000 HD
ENDBRANCH  13  14
ENDBRANCH  11  13
ENDBRANCH   1  11
BRANCH   6  16
ATOM     16  O   UNL     1       1.197   9.818  19.991  0.00  0.00    +0.000 OA
BRANCH  16  17
ATOM     17  C   UNL     1       1.266   8.665  20.838  0.00  0.00    +0.000 C 
BRANCH  17  18
ATOM     18  C   UNL     1       1.916   7.549  20.096  0.00  0.00    +0.000 A 
ATOM     19  C   UNL     1       2.611   7.642  18.871  0.00  0.00    +0.000 A 
ATOM     20  C   UNL     1       3.017   6.360  18.598  0.00  0.00    +0.000 A 
ATOM     21  O   UNL     1       2.589   5.545  19.606  0.00  0.00    +0.000 OA
ATOM     22  N   UNL     1       1.899   6.291  20.552  0.00  0.00    +0.000 NA
BRANCH  20  23
ATOM     23  C   UNL     1       3.798   5.755  17.526  0.00  0.00    +0.000 A 
ATOM     24  C   UNL     1       4.579   6.569  16.687  0.00  0.00    +0.000 A 
ATOM     25  C   UNL     1       5.399   6.009  15.704  0.00  0.00    +0.000 A 
ATOM     26  C   UNL     1       5.439   4.628  15.546  0.00  0.00    +0.000 A 
ATOM     27 CL   UNL     1       6.483   3.934  14.369  0.00  0.00    +0.000 Cl
ATOM     28  C   UNL     1       4.646   3.805  16.344  0.00  0.00    +0.000 A 
ATOM     29  C   UNL     1       3.827   4.369  17.328  0.00  0.00    +0.000 A 
ENDBRANCH  20  23
ENDBRANCH  17  18
ENDBRANCH  16  17
ENDBRANCH   6  16
TORSDOF 7
ENDMDL
