MODEL 1
REMARK VINA RESULT:      -9.6      0.000      0.000
REMARK  Name = 
REMARK  14 active torsions:
REMARK  status: ('A' for Active; 'I' for Inactive)
REMARK    1  A    between atoms: C_1  and  C_2
REMARK    2  A    between atoms: N_4  and  C_5
REMARK    3  A    between atoms: C_5  and  C_6
REMARK    4  A    between atoms: C_5  and  C_15
REMARK    5  A    between atoms: C_6  and  C_7
REMARK    6  A    between atoms: C_15  and  O_16
REMARK    7  A    between atoms: C_15  and  C_17
REMARK    8  A    between atoms: C_17  and  N_18
REMARK    9  A    between atoms: N_18  and  C_19
REMARK   10  A    between atoms: C_19  and  C_20
REMARK   11  A    between atoms: C_24  and  C_25
REMARK   12  A    between atoms: C_25  and  C_26
REMARK   13  A    between atoms: C_25  and  C_27
REMARK   14  A    between atoms: C_25  and  C_28
REMARK                            x       y       z     vdW  Elec       q    Type
REMARK                         _______ _______ _______ _____ _____    ______ ____
ROOT
ATOM      1  C   UNL     1       4.783   5.541  19.256  0.00  0.00    +0.000 C 
ENDROOT
BRANCH   1   2
ATOM      2  N   UNL     1       3.712   4.801  19.937  0.00  0.00    +0.000 NA
ATOM      3  H   UNL     1       3.726   4.967  20.943  0.00  0.00    +0.000 HD
BRANCH   2   4
ATOM      4  C   UNL     1       2.325   5.023  19.443  0.00  0.00    +0.000 C 
ATOM      5  C   UNL     1       1.258   4.309  20.346  0.00  0.00    +0.000 C 
ATOM      6  C   UNL     1       1.387   2.787  20.373  0.00  0.00    +0.000 C 
ATOM      7  C   UNL     1       1.328   2.221  18.960  0.00  0.00    +0.000 C 
ATOM      8  N   UNL     1       2.377   2.810  18.132  0.00  0.00    +0.000 NA
ATOM      9  C   UNL     1       2.227   4.284  18.046  0.00  0.00    +0.000 C 
ATOM     10  H   UNL     1       2.316   2.423  17.191  0.00  0.00    +0.000 HD
BRANCH   4  11
ATOM     11  C   UNL     1       2.025   6.536  19.239  0.00  0.00    +0.000 A 
ATOM     12  C   UNL     1       2.269   7.170  18.010  0.00  0.00    +0.000 A 
ATOM     13  C   UNL     1       2.066   8.537  17.843  0.00  0.00    +0.000 A 
ATOM     14  C   UNL     1       1.607   9.314  18.901  0.00  0.00    +0.000 A 
ATOM     15  C   UNL     1       1.331   8.749  20.154  0.00  0.00    +0.000 A 
ATOM     16  C   UNL     1       1.522   7.347  20.290  0.00  0.00    +0.000 A 
BRANCH  15  17
ATOM     17  C   UNL     1       0.801   9.645  21.298  0.00  0.00    +0.000 C 
ATOM     18  C   UNL     1       1.582   9.313  22.585  0.00  0.00    +0.000 C 
ATOM     19  C   UNL     1       0.945  11.149  20.988  0.00  0.00    +0.000 C 
ATOM     20  C   UNL     1      -0.705   9.417  21.598  0.00  0.00    +0.000 C 
ENDBRANCH  15  17
ENDBRANCH   4  11
ENDBRANCH   2   4
ENDBRANCH   1   2
BRANCH   1  21
ATOM     21  C   UNL     1       5.918   4.625  18.701  0.00  0.00    +0.000 C 
BRANCH  21  22
ATOM     22  O   UNL     1       5.470   3.259  18.722  0.00  0.00    +0.000 OA
ATOM     23  H   UNL     1       5.818   2.803  17.928  0.00  0.00    +0.000 HD
ENDBRANCH  21  22
BRANCH  21  24
ATOM     24  C   UNL     1       6.369   5.031  17.257  0.00  0.00    +0.000 C 
BRANCH  24  28
ATOM     25  C   UNL     1       7.804   8.542  17.715  0.00  0.00    +0.000 C 
ATOM     26  C   UNL     1       7.640   7.064  17.963  0.00  0.00    +0.000 C 
ATOM     27  O   UNL     1       8.295   6.453  18.801  0.00  0.00    +0.000 OA
ATOM     28  N   UNL     1       6.698   6.466  17.163  0.00  0.00    +0.000 N 
ATOM     29  H   UNL     1       6.036   7.070  16.690  0.00  0.00    +0.000 HD
ENDBRANCH  24  28
BRANCH  24  30
ATOM     30  C   UNL     1       5.405   4.640  16.110  0.00  0.00    +0.000 C 
BRANCH  30  31
ATOM     31  C   UNL     1       6.016   4.478  14.733  0.00  0.00    +0.000 A 
ATOM     32  C   UNL     1       5.432   3.604  13.801  0.00  0.00    +0.000 A 
ATOM     33  C   UNL     1       5.981   3.459  12.527  0.00  0.00    +0.000 A 
ATOM     34  F   UNL     1       5.414   2.612  11.659  0.00  0.00    +0.000 F 
ATOM     35  C   UNL     1       7.108   4.173  12.148  0.00  0.00    +0.000 A 
ATOM     36  C   UNL     1       7.681   5.042  13.063  0.00  0.00    +0.000 A 
ATOM     37  F   UNL     1       8.761   5.749  12.710  0.00  0.00    +0.000 F 
ATOM     38  C   UNL     1       7.150   5.200  14.345  0.00  0.00    +0.000 A 
ENDBRANCH  30  31
ENDBRANCH  24  30
ENDBRANCH  21  24
ENDBRANCH   1  21
TORSDOF 10
ENDMDL
MODEL 2
REMARK VINA RESULT:      -9.2      0.832      1.006
REMARK  Name = 
REMARK  14 active torsions:
REMARK  status: ('A' for Active; 'I' for Inactive)
REMARK    1  A    between atoms: C_1  and  C_2
REMARK    2  A    between atoms: N_4  and  C_5
REMARK    3  A    between atoms: C_5  and  C_6
REMARK    4  A    between atoms: C_5  and  C_15
REMARK    5  A    between atoms: C_6  and  C_7
REMARK    6  A    between atoms: C_15  and  O_16
REMARK    7  A    between atoms: C_15  and  C_17
REMARK    8  A    between atoms: C_17  and  N_18
REMARK    9  A    between atoms: N_18  and  C_19
REMARK   10  A    between atoms: C_19  and  C_20
REMARK   11  A    between atoms: C_24  and  C_25
REMARK   12  A    between atoms: C_25  and  C_26
REMARK   13  A    between atoms: C_25  and  C_27
REMARK   14  A    between atoms: C_25  and  C_28
REMARK                            x       y       z     vdW  Elec       q    Type
REMARK                         _______ _______ _______ _____ _____    ______ ____
ROOT
ATOM      1  C   UNL     1       4.842   4.713  18.981  0.00  0.00    +0.000 C 
ENDROOT
BRANCH   1   2
ATOM      2  N   UNL     1       3.902   5.191  20.004  0.00  0.00    +0.000 NA
ATOM      3  H   UNL     1       4.231   6.053  20.439  0.00  0.00    +0.000 HD
BRANCH   2   4
ATOM      4  C   UNL     1       2.489   5.390  19.576  0.00  0.00    +0.000 C 
ATOM      5  C   UNL     1       1.470   4.889  20.660  0.00  0.00    +0.000 C 
ATOM      6  C   UNL     1       1.550   3.388  20.938  0.00  0.00    +0.000 C 
ATOM      7  C   UNL     1       1.366   2.596  19.651  0.00  0.00    +0.000 C 
ATOM      8  N   UNL     1       2.368   2.987  18.664  0.00  0.00    +0.000 NA
ATOM      9  C   UNL     1       2.262   4.431  18.336  0.00  0.00    +0.000 C 
ATOM     10  H   UNL     1       2.223   2.450  17.809  0.00  0.00    +0.000 HD
BRANCH   4  11
ATOM     11  C   UNL     1       2.225   6.859  19.137  0.00  0.00    +0.000 A 
ATOM     12  C   UNL     1       2.796   7.386  17.966  0.00  0.00    +0.000 A 
ATOM     13  C   UNL     1       2.618   8.718  17.605  0.00  0.00    +0.000 A 
ATOM     14  C   UNL     1       1.858   9.566  18.403  0.00  0.00    +0.000 A 
ATOM     15  C   UNL     1       1.249   9.110  19.580  0.00  0.00    +0.000 A 
ATOM     16  C   UNL     1       1.426   7.740  19.912  0.00  0.00    +0.000 A 
BRANCH  15  17
ATOM     17  C   UNL     1       0.395  10.082  20.427  0.00  0.00    +0.000 C 
ATOM     18  C   UNL     1       1.218  11.357  20.693  0.00  0.00    +0.000 C 
ATOM     19  C   UNL     1      -0.930  10.464  19.735  0.00  0.00    +0.000 C 
ATOM     20  C   UNL     1      -0.005   9.491  21.807  0.00  0.00    +0.000 C 
ENDBRANCH  15  17
ENDBRANCH   4  11
ENDBRANCH   2   4
ENDBRANCH   1   2
BRANCH   1  21
ATOM     21  C   UNL     1       6.127   5.589  18.859  0.00  0.00    +0.000 C 
BRANCH  21  22
ATOM     22  O   UNL     1       7.213   4.924  19.527  0.00  0.00    +0.000 OA
ATOM     23  H   UNL     1       7.736   4.431  18.862  0.00  0.00    +0.000 HD
ENDBRANCH  21  22
BRANCH  21  24
ATOM     24  C   UNL     1       6.508   5.899  17.372  0.00  0.00    +0.000 C 
BRANCH  24  28
ATOM     25  C   UNL     1       7.965   9.427  17.530  0.00  0.00    +0.000 C 
ATOM     26  C   UNL     1       7.813   7.968  17.880  0.00  0.00    +0.000 C 
ATOM     27  O   UNL     1       8.511   7.409  18.721  0.00  0.00    +0.000 OA
ATOM     28  N   UNL     1       6.832   7.324  17.169  0.00  0.00    +0.000 N 
ATOM     29  H   UNL     1       6.147   7.898  16.692  0.00  0.00    +0.000 HD
ENDBRANCH  24  28
BRANCH  24  30
ATOM     30  C   UNL     1       5.489   5.438  16.300  0.00  0.00    +0.000 C 
BRANCH  30  31
ATOM     31  C   UNL     1       6.056   5.006  14.963  0.00  0.00    +0.000 A 
ATOM     32  C   UNL     1       5.356   4.088  14.163  0.00  0.00    +0.000 A 
ATOM     33  C   UNL     1       5.865   3.697  12.925  0.00  0.00    +0.000 A 
ATOM     34  F   UNL     1       5.185   2.812  12.185  0.00  0.00    +0.000 F 
ATOM     35  C   UNL     1       7.066   4.203  12.452  0.00  0.00    +0.000 A 
ATOM     36  C   UNL     1       7.755   5.116  13.236  0.00  0.00    +0.000 A 
ATOM     37  F   UNL     1       8.909   5.626  12.790  0.00  0.00    +0.000 F 
ATOM     38  C   UNL     1       7.266   5.520  14.480  0.00  0.00    +0.000 A 
ENDBRANCH  30  31
ENDBRANCH  24  30
ENDBRANCH  21  24
ENDBRANCH   1  21
TORSDOF 10
ENDMDL
MODEL 3
REMARK VINA RESULT:      -9.1      0.645      1.546
REMARK  Name = 
REMARK  14 active torsions:
REMARK  status: ('A' for Active; 'I' for Inactive)
REMARK    1  A    between atoms: C_1  and  C_2
REMARK    2  A    between atoms: N_4  and  C_5
REMARK    3  A    between atoms: C_5  and  C_6
REMARK    4  A    between atoms: C_5  and  C_15
REMARK    5  A    between atoms: C_6  and  C_7
REMARK    6  A    between atoms: C_15  and  O_16
REMARK    7  A    between atoms: C_15  and  C_17
REMARK    8  A    between atoms: C_17  and  N_18
REMARK    9  A    between atoms: N_18  and  C_19
REMARK   10  A    between atoms: C_19  and  C_20
REMARK   11  A    between atoms: C_24  and  C_25
REMARK   12  A    between atoms: C_25  and  C_26
REMARK   13  A    between atoms: C_25  and  C_27
REMARK   14  A    between atoms: C_25  and  C_28
REMARK                            x       y       z     vdW  Elec       q    Type
REMARK                         _______ _______ _______ _____ _____    ______ ____
ROOT
ATOM      1  C   UNL     1       4.724   5.353  19.284  0.00  0.00    +0.000 C 
ENDROOT
BRANCH   1   2
ATOM      2  N   UNL     1       3.602   4.694  19.967  0.00  0.00    +0.000 NA
ATOM      3  H   UNL     1       3.602   4.898  20.966  0.00  0.00    +0.000 HD
BRANCH   2   4
ATOM      4  C   UNL     1       2.239   4.967  19.432  0.00  0.00    +0.000 C 
ATOM      5  C   UNL     1       1.128   4.207  20.240  0.00  0.00    +0.000 C 
ATOM      6  C   UNL     1       1.241   2.685  20.168  0.00  0.00    +0.000 C 
ATOM      7  C   UNL     1       1.236   2.216  18.720  0.00  0.00    +0.000 C 
ATOM      8  N   UNL     1       2.325   2.846  17.978  0.00  0.00    +0.000 NA
ATOM      9  C   UNL     1       2.193   4.324  17.985  0.00  0.00    +0.000 C 
ATOM     10  H   UNL     1       2.299   2.523  17.011  0.00  0.00    +0.000 HD
BRANCH   4  11
ATOM     11  C   UNL     1       1.962   6.493  19.318  0.00  0.00    +0.000 A 
ATOM     12  C   UNL     1       2.229   7.198  18.133  0.00  0.00    +0.000 A 
ATOM     13  C   UNL     1       2.047   8.576  18.048  0.00  0.00    +0.000 A 
ATOM     14  C   UNL     1       1.588   9.292  19.147  0.00  0.00    +0.000 A 
ATOM     15  C   UNL     1       1.290   8.656  20.360  0.00  0.00    +0.000 A 
ATOM     16  C   UNL     1       1.460   7.246  20.412  0.00  0.00    +0.000 A 
BRANCH  15  17
ATOM     17  C   UNL     1       0.761   9.488  21.552  0.00  0.00    +0.000 C 
ATOM     18  C   UNL     1       1.757   9.361  22.722  0.00  0.00    +0.000 C 
ATOM     19  C   UNL     1       0.576  10.978  21.199  0.00  0.00    +0.000 C 
ATOM     20  C   UNL     1      -0.622   9.001  22.065  0.00  0.00    +0.000 C 
ENDBRANCH  15  17
ENDBRANCH   4  11
ENDBRANCH   2   4
ENDBRANCH   1   2
BRANCH   1  21
ATOM     21  C   UNL     1       5.842   4.365  18.827  0.00  0.00    +0.000 C 
BRANCH  21  22
ATOM     22  O   UNL     1       5.291   3.040  18.744  0.00  0.00    +0.000 OA
ATOM     23  H   UNL     1       4.567   2.959  19.400  0.00  0.00    +0.000 HD
ENDBRANCH  21  22
BRANCH  21  24
ATOM     24  C   UNL     1       6.489   4.775  17.462  0.00  0.00    +0.000 C 
BRANCH  24  28
ATOM     25  C   UNL     1       7.989   8.286  17.610  0.00  0.00    +0.000 C 
ATOM     26  C   UNL     1       6.918   7.237  17.451  0.00  0.00    +0.000 C 
ATOM     27  O   UNL     1       5.745   7.514  17.215  0.00  0.00    +0.000 OA
ATOM     28  N   UNL     1       7.371   5.951  17.599  0.00  0.00    +0.000 N 
ATOM     29  H   UNL     1       8.370   5.797  17.537  0.00  0.00    +0.000 HD
ENDBRANCH  24  28
BRANCH  24  30
ATOM     30  C   UNL     1       5.508   4.993  16.283  0.00  0.00    +0.000 C 
BRANCH  30  31
ATOM     31  C   UNL     1       6.039   4.708  14.894  0.00  0.00    +0.000 A 
ATOM     32  C   UNL     1       7.198   5.357  14.435  0.00  0.00    +0.000 A 
ATOM     33  C   UNL     1       7.701   5.089  13.162  0.00  0.00    +0.000 A 
ATOM     34  F   UNL     1       8.800   5.729  12.743  0.00  0.00    +0.000 F 
ATOM     35  C   UNL     1       7.079   4.178  12.323  0.00  0.00    +0.000 A 
ATOM     36  C   UNL     1       5.941   3.529  12.777  0.00  0.00    +0.000 A 
ATOM     37  F   UNL     1       5.335   2.636  11.986  0.00  0.00    +0.000 F 
ATOM     38  C   UNL     1       5.417   3.784  14.047  0.00  0.00    +0.000 A 
ENDBRANCH  30  31
ENDBRANCH  24  30
ENDBRANCH  21  24
ENDBRANCH   1  21
TORSDOF 10
ENDMDL
MODEL 4
REMARK VINA RESULT:      -8.9      0.782      1.666
REMARK  Name = 
REMARK  14 active torsions:
REMARK  status: ('A' for Active; 'I' for Inactive)
REMARK    1  A    between atoms: C_1  and  C_2
REMARK    2  A    between atoms: N_4  and  C_5
REMARK    3  A    between atoms: C_5  and  C_6
REMARK    4  A    between atoms: C_5  and  C_15
REMARK    5  A    between atoms: C_6  and  C_7
REMARK    6  A    between atoms: C_15  and  O_16
REMARK    7  A    between atoms: C_15  and  C_17
REMARK    8  A    between atoms: C_17  and  N_18
REMARK    9  A    between atoms: N_18  and  C_19
REMARK   10  A    between atoms: C_19  and  C_20
REMARK   11  A    between atoms: C_24  and  C_25
REMARK   12  A    between atoms: C_25  and  C_26
REMARK   13  A    between atoms: C_25  and  C_27
REMARK   14  A    between atoms: C_25  and  C_28
REMARK                            x       y       z     vdW  Elec       q    Type
REMARK                         _______ _______ _______ _____ _____    ______ ____
ROOT
ATOM      1  C   UNL     1       4.878   5.663  19.105  0.00  0.00    +0.000 C 
ENDROOT
BRANCH   1   2
ATOM      2  N   UNL     1       3.850   4.623  19.249  0.00  0.00    +0.000 NA
ATOM      3  H   UNL     1       4.146   3.893  19.897  0.00  0.00    +0.000 HD
BRANCH   2   4
ATOM      4  C   UNL     1       2.488   5.076  19.645  0.00  0.00    +0.000 C 
ATOM      5  C   UNL     1       2.218   4.860  21.176  0.00  0.00    +0.000 C 
ATOM      6  C   UNL     1       2.245   3.394  21.609  0.00  0.00    +0.000 C 
ATOM      7  C   UNL     1       1.255   2.577  20.790  0.00  0.00    +0.000 C 
ATOM      8  N   UNL     1       1.553   2.695  19.365  0.00  0.00    +0.000 NA
ATOM      9  C   UNL     1       1.468   4.108  18.916  0.00  0.00    +0.000 C 
ATOM     10  H   UNL     1       0.876   2.147  18.836  0.00  0.00    +0.000 HD
BRANCH   4  11
ATOM     11  C   UNL     1       2.215   6.538  19.188  0.00  0.00    +0.000 A 
ATOM     12  C   UNL     1       2.766   7.047  18.000  0.00  0.00    +0.000 A 
ATOM     13  C   UNL     1       2.580   8.374  17.621  0.00  0.00    +0.000 A 
ATOM     14  C   UNL     1       1.832   9.234  18.418  0.00  0.00    +0.000 A 
ATOM     15  C   UNL     1       1.243   8.794  19.611  0.00  0.00    +0.000 A 
ATOM     16  C   UNL     1       1.427   7.429  19.961  0.00  0.00    +0.000 A 
BRANCH  15  17
ATOM     17  C   UNL     1       0.401   9.778  20.458  0.00  0.00    +0.000 C 
ATOM     18  C   UNL     1      -0.201   9.011  21.651  0.00  0.00    +0.000 C 
ATOM     19  C   UNL     1       1.231  10.968  20.982  0.00  0.00    +0.000 C 
ATOM     20  C   UNL     1      -0.779  10.403  19.665  0.00  0.00    +0.000 C 
ENDBRANCH  15  17
ENDBRANCH   4  11
ENDBRANCH   2   4
ENDBRANCH   1   2
BRANCH   1  21
ATOM     21  C   UNL     1       6.243   5.120  18.581  0.00  0.00    +0.000 C 
BRANCH  21  22
ATOM     22  O   UNL     1       6.227   3.684  18.630  0.00  0.00    +0.000 OA
ATOM     23  H   UNL     1       6.225   3.339  17.713  0.00  0.00    +0.000 HD
ENDBRANCH  21  22
BRANCH  21  24
ATOM     24  C   UNL     1       6.574   5.615  17.133  0.00  0.00    +0.000 C 
BRANCH  24  28
ATOM     25  C   UNL     1       7.878   9.159  17.716  0.00  0.00    +0.000 C 
ATOM     26  C   UNL     1       7.772   7.667  17.907  0.00  0.00    +0.000 C 
ATOM     27  O   UNL     1       8.458   7.049  18.716  0.00  0.00    +0.000 OA
ATOM     28  N   UNL     1       6.847   7.064  17.092  0.00  0.00    +0.000 N 
ATOM     29  H   UNL     1       6.159   7.660  16.647  0.00  0.00    +0.000 HD
ENDBRANCH  24  28
BRANCH  24  30
ATOM     30  C   UNL     1       5.541   5.247  16.038  0.00  0.00    +0.000 C 
BRANCH  30  31
ATOM     31  C   UNL     1       6.096   4.860  14.683  0.00  0.00    +0.000 A 
ATOM     32  C   UNL     1       7.263   5.474  14.196  0.00  0.00    +0.000 A 
ATOM     33  C   UNL     1       7.787   5.112  12.956  0.00  0.00    +0.000 A 
ATOM     34  F   UNL     1       8.893   5.719  12.508  0.00  0.00    +0.000 F 
ATOM     35  C   UNL     1       7.178   4.140  12.176  0.00  0.00    +0.000 A 
ATOM     36  C   UNL     1       6.032   3.527  12.658  0.00  0.00    +0.000 A 
ATOM     37  F   UNL     1       5.439   2.577  11.926  0.00  0.00    +0.000 F 
ATOM     38  C   UNL     1       5.487   3.875  13.896  0.00  0.00    +0.000 A 
ENDBRANCH  30  31
ENDBRANCH  24  30
ENDBRANCH  21  24
ENDBRANCH   1  21
TORSDOF 10
ENDMDL
MODEL 5
REMARK VINA RESULT:      -8.6      0.883      1.757
REMARK  Name = 
REMARK  14 active torsions:
REMARK  status: ('A' for Active; 'I' for Inactive)
REMARK    1  A    between atoms: C_1  and  C_2
REMARK    2  A    between atoms: N_4  and  C_5
REMARK    3  A    between atoms: C_5  and  C_6
REMARK    4  A    between atoms: C_5  and  C_15
REMARK    5  A    between atoms: C_6  and  C_7
REMARK    6  A    between atoms: C_15  and  O_16
REMARK    7  A    between atoms: C_15  and  C_17
REMARK    8  A    between atoms: C_17  and  N_18
REMARK    9  A    between atoms: N_18  and  C_19
REMARK   10  A    between atoms: C_19  and  C_20
REMARK   11  A    between atoms: C_24  and  C_25
REMARK   12  A    between atoms: C_25  and  C_26
REMARK   13  A    between atoms: C_25  and  C_27
REMARK   14  A    between atoms: C_25  and  C_28
REMARK                            x       y       z     vdW  Elec       q    Type
REMARK                         _______ _______ _______ _____ _____    ______ ____
ROOT
ATOM      1  C   UNL     1       4.513   5.803  19.057  0.00  0.00    +0.000 C 
ENDROOT
BRANCH   1   2
ATOM      2  N   UNL     1       3.558   5.308  20.057  0.00  0.00    +0.000 NA
ATOM      3  H   UNL     1       3.779   5.658  20.989  0.00  0.00    +0.000 HD
BRANCH   2   4
ATOM      4  C   UNL     1       2.115   5.563  19.791  0.00  0.00    +0.000 C 
ATOM      5  C   UNL     1       1.198   4.438  20.390  0.00  0.00    +0.000 C 
ATOM      6  C   UNL     1       1.434   3.057  19.780  0.00  0.00    +0.000 C 
ATOM      7  C   UNL     1       1.269   3.105  18.267  0.00  0.00    +0.000 C 
ATOM      8  N   UNL     1       2.184   4.084  17.687  0.00  0.00    +0.000 NA
ATOM      9  C   UNL     1       1.925   5.444  18.223  0.00  0.00    +0.000 C 
ATOM     10  H   UNL     1       2.053   4.105  16.676  0.00  0.00    +0.000 HD
BRANCH   4  11
ATOM     11  C   UNL     1       1.691   6.989  20.247  0.00  0.00    +0.000 A 
ATOM     12  C   UNL     1       1.476   7.289  21.602  0.00  0.00    +0.000 A 
ATOM     13  C   UNL     1       1.032   8.544  22.008  0.00  0.00    +0.000 A 
ATOM     14  C   UNL     1       0.792   9.542  21.069  0.00  0.00    +0.000 A 
ATOM     15  C   UNL     1       0.994   9.319  19.701  0.00  0.00    +0.000 A 
ATOM     16  C   UNL     1       1.472   8.038  19.316  0.00  0.00    +0.000 A 
BRANCH  15  17
ATOM     17  C   UNL     1       0.735  10.463  18.692  0.00  0.00    +0.000 C 
ATOM     18  C   UNL     1       1.974  10.611  17.787  0.00  0.00    +0.000 C 
ATOM     19  C   UNL     1      -0.509  10.209  17.815  0.00  0.00    +0.000 C 
ATOM     20  C   UNL     1       0.495  11.835  19.379  0.00  0.00    +0.000 C 
ENDBRANCH  15  17
ENDBRANCH   4  11
ENDBRANCH   2   4
ENDBRANCH   1   2
BRANCH   1  21
ATOM     21  C   UNL     1       5.619   4.768  18.686  0.00  0.00    +0.000 C 
BRANCH  21  22
ATOM     22  O   UNL     1       5.072   3.442  18.783  0.00  0.00    +0.000 OA
ATOM     23  H   UNL     1       5.751   2.800  18.488  0.00  0.00    +0.000 HD
ENDBRANCH  21  22
BRANCH  21  24
ATOM     24  C   UNL     1       6.217   5.010  17.259  0.00  0.00    +0.000 C 
BRANCH  24  28
ATOM     25  C   UNL     1       8.029   8.354  17.620  0.00  0.00    +0.000 C 
ATOM     26  C   UNL     1       7.657   6.931  17.952  0.00  0.00    +0.000 C 
ATOM     27  O   UNL     1       8.145   6.319  18.897  0.00  0.00    +0.000 OA
ATOM     28  N   UNL     1       6.731   6.384  17.100  0.00  0.00    +0.000 N 
ATOM     29  H   UNL     1       6.200   7.019  16.516  0.00  0.00    +0.000 HD
ENDBRANCH  24  28
BRANCH  24  30
ATOM     30  C   UNL     1       5.294   4.657  16.067  0.00  0.00    +0.000 C 
BRANCH  30  31
ATOM     31  C   UNL     1       5.959   4.491  14.716  0.00  0.00    +0.000 A 
ATOM     32  C   UNL     1       5.381   3.660  13.742  0.00  0.00    +0.000 A 
ATOM     33  C   UNL     1       5.981   3.513  12.491  0.00  0.00    +0.000 A 
ATOM     34  F   UNL     1       5.418   2.707  11.583  0.00  0.00    +0.000 F 
ATOM     35  C   UNL     1       7.154   4.182  12.177  0.00  0.00    +0.000 A 
ATOM     36  C   UNL     1       7.721   5.010  13.133  0.00  0.00    +0.000 A 
ATOM     37  F   UNL     1       8.846   5.675  12.842  0.00  0.00    +0.000 F 
ATOM     38  C   UNL     1       7.140   5.169  14.393  0.00  0.00    +0.000 A 
ENDBRANCH  30  31
ENDBRANCH  24  30
ENDBRANCH  21  24
ENDBRANCH   1  21
TORSDOF 10
ENDMDL
MODEL 6
REMARK VINA RESULT:      -8.4      5.144      8.335
REMARK  Name = 
REMARK  14 active torsions:
REMARK  status: ('A' for Active; 'I' for Inactive)
REMARK    1  A    between atoms: C_1  and  C_2
REMARK    2  A    between atoms: N_4  and  C_5
REMARK    3  A    between atoms: C_5  and  C_6
REMARK    4  A    between atoms: C_5  and  C_15
REMARK    5  A    between atoms: C_6  and  C_7
REMARK    6  A    between atoms: C_15  and  O_16
REMARK    7  A    between atoms: C_15  and  C_17
REMARK    8  A    between atoms: C_17  and  N_18
REMARK    9  A    between atoms: N_18  and  C_19
REMARK   10  A    between atoms: C_19  and  C_20
REMARK   11  A    between atoms: C_24  and  C_25
REMARK   12  A    between atoms: C_25  and  C_26
REMARK   13  A    between atoms: C_25  and  C_27
REMARK   14  A    between atoms: C_25  and  C_28
REMARK                            x       y       z     vdW  Elec       q    Type
REMARK                         _______ _______ _______ _____ _____    ______ ____
ROOT
ATOM      1  C   UNL     1       1.039  11.207  19.075  0.00  0.00    +0.000 C 
ENDROOT
BRANCH   1   2
ATOM      2  N   UNL     1      -0.168  11.610  19.809  0.00  0.00    +0.000 NA
ATOM      3  H   UNL     1       0.059  11.940  20.747  0.00  0.00    +0.000 HD
BRANCH   2   4
ATOM      4  C   UNL     1      -1.044  12.622  19.155  0.00  0.00    +0.000 C 
ATOM      5  C   UNL     1      -0.233  13.579  18.211  0.00  0.00    +0.000 C 
ATOM      6  C   UNL     1       0.811  14.427  18.936  0.00  0.00    +0.000 C 
ATOM      7  C   UNL     1       0.163  15.233  20.053  0.00  0.00    +0.000 C 
ATOM      8  N   UNL     1      -0.517  14.345  20.992  0.00  0.00    +0.000 NA
ATOM      9  C   UNL     1      -1.579  13.560  20.314  0.00  0.00    +0.000 C 
ATOM     10  H   UNL     1      -0.949  14.905  21.727  0.00  0.00    +0.000 HD
BRANCH   4  11
ATOM     11  C   UNL     1      -2.255  11.956  18.441  0.00  0.00    +0.000 A 
ATOM     12  C   UNL     1      -2.114  11.339  17.186  0.00  0.00    +0.000 A 
ATOM     13  C   UNL     1      -3.208  10.802  16.513  0.00  0.00    +0.000 A 
ATOM     14  C   UNL     1      -4.478  10.862  17.076  0.00  0.00    +0.000 A 
ATOM     15  C   UNL     1      -4.693  11.453  18.328  0.00  0.00    +0.000 A 
ATOM     16  C   UNL     1      -3.557  11.970  19.006  0.00  0.00    +0.000 A 
BRANCH  15  17
ATOM     17  C   UNL     1      -6.119  11.479  18.927  0.00  0.00    +0.000 C 
ATOM     18  C   UNL     1      -6.043  12.061  20.353  0.00  0.00    +0.000 C 
ATOM     19  C   UNL     1      -7.101  12.320  18.084  0.00  0.00    +0.000 C 
ATOM     20  C   UNL     1      -6.758  10.068  19.035  0.00  0.00    +0.000 C 
ENDBRANCH  15  17
ENDBRANCH   4  11
ENDBRANCH   2   4
ENDBRANCH   1   2
BRANCH   1  21
ATOM     21  C   UNL     1       0.948   9.773  18.466  0.00  0.00    +0.000 C 
BRANCH  21  22
ATOM     22  O   UNL     1       1.940   9.638  17.434  0.00  0.00    +0.000 OA
ATOM     23  H   UNL     1       2.413  10.491  17.340  0.00  0.00    +0.000 HD
ENDBRANCH  21  22
BRANCH  21  24
ATOM     24  C   UNL     1       1.122   8.649  19.542  0.00  0.00    +0.000 C 
BRANCH  24  28
ATOM     25  C   UNL     1       0.249   9.486  23.166  0.00  0.00    +0.000 C 
ATOM     26  C   UNL     1       0.127   8.800  21.829  0.00  0.00    +0.000 C 
ATOM     27  O   UNL     1      -0.742   7.968  21.585  0.00  0.00    +0.000 OA
ATOM     28  N   UNL     1       1.075   9.185  20.916  0.00  0.00    +0.000 N 
ATOM     29  H   UNL     1       1.584  10.040  21.103  0.00  0.00    +0.000 HD
ENDBRANCH  24  28
BRANCH  24  30
ATOM     30  C   UNL     1       2.365   7.739  19.378  0.00  0.00    +0.000 C 
BRANCH  30  31
ATOM     31  C   UNL     1       2.112   6.247  19.316  0.00  0.00    +0.000 A 
ATOM     32  C   UNL     1       2.326   5.544  18.118  0.00  0.00    +0.000 A 
ATOM     33  C   UNL     1       2.109   4.168  18.058  0.00  0.00    +0.000 A 
ATOM     34  F   UNL     1       2.309   3.522  16.902  0.00  0.00    +0.000 F 
ATOM     35  C   UNL     1       1.683   3.460  19.171  0.00  0.00    +0.000 A 
ATOM     36  C   UNL     1       1.479   4.150  20.356  0.00  0.00    +0.000 A 
ATOM     37  F   UNL     1       1.081   3.480  21.445  0.00  0.00    +0.000 F 
ATOM     38  C   UNL     1       1.687   5.528  20.440  0.00  0.00    +0.000 A 
ENDBRANCH  30  31
ENDBRANCH  24  30
ENDBRANCH  21  24
ENDBRANCH   1  21
TORSDOF 10
ENDMDL
MODEL 7
REMARK VINA RESULT:      -8.3      0.763      1.802
REMARK  Name = 
REMARK  14 active torsions:
REMARK  status: ('A' for Active; 'I' for Inactive)
REMARK    1  A    between atoms: C_1  and  C_2
REMARK    2  A    between atoms: N_4  and  C_5
REMARK    3  A    between atoms: C_5  and  C_6
REMARK    4  A    between atoms: C_5  and  C_15
REMARK    5  A    between atoms: C_6  and  C_7
REMARK    6  A    between atoms: C_15  and  O_16
REMARK    7  A    between atoms: C_15  and  C_17
REMARK    8  A    between atoms: C_17  and  N_18
REMARK    9  A    between atoms: N_18  and  C_19
REMARK   10  A    between atoms: C_19  and  C_20
REMARK   11  A    between atoms: C_24  and  C_25
REMARK   12  A    between atoms: C_25  and  C_26
REMARK   13  A    between atoms: C_25  and  C_27
REMARK   14  A    between atoms: C_25  and  C_28
REMARK                            x       y       z     vdW  Elec       q    Type
REMARK                         _______ _______ _______ _____ _____    ______ ____
ROOT
ATOM      1  C   UNL     1       4.749   5.481  19.259  0.00  0.00    +0.000 C 
ENDROOT
BRANCH   1   2
ATOM      2  N   UNL     1       3.600   5.273  18.369  0.00  0.00    +0.000 NA
ATOM      3  H   UNL     1       3.545   4.306  18.050  0.00  0.00    +0.000 HD
BRANCH   2   4
ATOM      4  C   UNL     1       2.264   5.670  18.894  0.00  0.00    +0.000 C 
ATOM      5  C   UNL     1       2.033   5.159  20.361  0.00  0.00    +0.000 C 
ATOM      6  C   UNL     1       2.030   3.637  20.493  0.00  0.00    +0.000 C 
ATOM      7  C   UNL     1       0.993   3.021  19.564  0.00  0.00    +0.000 C 
ATOM      8  N   UNL     1       1.252   3.414  18.182  0.00  0.00    +0.000 NA
ATOM      9  C   UNL     1       1.195   4.889  18.024  0.00  0.00    +0.000 C 
ATOM     10  H   UNL     1       0.543   2.997  17.579  0.00  0.00    +0.000 HD
BRANCH   4  11
ATOM     11  C   UNL     1       2.020   7.199  18.745  0.00  0.00    +0.000 A 
ATOM     12  C   UNL     1       2.563   7.924  17.671  0.00  0.00    +0.000 A 
ATOM     13  C   UNL     1       2.405   9.303  17.570  0.00  0.00    +0.000 A 
ATOM     14  C   UNL     1       1.693  10.002  18.539  0.00  0.00    +0.000 A 
ATOM     15  C   UNL     1       1.113   9.345  19.633  0.00  0.00    +0.000 A 
ATOM     16  C   UNL     1       1.268   7.934  19.699  0.00  0.00    +0.000 A 
BRANCH  15  17
ATOM     17  C   UNL     1       0.312  10.157  20.678  0.00  0.00    +0.000 C 
ATOM     18  C   UNL     1      -1.045  10.549  20.060  0.00  0.00    +0.000 C 
ATOM     19  C   UNL     1       0.070   9.368  21.982  0.00  0.00    +0.000 C 
ATOM     20  C   UNL     1       1.025  11.469  21.103  0.00  0.00    +0.000 C 
ENDBRANCH  15  17
ENDBRANCH   4  11
ENDBRANCH   2   4
ENDBRANCH   1   2
BRANCH   1  21
ATOM     21  C   UNL     1       6.012   4.664  18.847  0.00  0.00    +0.000 C 
BRANCH  21  22
ATOM     22  O   UNL     1       5.737   3.262  19.006  0.00  0.00    +0.000 OA
ATOM     23  H   UNL     1       5.434   3.104  19.925  0.00  0.00    +0.000 HD
ENDBRANCH  21  22
BRANCH  21  24
ATOM     24  C   UNL     1       6.476   4.968  17.383  0.00  0.00    +0.000 C 
BRANCH  24  28
ATOM     25  C   UNL     1       7.755   8.563  17.570  0.00  0.00    +0.000 C 
ATOM     26  C   UNL     1       7.646   7.105  17.937  0.00  0.00    +0.000 C 
ATOM     27  O   UNL     1       8.308   6.594  18.836  0.00  0.00    +0.000 OA
ATOM     28  N   UNL     1       6.748   6.403  17.174  0.00  0.00    +0.000 N 
ATOM     29  H   UNL     1       6.072   6.936  16.640  0.00  0.00    +0.000 HD
ENDBRANCH  24  28
BRANCH  24  30
ATOM     30  C   UNL     1       5.552   4.442  16.255  0.00  0.00    +0.000 C 
BRANCH  30  31
ATOM     31  C   UNL     1       6.139   4.401  14.859  0.00  0.00    +0.000 A 
ATOM     32  C   UNL     1       7.262   5.184  14.543  0.00  0.00    +0.000 A 
ATOM     33  C   UNL     1       7.816   5.141  13.264  0.00  0.00    +0.000 A 
ATOM     34  F   UNL     1       8.879   5.904  12.982  0.00  0.00    +0.000 F 
ATOM     35  C   UNL     1       7.280   4.327  12.278  0.00  0.00    +0.000 A 
ATOM     36  C   UNL     1       6.177   3.547  12.590  0.00  0.00    +0.000 A 
ATOM     37  F   UNL     1       5.654   2.744  11.655  0.00  0.00    +0.000 F 
ATOM     38  C   UNL     1       5.603   3.576  13.863  0.00  0.00    +0.000 A 
ENDBRANCH  30  31
ENDBRANCH  24  30
ENDBRANCH  21  24
ENDBRANCH   1  21
TORSDOF 10
ENDMDL
MODEL 8
REMARK VINA RESULT:      -8.3      0.899      2.293
REMARK  Name = 
REMARK  14 active torsions:
REMARK  status: ('A' for Active; 'I' for Inactive)
REMARK    1  A    between atoms: C_1  and  C_2
REMARK    2  A    between atoms: N_4  and  C_5
REMARK    3  A    between atoms: C_5  and  C_6
REMARK    4  A    between atoms: C_5  and  C_15
REMARK    5  A    between atoms: C_6  and  C_7
REMARK    6  A    between atoms: C_15  and  O_16
REMARK    7  A    between atoms: C_15  and  C_17
REMARK    8  A    between atoms: C_17  and  N_18
REMARK    9  A    between atoms: N_18  and  C_19
REMARK   10  A    between atoms: C_19  and  C_20
REMARK   11  A    between atoms: C_24  and  C_25
REMARK   12  A    between atoms: C_25  and  C_26
REMARK   13  A    between atoms: C_25  and  C_27
REMARK   14  A    between atoms: C_25  and  C_28
REMARK                            x       y       z     vdW  Elec       q    Type
REMARK                         _______ _______ _______ _____ _____    ______ ____
ROOT
ATOM      1  C   UNL     1       4.332   5.721  18.694  0.00  0.00    +0.000 C 
ENDROOT
BRANCH   1   2
ATOM      2  N   UNL     1       3.817   5.519  20.055  0.00  0.00    +0.000 NA
ATOM      3  H   UNL     1       4.152   6.242  20.692  0.00  0.00    +0.000 HD
BRANCH   2   4
ATOM      4  C   UNL     1       2.338   5.413  20.203  0.00  0.00    +0.000 C 
ATOM      5  C   UNL     1       1.931   4.353  21.287  0.00  0.00    +0.000 C 
ATOM      6  C   UNL     1       2.359   2.925  20.949  0.00  0.00    +0.000 C 
ATOM      7  C   UNL     1       1.811   2.510  19.591  0.00  0.00    +0.000 C 
ATOM      8  N   UNL     1       2.260   3.437  18.556  0.00  0.00    +0.000 NA
ATOM      9  C   UNL     1       1.797   4.820  18.838  0.00  0.00    +0.000 C 
ATOM     10  H   UNL     1       1.877   3.145  17.657  0.00  0.00    +0.000 HD
BRANCH   4  11
ATOM     11  C   UNL     1       1.685   6.803  20.447  0.00  0.00    +0.000 A 
ATOM     12  C   UNL     1       1.008   7.093  21.643  0.00  0.00    +0.000 A 
ATOM     13  C   UNL     1       0.364   8.311  21.838  0.00  0.00    +0.000 A 
ATOM     14  C   UNL     1       0.381   9.282  20.843  0.00  0.00    +0.000 A 
ATOM     15  C   UNL     1       1.045   9.069  19.627  0.00  0.00    +0.000 A 
ATOM     16  C   UNL     1       1.716   7.827  19.464  0.00  0.00    +0.000 A 
BRANCH  15  17
ATOM     17  C   UNL     1       1.057  10.184  18.555  0.00  0.00    +0.000 C 
ATOM     18  C   UNL     1       2.224   9.919  17.584  0.00  0.00    +0.000 C 
ATOM     19  C   UNL     1      -0.263  10.255  17.760  0.00  0.00    +0.000 C 
ATOM     20  C   UNL     1       1.265  11.601  19.156  0.00  0.00    +0.000 C 
ENDBRANCH  15  17
ENDBRANCH   4  11
ENDBRANCH   2   4
ENDBRANCH   1   2
BRANCH   1  21
ATOM     21  C   UNL     1       5.687   4.997  18.428  0.00  0.00    +0.000 C 
BRANCH  21  22
ATOM     22  O   UNL     1       5.498   3.579  18.573  0.00  0.00    +0.000 OA
ATOM     23  H   UNL     1       5.109   3.228  17.745  0.00  0.00    +0.000 HD
ENDBRANCH  21  22
BRANCH  21  24
ATOM     24  C   UNL     1       6.282   5.328  17.017  0.00  0.00    +0.000 C 
BRANCH  24  28
ATOM     25  C   UNL     1       8.003   8.691  17.585  0.00  0.00    +0.000 C 
ATOM     26  C   UNL     1       7.650   7.248  17.844  0.00  0.00    +0.000 C 
ATOM     27  O   UNL     1       8.115   6.607  18.782  0.00  0.00    +0.000 OA
ATOM     28  N   UNL     1       6.771   6.717  16.935  0.00  0.00    +0.000 N 
ATOM     29  H   UNL     1       6.249   7.365  16.357  0.00  0.00    +0.000 HD
ENDBRANCH  24  28
BRANCH  24  30
ATOM     30  C   UNL     1       5.365   5.024  15.806  0.00  0.00    +0.000 C 
BRANCH  30  31
ATOM     31  C   UNL     1       6.053   4.719  14.491  0.00  0.00    +0.000 A 
ATOM     32  C   UNL     1       7.221   5.411  14.130  0.00  0.00    +0.000 A 
ATOM     33  C   UNL     1       7.868   5.126  12.928  0.00  0.00    +0.000 A 
ATOM     34  F   UNL     1       8.973   5.807  12.599  0.00  0.00    +0.000 F 
ATOM     35  C   UNL     1       7.382   4.156  12.065  0.00  0.00    +0.000 A 
ATOM     36  C   UNL     1       6.234   3.466  12.424  0.00  0.00    +0.000 A 
ATOM     37  F   UNL     1       5.758   2.516  11.610  0.00  0.00    +0.000 F 
ATOM     38  C   UNL     1       5.568   3.736  13.621  0.00  0.00    +0.000 A 
ENDBRANCH  30  31
ENDBRANCH  24  30
ENDBRANCH  21  24
ENDBRANCH   1  21
TORSDOF 10
ENDMDL
MODEL 9
REMARK VINA RESULT:      -8.1      1.349      2.307
REMARK  Name = 
REMARK  14 active torsions:
REMARK  status: ('A' for Active; 'I' for Inactive)
REMARK    1  A    between atoms: C_1  and  C_2
REMARK    2  A    between atoms: N_4  and  C_5
REMARK    3  A    between atoms: C_5  and  C_6
REMARK    4  A    between atoms: C_5  and  C_15
REMARK    5  A    between atoms: C_6  and  C_7
REMARK    6  A    between atoms: C_15  and  O_16
REMARK    7  A    between atoms: C_15  and  C_17
REMARK    8  A    between atoms: C_17  and  N_18
REMARK    9  A    between atoms: N_18  and  C_19
REMARK   10  A    between atoms: C_19  and  C_20
REMARK   11  A    between atoms: C_24  and  C_25
REMARK   12  A    between atoms: C_25  and  C_26
REMARK   13  A    between atoms: C_25  and  C_27
REMARK   14  A    between atoms: C_25  and  C_28
REMARK                            x       y       z     vdW  Elec       q    Type
REMARK                         _______ _______ _______ _____ _____    ______ ____
ROOT
ATOM      1  C   UNL     1       3.039   4.057  17.337  0.00  0.00    +0.000 C 
ENDROOT
BRANCH   1   2
ATOM      2  N   UNL     1       1.931   3.937  18.295  0.00  0.00    +0.000 NA
ATOM      3  H   UNL     1       1.776   2.965  18.565  0.00  0.00    +0.000 HD
BRANCH   2   4
ATOM      4  C   UNL     1       2.024   4.758  19.534  0.00  0.00    +0.000 C 
ATOM      5  C   UNL     1       3.266   4.364  20.410  0.00  0.00    +0.000 C 
ATOM      6  C   UNL     1       3.223   2.930  20.936  0.00  0.00    +0.000 C 
ATOM      7  C   UNL     1       1.942   2.686  21.720  0.00  0.00    +0.000 C 
ATOM      8  N   UNL     1       0.775   2.961  20.886  0.00  0.00    +0.000 NA
ATOM      9  C   UNL     1       0.770   4.370  20.419  0.00  0.00    +0.000 C 
ATOM     10  H   UNL     1      -0.071   2.798  21.432  0.00  0.00    +0.000 HD
BRANCH   4  11
ATOM     11  C   UNL     1       1.971   6.281  19.218  0.00  0.00    +0.000 A 
ATOM     12  C   UNL     1       2.523   6.801  18.035  0.00  0.00    +0.000 A 
ATOM     13  C   UNL     1       2.537   8.169  17.780  0.00  0.00    +0.000 A 
ATOM     14  C   UNL     1       1.996   9.061  18.699  0.00  0.00    +0.000 A 
ATOM     15  C   UNL     1       1.419   8.615  19.895  0.00  0.00    +0.000 A 
ATOM     16  C   UNL     1       1.393   7.212  20.119  0.00  0.00    +0.000 A 
BRANCH  15  17
ATOM     17  C   UNL     1       0.808   9.640  20.880  0.00  0.00    +0.000 C 
ATOM     18  C   UNL     1      -0.701   9.759  20.594  0.00  0.00    +0.000 C 
ATOM     19  C   UNL     1       1.018   9.240  22.356  0.00  0.00    +0.000 C 
ATOM     20  C   UNL     1       1.422  11.059  20.736  0.00  0.00    +0.000 C 
ENDBRANCH  15  17
ENDBRANCH   4  11
ENDBRANCH   2   4
ENDBRANCH   1   2
BRANCH   1  21
ATOM     21  C   UNL     1       4.337   3.320  17.790  0.00  0.00    +0.000 C 
BRANCH  21  22
ATOM     22  O   UNL     1       4.140   1.902  17.662  0.00  0.00    +0.000 OA
ATOM     23  H   UNL     1       4.665   1.448  18.353  0.00  0.00    +0.000 HD
ENDBRANCH  21  22
BRANCH  21  24
ATOM     24  C   UNL     1       5.600   3.772  16.982  0.00  0.00    +0.000 C 
BRANCH  24  28
ATOM     25  C   UNL     1       7.932   5.622  19.378  0.00  0.00    +0.000 C 
ATOM     26  C   UNL     1       6.698   5.384  18.545  0.00  0.00    +0.000 C 
ATOM     27  O   UNL     1       5.771   6.186  18.484  0.00  0.00    +0.000 OA
ATOM     28  N   UNL     1       6.703   4.190  17.869  0.00  0.00    +0.000 N 
ATOM     29  H   UNL     1       7.591   3.713  17.769  0.00  0.00    +0.000 HD
ENDBRANCH  24  28
BRANCH  24  30
ATOM     30  C   UNL     1       5.363   4.854  15.899  0.00  0.00    +0.000 C 
BRANCH  30  31
ATOM     31  C   UNL     1       5.994   4.609  14.544  0.00  0.00    +0.000 A 
ATOM     32  C   UNL     1       7.162   5.300  14.175  0.00  0.00    +0.000 A 
ATOM     33  C   UNL     1       7.757   5.070  12.935  0.00  0.00    +0.000 A 
ATOM     34  F   UNL     1       8.862   5.748  12.601  0.00  0.00    +0.000 F 
ATOM     35  C   UNL     1       7.219   4.158  12.041  0.00  0.00    +0.000 A 
ATOM     36  C   UNL     1       6.072   3.469  12.406  0.00  0.00    +0.000 A 
ATOM     37  F   UNL     1       5.547   2.573  11.561  0.00  0.00    +0.000 F 
ATOM     38  C   UNL     1       5.458   3.685  13.641  0.00  0.00    +0.000 A 
ENDBRANCH  30  31
ENDBRANCH  24  30
ENDBRANCH  21  24
ENDBRANCH   1  21
TORSDOF 10
ENDMDL
