MODEL 1
REMARK VINA RESULT:      -6.0      0.000      0.000
REMARK  Name = 
REMARK  5 active torsions:
REMARK  status: ('A' for Active; 'I' for Inactive)
REMARK    1  A    between atoms: C_1  and  O_2
REMARK    2  A    between atoms: O_2  and  N_3
REMARK    3  A    between atoms: C_8  and  C_9
REMARK    4  A    between atoms: C_9  and  C_10
REMARK    5  A    between atoms: C_9  and  C_11
REMARK                            x       y       z     vdW  Elec       q    Type
REMARK                         _______ _______ _______ _____ _____    ______ ____
ROOT
ATOM      1  N   UNL     1       6.160   4.859  18.380  0.00  0.00    +0.000 N 
ATOM      2  C   UNL     1       7.018   4.577  17.370  0.00  0.00    +0.000 A 
ATOM      3  C   UNL     1       6.551   4.314  16.096  0.00  0.00    +0.000 A 
ATOM      4  C   UNL     1       5.188   4.307  15.871  0.00  0.00    +0.000 A 
ATOM      5  C   UNL     1       4.317   4.530  16.938  0.00  0.00    +0.000 A 
ATOM      6  C   UNL     1       4.806   4.779  18.236  0.00  0.00    +0.000 A 
ENDROOT
BRANCH   1   8
ATOM      7  C   UNL     1       7.971   5.753  19.647  0.00  0.00    +0.000 C 
ATOM      8  O   UNL     1       6.656   5.185  19.662  0.00  0.00    +0.000 OA
ENDBRANCH   1   8
BRANCH   6   9
ATOM      9  C   UNL     1       3.869   5.015  19.421  0.00  0.00    +0.000 C 
ATOM     10  C   UNL     1       2.977   6.225  19.133  0.00  0.00    +0.000 C 
BRANCH   9  11
ATOM     11  C   UNL     1       2.986   3.823  19.867  0.00  0.00    +0.000 C 
ATOM     12  O   UNL     1       2.568   3.893  21.227  0.00  0.00    +0.000 OA
ATOM     13  C   UNL     1       1.466   2.983  21.282  0.00  0.00    +0.000 C 
ATOM     14  C   UNL     1       0.850   3.051  19.899  0.00  0.00    +0.000 C 
ATOM     15  O   UNL     1       1.832   3.659  19.047  0.00  0.00    +0.000 OA
ENDBRANCH   9  11
ENDBRANCH   6   9
TORSDOF 3
ENDMDL
MODEL 2
REMARK VINA RESULT:      -6.0      1.373      1.568
REMARK  Name = 
REMARK  5 active torsions:
REMARK  status: ('A' for Active; 'I' for Inactive)
REMARK    1  A    between atoms: C_1  and  O_2
REMARK    2  A    between atoms: O_2  and  N_3
REMARK    3  A    between atoms: C_8  and  C_9
REMARK    4  A    between atoms: C_9  and  C_10
REMARK    5  A    between atoms: C_9  and  C_11
REMARK                            x       y       z     vdW  Elec       q    Type
REMARK                         _______ _______ _______ _____ _____    ______ ____
ROOT
ATOM      1  N   UNL     1       6.412   4.792  17.716  0.00  0.00    +0.000 N 
ATOM      2  C   UNL     1       7.313   4.502  16.747  0.00  0.00    +0.000 A 
ATOM      3  C   UNL     1       6.981   4.619  15.410  0.00  0.00    +0.000 A 
ATOM      4  C   UNL     1       5.698   5.004  15.072  0.00  0.00    +0.000 A 
ATOM      5  C   UNL     1       4.762   5.232  16.081  0.00  0.00    +0.000 A 
ATOM      6  C   UNL     1       5.109   5.090  17.440  0.00  0.00    +0.000 A 
ENDROOT
BRANCH   1   8
ATOM      7  C   UNL     1       7.747   5.714  19.462  0.00  0.00    +0.000 C 
ATOM      8  O   UNL     1       6.785   4.725  19.077  0.00  0.00    +0.000 OA
ENDBRANCH   1   8
BRANCH   6   9
ATOM      9  C   UNL     1       4.096   5.324  18.561  0.00  0.00    +0.000 C 
ATOM     10  C   UNL     1       3.228   6.537  18.220  0.00  0.00    +0.000 C 
BRANCH   9  11
ATOM     11  C   UNL     1       3.183   4.132  18.942  0.00  0.00    +0.000 C 
ATOM     12  O   UNL     1       1.888   4.186  18.349  0.00  0.00    +0.000 OA
ATOM     13  C   UNL     1       1.413   2.843  18.472  0.00  0.00    +0.000 C 
ATOM     14  C   UNL     1       2.662   1.990  18.395  0.00  0.00    +0.000 C 
ATOM     15  O   UNL     1       3.770   2.872  18.633  0.00  0.00    +0.000 OA
ENDBRANCH   9  11
ENDBRANCH   6   9
TORSDOF 3
ENDMDL
MODEL 3
REMARK VINA RESULT:      -5.9      1.243      1.333
REMARK  Name = 
REMARK  5 active torsions:
REMARK  status: ('A' for Active; 'I' for Inactive)
REMARK    1  A    between atoms: C_1  and  O_2
REMARK    2  A    between atoms: O_2  and  N_3
REMARK    3  A    between atoms: C_8  and  C_9
REMARK    4  A    between atoms: C_9  and  C_10
REMARK    5  A    between atoms: C_9  and  C_11
REMARK                            x       y       z     vdW  Elec       q    Type
REMARK                         _______ _______ _______ _____ _____    ______ ____
ROOT
ATOM      1  N   UNL     1       6.695   4.568  17.383  0.00  0.00    +0.000 N 
ATOM      2  C   UNL     1       7.485   4.641  16.284  0.00  0.00    +0.000 A 
ATOM      3  C   UNL     1       6.936   4.655  15.015  0.00  0.00    +0.000 A 
ATOM      4  C   UNL     1       5.566   4.556  14.879  0.00  0.00    +0.000 A 
ATOM      5  C   UNL     1       4.772   4.412  16.017  0.00  0.00    +0.000 A 
ATOM      6  C   UNL     1       5.346   4.381  17.304  0.00  0.00    +0.000 A 
ENDROOT
BRANCH   1   8
ATOM      7  C   UNL     1       7.778   5.906  19.032  0.00  0.00    +0.000 C 
ATOM      8  O   UNL     1       7.267   4.616  18.673  0.00  0.00    +0.000 OA
ENDBRANCH   1   8
BRANCH   6   9
ATOM      9  C   UNL     1       4.496   4.211  18.564  0.00  0.00    +0.000 C 
ATOM     10  C   UNL     1       3.954   5.574  19.002  0.00  0.00    +0.000 C 
BRANCH   9  11
ATOM     11  C   UNL     1       3.329   3.195  18.492  0.00  0.00    +0.000 C 
ATOM     12  O   UNL     1       3.083   2.513  19.719  0.00  0.00    +0.000 OA
ATOM     13  C   UNL     1       1.761   1.995  19.550  0.00  0.00    +0.000 C 
ATOM     14  C   UNL     1       1.071   3.002  18.654  0.00  0.00    +0.000 C 
ATOM     15  O   UNL     1       2.111   3.790  18.055  0.00  0.00    +0.000 OA
ENDBRANCH   9  11
ENDBRANCH   6   9
TORSDOF 3
ENDMDL
MODEL 4
REMARK VINA RESULT:      -5.9      1.961      5.179
REMARK  Name = 
REMARK  5 active torsions:
REMARK  status: ('A' for Active; 'I' for Inactive)
REMARK    1  A    between atoms: C_1  and  O_2
REMARK    2  A    between atoms: O_2  and  N_3
REMARK    3  A    between atoms: C_8  and  C_9
REMARK    4  A    between atoms: C_9  and  C_10
REMARK    5  A    between atoms: C_9  and  C_11
REMARK                            x       y       z     vdW  Elec       q    Type
REMARK                         _______ _______ _______ _____ _____    ______ ____
ROOT
ATOM      1  N   UNL     1       2.521   3.362  18.779  0.00  0.00    +0.000 N 
ATOM      2  C   UNL     1       1.669   2.821  19.682  0.00  0.00    +0.000 A 
ATOM      3  C   UNL     1       1.080   3.602  20.659  0.00  0.00    +0.000 A 
ATOM      4  C   UNL     1       1.402   4.943  20.726  0.00  0.00    +0.000 A 
ATOM      5  C   UNL     1       2.335   5.469  19.832  0.00  0.00    +0.000 A 
ATOM      6  C   UNL     1       2.942   4.658  18.853  0.00  0.00    +0.000 A 
ENDROOT
BRANCH   1   8
ATOM      7  C   UNL     1       3.693   1.362  18.220  0.00  0.00    +0.000 C 
ATOM      8  O   UNL     1       3.068   2.563  17.750  0.00  0.00    +0.000 OA
ENDBRANCH   1   8
BRANCH   6   9
ATOM      9  C   UNL     1       3.975   5.212  17.871  0.00  0.00    +0.000 C 
ATOM     10  C   UNL     1       3.700   6.697  17.624  0.00  0.00    +0.000 C 
BRANCH   9  11
ATOM     11  C   UNL     1       5.467   5.023  18.241  0.00  0.00    +0.000 C 
ATOM     12  O   UNL     1       6.208   4.273  17.282  0.00  0.00    +0.000 OA
ATOM     13  C   UNL     1       7.567   4.594  17.590  0.00  0.00    +0.000 C 
ATOM     14  C   UNL     1       7.510   6.009  18.127  0.00  0.00    +0.000 C 
ATOM     15  O   UNL     1       6.138   6.260  18.463  0.00  0.00    +0.000 OA
ENDBRANCH   9  11
ENDBRANCH   6   9
TORSDOF 3
ENDMDL
MODEL 5
REMARK VINA RESULT:      -5.8      1.875      5.177
REMARK  Name = 
REMARK  5 active torsions:
REMARK  status: ('A' for Active; 'I' for Inactive)
REMARK    1  A    between atoms: C_1  and  O_2
REMARK    2  A    between atoms: O_2  and  N_3
REMARK    3  A    between atoms: C_8  and  C_9
REMARK    4  A    between atoms: C_9  and  C_10
REMARK    5  A    between atoms: C_9  and  C_11
REMARK                            x       y       z     vdW  Elec       q    Type
REMARK                         _______ _______ _______ _____ _____    ______ ____
ROOT
ATOM      1  N   UNL     1       2.656   3.257  18.848  0.00  0.00    +0.000 N 
ATOM      2  C   UNL     1       1.562   3.025  19.612  0.00  0.00    +0.000 A 
ATOM      3  C   UNL     1       1.063   4.003  20.453  0.00  0.00    +0.000 A 
ATOM      4  C   UNL     1       1.721   5.215  20.533  0.00  0.00    +0.000 A 
ATOM      5  C   UNL     1       2.887   5.412  19.792  0.00  0.00    +0.000 A 
ATOM      6  C   UNL     1       3.394   4.400  18.953  0.00  0.00    +0.000 A 
ENDROOT
BRANCH   1   8
ATOM      7  C   UNL     1       3.788   1.176  18.587  0.00  0.00    +0.000 C 
ATOM      8  O   UNL     1       3.118   2.270  17.950  0.00  0.00    +0.000 OA
ENDBRANCH   1   8
BRANCH   6   9
ATOM      9  C   UNL     1       4.676   4.591  18.142  0.00  0.00    +0.000 C 
ATOM     10  C   UNL     1       4.327   5.140  16.756  0.00  0.00    +0.000 C 
BRANCH   9  11
ATOM     11  C   UNL     1       5.784   5.469  18.775  0.00  0.00    +0.000 C 
ATOM     12  O   UNL     1       6.861   4.721  19.336  0.00  0.00    +0.000 OA
ATOM     13  C   UNL     1       7.909   5.687  19.450  0.00  0.00    +0.000 C 
ATOM     14  C   UNL     1       7.669   6.644  18.301  0.00  0.00    +0.000 C 
ATOM     15  O   UNL     1       6.322   6.418  17.859  0.00  0.00    +0.000 OA
ENDBRANCH   9  11
ENDBRANCH   6   9
TORSDOF 3
ENDMDL
MODEL 6
REMARK VINA RESULT:      -5.8      2.045      5.066
REMARK  Name = 
REMARK  5 active torsions:
REMARK  status: ('A' for Active; 'I' for Inactive)
REMARK    1  A    between atoms: C_1  and  O_2
REMARK    2  A    between atoms: O_2  and  N_3
REMARK    3  A    between atoms: C_8  and  C_9
REMARK    4  A    between atoms: C_9  and  C_10
REMARK    5  A    between atoms: C_9  and  C_11
REMARK                            x       y       z     vdW  Elec       q    Type
REMARK                         _______ _______ _______ _____ _____    ______ ____
ROOT
ATOM      1  N   UNL     1       3.459   3.578  17.785  0.00  0.00    +0.000 N 
ATOM      2  C   UNL     1       2.297   3.766  18.457  0.00  0.00    +0.000 A 
ATOM      3  C   UNL     1       1.791   5.037  18.657  0.00  0.00    +0.000 A 
ATOM      4  C   UNL     1       2.507   6.122  18.193  0.00  0.00    +0.000 A 
ATOM      5  C   UNL     1       3.736   5.915  17.565  0.00  0.00    +0.000 A 
ATOM      6  C   UNL     1       4.249   4.615  17.383  0.00  0.00    +0.000 A 
ENDROOT
BRANCH   1   8
ATOM      7  C   UNL     1       3.637   1.339  18.583  0.00  0.00    +0.000 C 
ATOM      8  O   UNL     1       3.932   2.271  17.536  0.00  0.00    +0.000 OA
ENDBRANCH   1   8
BRANCH   6   9
ATOM      9  C   UNL     1       5.599   4.367  16.708  0.00  0.00    +0.000 C 
ATOM     10  C   UNL     1       5.542   4.855  15.259  0.00  0.00    +0.000 C 
BRANCH   9  11
ATOM     11  C   UNL     1       6.850   4.962  17.400  0.00  0.00    +0.000 C 
ATOM     12  O   UNL     1       6.968   6.375  17.262  0.00  0.00    +0.000 OA
ATOM     13  C   UNL     1       7.890   6.732  18.295  0.00  0.00    +0.000 C 
ATOM     14  C   UNL     1       7.645   5.715  19.390  0.00  0.00    +0.000 C 
ATOM     15  O   UNL     1       6.917   4.636  18.785  0.00  0.00    +0.000 OA
ENDBRANCH   9  11
ENDBRANCH   6   9
TORSDOF 3
ENDMDL
MODEL 7
REMARK VINA RESULT:      -5.8      2.037      4.869
REMARK  Name = 
REMARK  5 active torsions:
REMARK  status: ('A' for Active; 'I' for Inactive)
REMARK    1  A    between atoms: C_1  and  O_2
REMARK    2  A    between atoms: O_2  and  N_3
REMARK    3  A    between atoms: C_8  and  C_9
REMARK    4  A    between atoms: C_9  and  C_10
REMARK    5  A    between atoms: C_9  and  C_11
REMARK                            x       y       z     vdW  Elec       q    Type
REMARK                         _______ _______ _______ _____ _____    ______ ____
ROOT
ATOM      1  N   UNL     1       3.377   2.616  18.875  0.00  0.00    +0.000 N 
ATOM      2  C   UNL     1       2.142   2.382  19.383  0.00  0.00    +0.000 A 
ATOM      3  C   UNL     1       1.043   3.083  18.925  0.00  0.00    +0.000 A 
ATOM      4  C   UNL     1       1.223   4.058  17.964  0.00  0.00    +0.000 A 
ATOM      5  C   UNL     1       2.510   4.335  17.503  0.00  0.00    +0.000 A 
ATOM      6  C   UNL     1       3.626   3.625  17.991  0.00  0.00    +0.000 A 
ENDROOT
BRANCH   1   8
ATOM      7  C   UNL     1       4.676   1.869  20.728  0.00  0.00    +0.000 C 
ATOM      8  O   UNL     1       4.481   1.850  19.309  0.00  0.00    +0.000 OA
ENDBRANCH   1   8
BRANCH   6   9
ATOM      9  C   UNL     1       5.046   3.920  17.507  0.00  0.00    +0.000 C 
ATOM     10  C   UNL     1       5.021   4.232  16.009  0.00  0.00    +0.000 C 
BRANCH   9  11
ATOM     11  C   UNL     1       5.824   5.036  18.249  0.00  0.00    +0.000 C 
ATOM     12  O   UNL     1       6.981   4.570  18.938  0.00  0.00    +0.000 OA
ATOM     13  C   UNL     1       7.738   5.764  19.156  0.00  0.00    +0.000 C 
ATOM     14  C   UNL     1       7.399   6.648  17.974  0.00  0.00    +0.000 C 
ATOM     15  O   UNL     1       6.209   6.101  17.386  0.00  0.00    +0.000 OA
ENDBRANCH   9  11
ENDBRANCH   6   9
TORSDOF 3
ENDMDL
MODEL 8
REMARK VINA RESULT:      -5.7      1.875      5.064
REMARK  Name = 
REMARK  5 active torsions:
REMARK  status: ('A' for Active; 'I' for Inactive)
REMARK    1  A    between atoms: C_1  and  O_2
REMARK    2  A    between atoms: O_2  and  N_3
REMARK    3  A    between atoms: C_8  and  C_9
REMARK    4  A    between atoms: C_9  and  C_10
REMARK    5  A    between atoms: C_9  and  C_11
REMARK                            x       y       z     vdW  Elec       q    Type
REMARK                         _______ _______ _______ _____ _____    ______ ____
ROOT
ATOM      1  N   UNL     1       3.242   2.897  19.892  0.00  0.00    +0.000 N 
ATOM      2  C   UNL     1       2.224   2.734  20.772  0.00  0.00    +0.000 A 
ATOM      3  C   UNL     1       1.321   3.753  21.009  0.00  0.00    +0.000 A 
ATOM      4  C   UNL     1       1.490   4.961  20.361  0.00  0.00    +0.000 A 
ATOM      5  C   UNL     1       2.583   5.135  19.511  0.00  0.00    +0.000 A 
ATOM      6  C   UNL     1       3.507   4.094  19.293  0.00  0.00    +0.000 A 
ENDROOT
BRANCH   1   8
ATOM      7  C   UNL     1       5.003   1.509  20.699  0.00  0.00    +0.000 C 
ATOM      8  O   UNL     1       4.121   1.827  19.616  0.00  0.00    +0.000 OA
ENDBRANCH   1   8
BRANCH   6   9
ATOM      9  C   UNL     1       4.718   4.268  18.375  0.00  0.00    +0.000 C 
ATOM     10  C   UNL     1       4.242   4.540  16.947  0.00  0.00    +0.000 C 
BRANCH   9  11
ATOM     11  C   UNL     1       5.759   5.342  18.781  0.00  0.00    +0.000 C 
ATOM     12  O   UNL     1       6.968   4.801  19.307  0.00  0.00    +0.000 OA
ATOM     13  C   UNL     1       7.891   5.888  19.196  0.00  0.00    +0.000 C 
ATOM     14  C   UNL     1       7.426   6.657  17.976  0.00  0.00    +0.000 C 
ATOM     15  O   UNL     1       6.085   6.221  17.709  0.00  0.00    +0.000 OA
ENDBRANCH   9  11
ENDBRANCH   6   9
TORSDOF 3
ENDMDL
MODEL 9
REMARK VINA RESULT:      -5.7      1.373      1.794
REMARK  Name = 
REMARK  5 active torsions:
REMARK  status: ('A' for Active; 'I' for Inactive)
REMARK    1  A    between atoms: C_1  and  O_2
REMARK    2  A    between atoms: O_2  and  N_3
REMARK    3  A    between atoms: C_8  and  C_9
REMARK    4  A    between atoms: C_9  and  C_10
REMARK    5  A    between atoms: C_9  and  C_11
REMARK                            x       y       z     vdW  Elec       q    Type
REMARK                         _______ _______ _______ _____ _____    ______ ____
ROOT
ATOM      1  N   UNL     1       6.636   5.340  17.259  0.00  0.00    +0.000 N 
ATOM      2  C   UNL     1       7.383   4.911  16.213  0.00  0.00    +0.000 A 
ATOM      3  C   UNL     1       6.784   4.423  15.066  0.00  0.00    +0.000 A 
ATOM      4  C   UNL     1       5.407   4.343  15.014  0.00  0.00    +0.000 A 
ATOM      5  C   UNL     1       4.655   4.723  16.126  0.00  0.00    +0.000 A 
ATOM      6  C   UNL     1       5.279   5.202  17.295  0.00  0.00    +0.000 A 
ENDROOT
BRANCH   1   8
ATOM      7  C   UNL     1       7.888   7.158  18.159  0.00  0.00    +0.000 C 
ATOM      8  O   UNL     1       7.261   5.892  18.399  0.00  0.00    +0.000 OA
ENDBRANCH   1   8
BRANCH   6   9
ATOM      9  C   UNL     1       4.475   5.613  18.529  0.00  0.00    +0.000 C 
ATOM     10  C   UNL     1       3.138   6.217  18.090  0.00  0.00    +0.000 C 
BRANCH   9  11
ATOM     11  C   UNL     1       4.217   4.521  19.596  0.00  0.00    +0.000 C 
ATOM     12  O   UNL     1       2.873   4.047  19.623  0.00  0.00    +0.000 OA
ATOM     13  C   UNL     1       2.974   2.807  20.327  0.00  0.00    +0.000 C 
ATOM     14  C   UNL     1       4.354   2.287  19.984  0.00  0.00    +0.000 C 
ATOM     15  O   UNL     1       5.088   3.402  19.456  0.00  0.00    +0.000 OA
ENDBRANCH   9  11
ENDBRANCH   6   9
TORSDOF 3
ENDMDL
