MODEL 1
REMARK VINA RESULT:      -8.4      0.000      0.000
REMARK  Name = 
REMARK  4 active torsions:
REMARK  status: ('A' for Active; 'I' for Inactive)
REMARK    1  A    between atoms: C_1  and  C_2
REMARK    2  A    between atoms: N_4  and  C_5
REMARK    3  A    between atoms: C_5  and  C_6
REMARK    4  A    between atoms: N_13  and  C_14
REMARK                            x       y       z     vdW  Elec       q    Type
REMARK                         _______ _______ _______ _____ _____    ______ ____
ROOT
ATOM      1  C   UNL     1       5.747   5.080  17.614  0.00  0.00    +0.000 C 
ATOM      2  N   UNL     1       5.486   3.699  17.907  0.00  0.00    +0.000 N 
ATOM      3  C   UNL     1       4.326   3.505  18.598  0.00  0.00    +0.000 C 
ATOM      4  O   UNL     1       4.029   2.401  19.016  0.00  0.00    +0.000 OA
ATOM      5  N   UNL     1       3.641   4.681  18.665  0.00  0.00    +0.000 N 
ATOM      6  C   UNL     1       4.372   5.648  18.014  0.00  0.00    +0.000 C 
ATOM      7  O   UNL     1       3.990   6.777  17.725  0.00  0.00    +0.000 OA
ATOM      8  H   UNL     1       6.181   2.971  17.799  0.00  0.00    +0.000 HD
ENDROOT
BRANCH   5   9
ATOM      9  C   UNL     1       2.264   4.903  19.136  0.00  0.00    +0.000 C 
ATOM     10  C   UNL     1       1.262   3.862  18.619  0.00  0.00    +0.000 C 
ATOM     11  C   UNL     1       1.323   2.525  19.349  0.00  0.00    +0.000 C 
ATOM     12  C   UNL     1       1.328   2.654  20.873  0.00  0.00    +0.000 C 
ATOM     13  C   UNL     1       2.181   3.783  21.451  0.00  0.00    +0.000 C 
ATOM     14  C   UNL     1       2.120   5.079  20.652  0.00  0.00    +0.000 C 
ENDBRANCH   5   9
BRANCH   1  18
ATOM     15  C   UNL     1       7.031   4.953  14.064  0.00  0.00    +0.000 C 
ATOM     16  C   UNL     1       6.978   4.676  15.539  0.00  0.00    +0.000 C 
ATOM     17  O   UNL     1       7.774   3.950  16.115  0.00  0.00    +0.000 OA
ATOM     18  N   UNL     1       5.913   5.257  16.178  0.00  0.00    +0.000 N 
ATOM     19  H   UNL     1       5.401   6.009  15.729  0.00  0.00    +0.000 HD
ENDBRANCH   1  18
BRANCH   1  20
ATOM     20  C   UNL     1       6.815   5.730  18.546  0.00  0.00    +0.000 C 
ATOM     21  F   UNL     1       6.383   5.826  19.829  0.00  0.00    +0.000 F 
ATOM     22  F   UNL     1       7.980   5.041  18.579  0.00  0.00    +0.000 F 
ATOM     23  F   UNL     1       7.130   6.987  18.139  0.00  0.00    +0.000 F 
ENDBRANCH   1  20
TORSDOF 3
ENDMDL
MODEL 2
REMARK VINA RESULT:      -8.1      1.083      1.427
REMARK  Name = 
REMARK  4 active torsions:
REMARK  status: ('A' for Active; 'I' for Inactive)
REMARK    1  A    between atoms: C_1  and  C_2
REMARK    2  A    between atoms: N_4  and  C_5
REMARK    3  A    between atoms: C_5  and  C_6
REMARK    4  A    between atoms: N_13  and  C_14
REMARK                            x       y       z     vdW  Elec       q    Type
REMARK                         _______ _______ _______ _____ _____    ______ ____
ROOT
ATOM      1  C   UNL     1       6.458   4.939  17.927  0.00  0.00    +0.000 C 
ATOM      2  N   UNL     1       5.967   3.708  18.482  0.00  0.00    +0.000 N 
ATOM      3  C   UNL     1       4.736   3.830  19.056  0.00  0.00    +0.000 C 
ATOM      4  O   UNL     1       4.241   2.900  19.667  0.00  0.00    +0.000 OA
ATOM      5  N   UNL     1       4.234   5.066  18.785  0.00  0.00    +0.000 N 
ATOM      6  C   UNL     1       5.156   5.755  18.029  0.00  0.00    +0.000 C 
ATOM      7  O   UNL     1       4.974   6.825  17.458  0.00  0.00    +0.000 OA
ATOM      8  H   UNL     1       6.550   2.893  18.617  0.00  0.00    +0.000 HD
ENDROOT
BRANCH   5   9
ATOM      9  C   UNL     1       2.870   5.566  19.030  0.00  0.00    +0.000 C 
ATOM     10  C   UNL     1       1.834   5.043  18.026  0.00  0.00    +0.000 C 
ATOM     11  C   UNL     1       1.383   3.610  18.288  0.00  0.00    +0.000 C 
ATOM     12  C   UNL     1       1.005   3.339  19.744  0.00  0.00    +0.000 C 
ATOM     13  C   UNL     1       1.905   3.972  20.805  0.00  0.00    +0.000 C 
ATOM     14  C   UNL     1       2.365   5.384  20.466  0.00  0.00    +0.000 C 
ENDBRANCH   5   9
BRANCH   1  18
ATOM     15  C   UNL     1       6.333   3.984  14.275  0.00  0.00    +0.000 C 
ATOM     16  C   UNL     1       5.874   4.117  15.699  0.00  0.00    +0.000 C 
ATOM     17  O   UNL     1       4.777   3.745  16.088  0.00  0.00    +0.000 OA
ATOM     18  N   UNL     1       6.771   4.755  16.517  0.00  0.00    +0.000 N 
ATOM     19  H   UNL     1       7.737   4.859  16.226  0.00  0.00    +0.000 HD
ENDBRANCH   1  18
BRANCH   1  20
ATOM     20  C   UNL     1       7.528   5.645  18.815  0.00  0.00    +0.000 C 
ATOM     21  F   UNL     1       7.902   6.846  18.306  0.00  0.00    +0.000 F 
ATOM     22  F   UNL     1       7.101   5.874  20.079  0.00  0.00    +0.000 F 
ATOM     23  F   UNL     1       8.655   4.893  18.926  0.00  0.00    +0.000 F 
ENDBRANCH   1  20
TORSDOF 3
ENDMDL
MODEL 3
REMARK VINA RESULT:      -8.1      2.103      3.054
REMARK  Name = 
REMARK  4 active torsions:
REMARK  status: ('A' for Active; 'I' for Inactive)
REMARK    1  A    between atoms: C_1  and  C_2
REMARK    2  A    between atoms: N_4  and  C_5
REMARK    3  A    between atoms: C_5  and  C_6
REMARK    4  A    between atoms: N_13  and  C_14
REMARK                            x       y       z     vdW  Elec       q    Type
REMARK                         _______ _______ _______ _____ _____    ______ ____
ROOT
ATOM      1  C   UNL     1       5.618   5.476  17.756  0.00  0.00    +0.000 C 
ATOM      2  N   UNL     1       4.506   6.376  17.636  0.00  0.00    +0.000 N 
ATOM      3  C   UNL     1       3.387   5.940  18.283  0.00  0.00    +0.000 C 
ATOM      4  O   UNL     1       2.333   6.540  18.176  0.00  0.00    +0.000 OA
ATOM      5  N   UNL     1       3.696   4.837  19.020  0.00  0.00    +0.000 N 
ATOM      6  C   UNL     1       5.031   4.554  18.842  0.00  0.00    +0.000 C 
ATOM      7  O   UNL     1       5.694   3.743  19.480  0.00  0.00    +0.000 OA
ATOM      8  H   UNL     1       4.486   7.144  16.977  0.00  0.00    +0.000 HD
ENDROOT
BRANCH   5   9
ATOM      9  C   UNL     1       2.862   4.152  20.022  0.00  0.00    +0.000 C 
ATOM     10  C   UNL     1       1.355   4.304  19.775  0.00  0.00    +0.000 C 
ATOM     11  C   UNL     1       0.813   3.404  18.672  0.00  0.00    +0.000 C 
ATOM     12  C   UNL     1       1.262   1.947  18.788  0.00  0.00    +0.000 C 
ATOM     13  C   UNL     1       2.718   1.720  19.195  0.00  0.00    +0.000 C 
ATOM     14  C   UNL     1       3.220   2.681  20.265  0.00  0.00    +0.000 C 
ENDBRANCH   5   9
BRANCH   1  18
ATOM     15  C   UNL     1       8.446   7.900  18.382  0.00  0.00    +0.000 C 
ATOM     16  C   UNL     1       7.259   7.289  17.694  0.00  0.00    +0.000 C 
ATOM     17  O   UNL     1       6.741   7.767  16.696  0.00  0.00    +0.000 OA
ATOM     18  N   UNL     1       6.761   6.177  18.324  0.00  0.00    +0.000 N 
ATOM     19  H   UNL     1       7.325   5.689  19.012  0.00  0.00    +0.000 HD
ENDBRANCH   1  18
BRANCH   1  20
ATOM     20  C   UNL     1       5.865   4.609  16.484  0.00  0.00    +0.000 C 
ATOM     21  F   UNL     1       5.590   5.288  15.342  0.00  0.00    +0.000 F 
ATOM     22  F   UNL     1       7.142   4.171  16.380  0.00  0.00    +0.000 F 
ATOM     23  F   UNL     1       5.082   3.498  16.482  0.00  0.00    +0.000 F 
ENDBRANCH   1  20
TORSDOF 3
ENDMDL
MODEL 4
REMARK VINA RESULT:      -7.8      1.784      2.375
REMARK  Name = 
REMARK  4 active torsions:
REMARK  status: ('A' for Active; 'I' for Inactive)
REMARK    1  A    between atoms: C_1  and  C_2
REMARK    2  A    between atoms: N_4  and  C_5
REMARK    3  A    between atoms: C_5  and  C_6
REMARK    4  A    between atoms: N_13  and  C_14
REMARK                            x       y       z     vdW  Elec       q    Type
REMARK                         _______ _______ _______ _____ _____    ______ ____
ROOT
ATOM      1  C   UNL     1       4.652   4.592  16.943  0.00  0.00    +0.000 C 
ATOM      2  N   UNL     1       5.479   3.976  17.943  0.00  0.00    +0.000 N 
ATOM      3  C   UNL     1       4.774   3.230  18.841  0.00  0.00    +0.000 C 
ATOM      4  O   UNL     1       5.324   2.741  19.811  0.00  0.00    +0.000 OA
ATOM      5  N   UNL     1       3.480   3.134  18.427  0.00  0.00    +0.000 N 
ATOM      6  C   UNL     1       3.347   3.833  17.249  0.00  0.00    +0.000 C 
ATOM      7  O   UNL     1       2.373   3.822  16.502  0.00  0.00    +0.000 OA
ATOM      8  H   UNL     1       6.447   4.232  18.092  0.00  0.00    +0.000 HD
ENDROOT
BRANCH   5   9
ATOM      9  C   UNL     1       2.416   2.272  18.969  0.00  0.00    +0.000 C 
ATOM     10  C   UNL     1       2.749   1.674  20.342  0.00  0.00    +0.000 C 
ATOM     11  C   UNL     1       2.585   2.649  21.501  0.00  0.00    +0.000 C 
ATOM     12  C   UNL     1       1.262   3.414  21.481  0.00  0.00    +0.000 C 
ATOM     13  C   UNL     1       0.784   3.900  20.113  0.00  0.00    +0.000 C 
ATOM     14  C   UNL     1       1.019   2.905  18.984  0.00  0.00    +0.000 C 
ENDBRANCH   5   9
BRANCH   1  18
ATOM     15  C   UNL     1       6.721   4.022  13.835  0.00  0.00    +0.000 C 
ATOM     16  C   UNL     1       6.395   4.469  15.231  0.00  0.00    +0.000 C 
ATOM     17  O   UNL     1       7.214   4.975  15.983  0.00  0.00    +0.000 OA
ATOM     18  N   UNL     1       5.107   4.199  15.617  0.00  0.00    +0.000 N 
ATOM     19  H   UNL     1       4.405   3.978  14.919  0.00  0.00    +0.000 HD
ENDBRANCH   1  18
BRANCH   1  20
ATOM     20  C   UNL     1       4.387   6.108  17.193  0.00  0.00    +0.000 C 
ATOM     21  F   UNL     1       5.332   6.667  17.989  0.00  0.00    +0.000 F 
ATOM     22  F   UNL     1       4.357   6.836  16.052  0.00  0.00    +0.000 F 
ATOM     23  F   UNL     1       3.188   6.307  17.801  0.00  0.00    +0.000 F 
ENDBRANCH   1  20
TORSDOF 3
ENDMDL
MODEL 5
REMARK VINA RESULT:      -7.6      2.090      3.094
REMARK  Name = 
REMARK  4 active torsions:
REMARK  status: ('A' for Active; 'I' for Inactive)
REMARK    1  A    between atoms: C_1  and  C_2
REMARK    2  A    between atoms: N_4  and  C_5
REMARK    3  A    between atoms: C_5  and  C_6
REMARK    4  A    between atoms: N_13  and  C_14
REMARK                            x       y       z     vdW  Elec       q    Type
REMARK                         _______ _______ _______ _____ _____    ______ ____
ROOT
ATOM      1  C   UNL     1       5.545   5.212  17.530  0.00  0.00    +0.000 C 
ATOM      2  N   UNL     1       4.281   5.892  17.524  0.00  0.00    +0.000 N 
ATOM      3  C   UNL     1       3.326   5.261  18.265  0.00  0.00    +0.000 C 
ATOM      4  O   UNL     1       2.174   5.656  18.263  0.00  0.00    +0.000 OA
ATOM      5  N   UNL     1       3.898   4.237  18.957  0.00  0.00    +0.000 N 
ATOM      6  C   UNL     1       5.240   4.203  18.653  0.00  0.00    +0.000 C 
ATOM      7  O   UNL     1       6.097   3.530  19.217  0.00  0.00    +0.000 OA
ATOM      8  H   UNL     1       4.060   6.640  16.879  0.00  0.00    +0.000 HD
ENDROOT
BRANCH   5   9
ATOM      9  C   UNL     1       3.300   3.415  20.022  0.00  0.00    +0.000 C 
ATOM     10  C   UNL     1       2.393   4.207  20.973  0.00  0.00    +0.000 C 
ATOM     11  C   UNL     1       1.014   4.516  20.403  0.00  0.00    +0.000 C 
ATOM     12  C   UNL     1       0.321   3.306  19.774  0.00  0.00    +0.000 C 
ATOM     13  C   UNL     1       1.207   2.377  18.944  0.00  0.00    +0.000 C 
ATOM     14  C   UNL     1       2.590   2.145  19.537  0.00  0.00    +0.000 C 
ENDBRANCH   5   9
BRANCH   1  18
ATOM     15  C   UNL     1       7.930   8.115  17.921  0.00  0.00    +0.000 C 
ATOM     16  C   UNL     1       6.818   7.293  17.337  0.00  0.00    +0.000 C 
ATOM     17  O   UNL     1       6.134   7.661  16.393  0.00  0.00    +0.000 OA
ATOM     18  N   UNL     1       6.588   6.113  17.999  0.00  0.00    +0.000 N 
ATOM     19  H   UNL     1       7.290   5.742  18.630  0.00  0.00    +0.000 HD
ENDBRANCH   1  18
BRANCH   1  20
ATOM     20  C   UNL     1       5.828   4.400  16.229  0.00  0.00    +0.000 C 
ATOM     21  F   UNL     1       5.285   3.157  16.275  0.00  0.00    +0.000 F 
ATOM     22  F   UNL     1       5.343   4.996  15.115  0.00  0.00    +0.000 F 
ATOM     23  F   UNL     1       7.162   4.241  16.024  0.00  0.00    +0.000 F 
ENDBRANCH   1  20
TORSDOF 3
ENDMDL
MODEL 6
REMARK VINA RESULT:      -7.5      0.860      1.215
REMARK  Name = 
REMARK  4 active torsions:
REMARK  status: ('A' for Active; 'I' for Inactive)
REMARK    1  A    between atoms: C_1  and  C_2
REMARK    2  A    between atoms: N_4  and  C_5
REMARK    3  A    between atoms: C_5  and  C_6
REMARK    4  A    between atoms: N_13  and  C_14
REMARK                            x       y       z     vdW  Elec       q    Type
REMARK                         _______ _______ _______ _____ _____    ______ ____
ROOT
ATOM      1  C   UNL     1       6.054   4.610  17.917  0.00  0.00    +0.000 C 
ATOM      2  N   UNL     1       5.668   3.486  18.723  0.00  0.00    +0.000 N 
ATOM      3  C   UNL     1       4.439   3.632  19.298  0.00  0.00    +0.000 C 
ATOM      4  O   UNL     1       4.027   2.812  20.098  0.00  0.00    +0.000 OA
ATOM      5  N   UNL     1       3.839   4.747  18.798  0.00  0.00    +0.000 N 
ATOM      6  C   UNL     1       4.693   5.333  17.892  0.00  0.00    +0.000 C 
ATOM      7  O   UNL     1       4.421   6.248  17.122  0.00  0.00    +0.000 OA
ATOM      8  H   UNL     1       6.315   2.760  19.002  0.00  0.00    +0.000 HD
ENDROOT
BRANCH   5   9
ATOM      9  C   UNL     1       2.444   5.185  18.978  0.00  0.00    +0.000 C 
ATOM     10  C   UNL     1       1.444   4.433  18.090  0.00  0.00    +0.000 C 
ATOM     11  C   UNL     1       1.096   3.036  18.591  0.00  0.00    +0.000 C 
ATOM     12  C   UNL     1       0.743   2.984  20.078  0.00  0.00    +0.000 C 
ATOM     13  C   UNL     1       1.600   3.844  21.006  0.00  0.00    +0.000 C 
ATOM     14  C   UNL     1       1.958   5.209  20.432  0.00  0.00    +0.000 C 
ENDBRANCH   5   9
BRANCH   1  18
ATOM     15  C   UNL     1       7.150   4.460  14.306  0.00  0.00    +0.000 C 
ATOM     16  C   UNL     1       6.901   5.049  15.665  0.00  0.00    +0.000 C 
ATOM     17  O   UNL     1       7.205   6.193  15.967  0.00  0.00    +0.000 OA
ATOM     18  N   UNL     1       6.359   4.167  16.564  0.00  0.00    +0.000 N 
ATOM     19  H   UNL     1       5.929   3.309  16.236  0.00  0.00    +0.000 HD
ENDBRANCH   1  18
BRANCH   1  20
ATOM     20  C   UNL     1       7.078   5.559  18.612  0.00  0.00    +0.000 C 
ATOM     21  F   UNL     1       8.360   5.164  18.407  0.00  0.00    +0.000 F 
ATOM     22  F   UNL     1       6.992   6.840  18.182  0.00  0.00    +0.000 F 
ATOM     23  F   UNL     1       6.885   5.597  19.957  0.00  0.00    +0.000 F 
ENDBRANCH   1  20
TORSDOF 3
ENDMDL
MODEL 7
REMARK VINA RESULT:      -7.4      2.131      3.140
REMARK  Name = 
REMARK  4 active torsions:
REMARK  status: ('A' for Active; 'I' for Inactive)
REMARK    1  A    between atoms: C_1  and  C_2
REMARK    2  A    between atoms: N_4  and  C_5
REMARK    3  A    between atoms: C_5  and  C_6
REMARK    4  A    between atoms: N_13  and  C_14
REMARK                            x       y       z     vdW  Elec       q    Type
REMARK                         _______ _______ _______ _____ _____    ______ ____
ROOT
ATOM      1  C   UNL     1       5.186   5.274  17.107  0.00  0.00    +0.000 C 
ATOM      2  N   UNL     1       4.164   6.214  17.472  0.00  0.00    +0.000 N 
ATOM      3  C   UNL     1       2.986   5.621  17.820  0.00  0.00    +0.000 C 
ATOM      4  O   UNL     1       1.994   6.291  18.042  0.00  0.00    +0.000 OA
ATOM      5  N   UNL     1       3.166   4.273  17.893  0.00  0.00    +0.000 N 
ATOM      6  C   UNL     1       4.477   3.992  17.581  0.00  0.00    +0.000 C 
ATOM      7  O   UNL     1       5.040   2.910  17.713  0.00  0.00    +0.000 OA
ATOM      8  H   UNL     1       4.238   7.207  17.293  0.00  0.00    +0.000 HD
ENDROOT
BRANCH   5   9
ATOM      9  C   UNL     1       2.236   3.260  18.418  0.00  0.00    +0.000 C 
ATOM     10  C   UNL     1       2.919   2.178  19.265  0.00  0.00    +0.000 C 
ATOM     11  C   UNL     1       3.270   2.626  20.679  0.00  0.00    +0.000 C 
ATOM     12  C   UNL     1       2.123   3.328  21.407  0.00  0.00    +0.000 C 
ATOM     13  C   UNL     1       1.292   4.302  20.573  0.00  0.00    +0.000 C 
ATOM     14  C   UNL     1       1.014   3.825  19.154  0.00  0.00    +0.000 C 
ENDBRANCH   5   9
BRANCH   1  18
ATOM     15  C   UNL     1       8.245   6.732  18.775  0.00  0.00    +0.000 C 
ATOM     16  C   UNL     1       7.046   6.666  17.875  0.00  0.00    +0.000 C 
ATOM     17  O   UNL     1       6.670   7.604  17.187  0.00  0.00    +0.000 OA
ATOM     18  N   UNL     1       6.363   5.478  17.939  0.00  0.00    +0.000 N 
ATOM     19  H   UNL     1       6.807   4.661  18.346  0.00  0.00    +0.000 HD
ENDBRANCH   1  18
BRANCH   1  20
ATOM     20  C   UNL     1       5.406   5.150  15.568  0.00  0.00    +0.000 C 
ATOM     21  F   UNL     1       6.695   4.863  15.258  0.00  0.00    +0.000 F 
ATOM     22  F   UNL     1       4.645   4.186  15.000  0.00  0.00    +0.000 F 
ATOM     23  F   UNL     1       5.093   6.307  14.928  0.00  0.00    +0.000 F 
ENDBRANCH   1  20
TORSDOF 3
ENDMDL
MODEL 8
REMARK VINA RESULT:      -7.3      1.371      1.719
REMARK  Name = 
REMARK  4 active torsions:
REMARK  status: ('A' for Active; 'I' for Inactive)
REMARK    1  A    between atoms: C_1  and  C_2
REMARK    2  A    between atoms: N_4  and  C_5
REMARK    3  A    between atoms: C_5  and  C_6
REMARK    4  A    between atoms: N_13  and  C_14
REMARK                            x       y       z     vdW  Elec       q    Type
REMARK                         _______ _______ _______ _____ _____    ______ ____
ROOT
ATOM      1  C   UNL     1       6.462   5.753  17.007  0.00  0.00    +0.000 C 
ATOM      2  N   UNL     1       6.509   4.556  17.799  0.00  0.00    +0.000 N 
ATOM      3  C   UNL     1       5.404   4.384  18.580  0.00  0.00    +0.000 C 
ATOM      4  O   UNL     1       5.351   3.476  19.389  0.00  0.00    +0.000 OA
ATOM      5  N   UNL     1       4.473   5.322  18.254  0.00  0.00    +0.000 N 
ATOM      6  C   UNL     1       4.985   6.116  17.253  0.00  0.00    +0.000 C 
ATOM      7  O   UNL     1       4.368   6.947  16.595  0.00  0.00    +0.000 OA
ATOM      8  H   UNL     1       7.351   4.009  17.922  0.00  0.00    +0.000 HD
ENDROOT
BRANCH   5   9
ATOM      9  C   UNL     1       3.069   5.398  18.693  0.00  0.00    +0.000 C 
ATOM     10  C   UNL     1       2.098   4.640  17.778  0.00  0.00    +0.000 C 
ATOM     11  C   UNL     1       2.105   3.129  17.979  0.00  0.00    +0.000 C 
ATOM     12  C   UNL     1       2.014   2.702  19.444  0.00  0.00    +0.000 C 
ATOM     13  C   UNL     1       2.832   3.523  20.439  0.00  0.00    +0.000 C 
ATOM     14  C   UNL     1       2.829   5.021  20.159  0.00  0.00    +0.000 C 
ENDBRANCH   5   9
BRANCH   1  18
ATOM     15  C   UNL     1       6.404   4.000  13.662  0.00  0.00    +0.000 C 
ATOM     16  C   UNL     1       6.161   4.216  15.128  0.00  0.00    +0.000 C 
ATOM     17  O   UNL     1       5.556   3.422  15.833  0.00  0.00    +0.000 OA
ATOM     18  N   UNL     1       6.620   5.420  15.598  0.00  0.00    +0.000 N 
ATOM     19  H   UNL     1       7.290   5.953  15.055  0.00  0.00    +0.000 HD
ENDBRANCH   1  18
BRANCH   1  20
ATOM     20  C   UNL     1       7.334   6.916  17.573  0.00  0.00    +0.000 C 
ATOM     21  F   UNL     1       8.170   7.430  16.637  0.00  0.00    +0.000 F 
ATOM     22  F   UNL     1       6.598   7.948  18.047  0.00  0.00    +0.000 F 
ATOM     23  F   UNL     1       8.108   6.495  18.608  0.00  0.00    +0.000 F 
ENDBRANCH   1  20
TORSDOF 3
ENDMDL
