MODEL 1
REMARK VINA RESULT:      -7.3      0.000      0.000
REMARK  Name = 
REMARK  7 active torsions:
REMARK  status: ('A' for Active; 'I' for Inactive)
REMARK    1  A    between atoms: C_1  and  N_2
REMARK    2  A    between atoms: N_2  and  C_3
REMARK    3  A    between atoms: N_6  and  C_7
REMARK    4  A    between atoms: C_10  and  C_11
REMARK    5  A    between atoms: C_17  and  C_18
REMARK    6  A    between atoms: C_20  and  O_21
REMARK    7  A    between atoms: O_21  and  C_22
REMARK                            x       y       z     vdW  Elec       q    Type
REMARK                         _______ _______ _______ _____ _____    ______ ____
ROOT
ATOM      1  C   UNL     1       2.044   6.933  20.241  0.00  0.00    +0.000 A 
ATOM      2  C   UNL     1       2.338   7.465  18.966  0.00  0.00    +0.000 A 
ATOM      3  C   UNL     1       2.834   6.668  17.934  0.00  0.00    +0.000 A 
ATOM      4  C   UNL     1       3.075   5.312  18.154  0.00  0.00    +0.000 A 
ATOM      5  C   UNL     1       2.811   4.775  19.413  0.00  0.00    +0.000 A 
ATOM      6  C   UNL     1       2.276   5.561  20.450  0.00  0.00    +0.000 A 
ENDROOT
BRANCH   1  10
ATOM      7  C   UNL     1      -0.675  10.231  20.037  0.00  0.00    +0.000 A 
ATOM      8  N   UNL     1       0.079   9.122  20.131  0.00  0.00    +0.000 NA
ATOM      9  C   UNL     1       0.937   8.990  21.157  0.00  0.00    +0.000 A 
ATOM     10  N   UNL     1       1.664   7.804  21.283  0.00  0.00    +0.000 N 
ATOM     11  N   UNL     1       1.112   9.922  22.097  0.00  0.00    +0.000 NA
ATOM     12  C   UNL     1       0.352  11.037  21.983  0.00  0.00    +0.000 A 
ATOM     13  C   UNL     1      -0.572  11.241  20.981  0.00  0.00    +0.000 A 
ATOM     14 CL   UNL     1      -1.524  12.671  20.949  0.00  0.00    +0.000 Cl
ATOM     15  H   UNL     1       2.402   7.963  21.960  0.00  0.00    +0.000 HD
BRANCH   7  17
ATOM     16  C   UNL     1      -0.963   9.964  17.658  0.00  0.00    +0.000 C 
ATOM     17  N   UNL     1      -1.543  10.362  18.933  0.00  0.00    +0.000 N 
ATOM     18  H   UNL     1      -2.423   9.894  19.134  0.00  0.00    +0.000 HD
ENDBRANCH   7  17
ENDBRANCH   1  10
BRANCH   4  19
ATOM     19  C   UNL     1       3.762   4.544  17.094  0.00  0.00    +0.000 C 
ATOM     20  O   UNL     1       3.142   3.592  16.614  0.00  0.00    +0.000 OA
ATOM     21  N   UNL     1       5.041   4.877  16.661  0.00  0.00    +0.000 N 
ATOM     22  C   UNL     1       5.543   4.238  15.456  0.00  0.00    +0.000 C 
ATOM     23  C   UNL     1       7.045   4.287  15.614  0.00  0.00    +0.000 C 
ATOM     24  C   UNL     1       7.279   5.616  16.318  0.00  0.00    +0.000 C 
ATOM     25  C   UNL     1       6.019   5.842  17.181  0.00  0.00    +0.000 C 
ATOM     26  C   UNL     1       6.343   5.686  18.662  0.00  0.00    +0.000 C 
ENDBRANCH   4  19
BRANCH   6  27
ATOM     27  O   UNL     1       2.049   4.807  21.572  0.00  0.00    +0.000 OA
ATOM     28  C   UNL     1       1.737   3.431  21.458  0.00  0.00    +0.000 C 
ENDBRANCH   6  27
TORSDOF 4
ENDMDL
MODEL 2
REMARK VINA RESULT:      -7.2      3.892      7.922
REMARK  Name = 
REMARK  7 active torsions:
REMARK  status: ('A' for Active; 'I' for Inactive)
REMARK    1  A    between atoms: C_1  and  N_2
REMARK    2  A    between atoms: N_2  and  C_3
REMARK    3  A    between atoms: N_6  and  C_7
REMARK    4  A    between atoms: C_10  and  C_11
REMARK    5  A    between atoms: C_17  and  C_18
REMARK    6  A    between atoms: C_20  and  O_21
REMARK    7  A    between atoms: O_21  and  C_22
REMARK                            x       y       z     vdW  Elec       q    Type
REMARK                         _______ _______ _______ _____ _____    ______ ____
ROOT
ATOM      1  C   UNL     1       1.972   7.895  19.134  0.00  0.00    +0.000 A 
ATOM      2  C   UNL     1       1.803   8.510  17.872  0.00  0.00    +0.000 A 
ATOM      3  C   UNL     1       1.178   9.750  17.738  0.00  0.00    +0.000 A 
ATOM      4  C   UNL     1       0.681  10.406  18.864  0.00  0.00    +0.000 A 
ATOM      5  C   UNL     1       0.820   9.804  20.113  0.00  0.00    +0.000 A 
ATOM      6  C   UNL     1       1.481   8.571  20.266  0.00  0.00    +0.000 A 
ENDROOT
BRANCH   1  10
ATOM      7  C   UNL     1       5.491   6.384  17.223  0.00  0.00    +0.000 A 
ATOM      8  N   UNL     1       4.460   6.889  17.923  0.00  0.00    +0.000 NA
ATOM      9  C   UNL     1       3.526   6.059  18.417  0.00  0.00    +0.000 A 
ATOM     10  N   UNL     1       2.497   6.588  19.200  0.00  0.00    +0.000 N 
ATOM     11  N   UNL     1       3.542   4.737  18.233  0.00  0.00    +0.000 NA
ATOM     12  C   UNL     1       4.581   4.245  17.519  0.00  0.00    +0.000 A 
ATOM     13  C   UNL     1       5.596   5.020  17.001  0.00  0.00    +0.000 A 
ATOM     14 CL   UNL     1       6.900   4.295  16.148  0.00  0.00    +0.000 Cl
ATOM     15  H   UNL     1       1.782   5.875  19.297  0.00  0.00    +0.000 HD
BRANCH   7  17
ATOM     16  C   UNL     1       7.566   7.565  17.564  0.00  0.00    +0.000 C 
ATOM     17  N   UNL     1       6.440   7.278  16.685  0.00  0.00    +0.000 N 
ATOM     18  H   UNL     1       6.726   6.958  15.764  0.00  0.00    +0.000 HD
ENDBRANCH   7  17
ENDBRANCH   1  10
BRANCH   4  19
ATOM     19  C   UNL     1      -0.126  11.628  18.660  0.00  0.00    +0.000 C 
ATOM     20  O   UNL     1      -1.264  11.468  18.212  0.00  0.00    +0.000 OA
ATOM     21  N   UNL     1       0.372  12.892  18.956  0.00  0.00    +0.000 N 
ATOM     22  C   UNL     1      -0.558  14.009  18.966  0.00  0.00    +0.000 C 
ATOM     23  C   UNL     1       0.310  15.212  18.680  0.00  0.00    +0.000 C 
ATOM     24  C   UNL     1       1.615  14.877  19.390  0.00  0.00    +0.000 C 
ATOM     25  C   UNL     1       1.719  13.338  19.336  0.00  0.00    +0.000 C 
ATOM     26  C   UNL     1       2.826  12.906  18.381  0.00  0.00    +0.000 C 
ENDBRANCH   4  19
BRANCH   6  27
ATOM     27  O   UNL     1       1.545   8.207  21.585  0.00  0.00    +0.000 OA
ATOM     28  C   UNL     1       1.085   9.088  22.593  0.00  0.00    +0.000 C 
ENDBRANCH   6  27
TORSDOF 4
ENDMDL
MODEL 3
REMARK VINA RESULT:      -7.1      3.930      8.926
REMARK  Name = 
REMARK  7 active torsions:
REMARK  status: ('A' for Active; 'I' for Inactive)
REMARK    1  A    between atoms: C_1  and  N_2
REMARK    2  A    between atoms: N_2  and  C_3
REMARK    3  A    between atoms: N_6  and  C_7
REMARK    4  A    between atoms: C_10  and  C_11
REMARK    5  A    between atoms: C_17  and  C_18
REMARK    6  A    between atoms: C_20  and  O_21
REMARK    7  A    between atoms: O_21  and  C_22
REMARK                            x       y       z     vdW  Elec       q    Type
REMARK                         _______ _______ _______ _____ _____    ______ ____
ROOT
ATOM      1  C   UNL     1       0.826  10.169  18.424  0.00  0.00    +0.000 A 
ATOM      2  C   UNL     1       1.489  11.010  19.347  0.00  0.00    +0.000 A 
ATOM      3  C   UNL     1       0.804  11.982  20.077  0.00  0.00    +0.000 A 
ATOM      4  C   UNL     1      -0.567  12.159  19.890  0.00  0.00    +0.000 A 
ATOM      5  C   UNL     1      -1.232  11.353  18.968  0.00  0.00    +0.000 A 
ATOM      6  C   UNL     1      -0.560  10.345  18.253  0.00  0.00    +0.000 A 
ENDROOT
BRANCH   1  10
ATOM      7  C   UNL     1       2.635   6.468  19.583  0.00  0.00    +0.000 A 
ATOM      8  N   UNL     1       1.963   7.563  19.188  0.00  0.00    +0.000 NA
ATOM      9  C   UNL     1       2.331   8.195  18.061  0.00  0.00    +0.000 A 
ATOM     10  N   UNL     1       1.583   9.290  17.623  0.00  0.00    +0.000 N 
ATOM     11  N   UNL     1       3.361   7.812  17.303  0.00  0.00    +0.000 NA
ATOM     12  C   UNL     1       4.034   6.713  17.719  0.00  0.00    +0.000 A 
ATOM     13  C   UNL     1       3.707   5.989  18.845  0.00  0.00    +0.000 A 
ATOM     14 CL   UNL     1       4.593   4.578  19.265  0.00  0.00    +0.000 Cl
ATOM     15  H   UNL     1       2.119   9.766  16.905  0.00  0.00    +0.000 HD
BRANCH   7  17
ATOM     16  C   UNL     1       1.364   4.700  20.620  0.00  0.00    +0.000 C 
ATOM     17  N   UNL     1       2.252   5.842  20.788  0.00  0.00    +0.000 N 
ATOM     18  H   UNL     1       3.079   5.627  21.338  0.00  0.00    +0.000 HD
ENDBRANCH   7  17
ENDBRANCH   1  10
BRANCH   4  19
ATOM     19  C   UNL     1      -1.218  13.311  20.550  0.00  0.00    +0.000 C 
ATOM     20  O   UNL     1      -0.971  14.425  20.083  0.00  0.00    +0.000 OA
ATOM     21  N   UNL     1      -2.066  13.146  21.640  0.00  0.00    +0.000 N 
ATOM     22  C   UNL     1      -2.855  14.288  22.070  0.00  0.00    +0.000 C 
ATOM     23  C   UNL     1      -3.128  14.015  23.532  0.00  0.00    +0.000 C 
ATOM     24  C   UNL     1      -3.287  12.502  23.581  0.00  0.00    +0.000 C 
ATOM     25  C   UNL     1      -2.377  11.965  22.456  0.00  0.00    +0.000 C 
ATOM     26  C   UNL     1      -1.161  11.254  23.038  0.00  0.00    +0.000 C 
ENDBRANCH   4  19
BRANCH   6  27
ATOM     27  O   UNL     1      -1.426   9.648  17.452  0.00  0.00    +0.000 OA
ATOM     28  C   UNL     1      -2.763  10.086  17.294  0.00  0.00    +0.000 C 
ENDBRANCH   6  27
TORSDOF 4
ENDMDL
MODEL 4
REMARK VINA RESULT:      -7.0      2.631      3.816
REMARK  Name = 
REMARK  7 active torsions:
REMARK  status: ('A' for Active; 'I' for Inactive)
REMARK    1  A    between atoms: C_1  and  N_2
REMARK    2  A    between atoms: N_2  and  C_3
REMARK    3  A    between atoms: N_6  and  C_7
REMARK    4  A    between atoms: C_10  and  C_11
REMARK    5  A    between atoms: C_17  and  C_18
REMARK    6  A    between atoms: C_20  and  O_21
REMARK    7  A    between atoms: O_21  and  C_22
REMARK                            x       y       z     vdW  Elec       q    Type
REMARK                         _______ _______ _______ _____ _____    ______ ____
ROOT
ATOM      1  C   UNL     1       0.726   9.472  19.286  0.00  0.00    +0.000 A 
ATOM      2  C   UNL     1       1.201   9.442  17.955  0.00  0.00    +0.000 A 
ATOM      3  C   UNL     1       2.133   8.495  17.529  0.00  0.00    +0.000 A 
ATOM      4  C   UNL     1       2.640   7.560  18.431  0.00  0.00    +0.000 A 
ATOM      5  C   UNL     1       2.199   7.590  19.754  0.00  0.00    +0.000 A 
ATOM      6  C   UNL     1       1.232   8.515  20.186  0.00  0.00    +0.000 A 
ENDROOT
BRANCH   1  10
ATOM      7  C   UNL     1       1.865  13.344  20.710  0.00  0.00    +0.000 A 
ATOM      8  N   UNL     1       1.506  12.178  20.145  0.00  0.00    +0.000 NA
ATOM      9  C   UNL     1       0.266  11.701  20.342  0.00  0.00    +0.000 A 
ATOM     10  N   UNL     1      -0.119  10.525  19.695  0.00  0.00    +0.000 N 
ATOM     11  N   UNL     1      -0.648  12.312  21.101  0.00  0.00    +0.000 NA
ATOM     12  C   UNL     1      -0.268  13.480  21.670  0.00  0.00    +0.000 A 
ATOM     13  C   UNL     1       0.973  14.054  21.498  0.00  0.00    +0.000 A 
ATOM     14 CL   UNL     1       1.344  15.566  22.224  0.00  0.00    +0.000 Cl
ATOM     15  H   UNL     1      -0.980  10.202  20.122  0.00  0.00    +0.000 HD
BRANCH   7  17
ATOM     16  C   UNL     1       3.392  14.538  19.275  0.00  0.00    +0.000 C 
ATOM     17  N   UNL     1       3.183  13.807  20.517  0.00  0.00    +0.000 N 
ATOM     18  H   UNL     1       3.487  14.322  21.339  0.00  0.00    +0.000 HD
ENDBRANCH   7  17
ENDBRANCH   1  10
BRANCH   4  19
ATOM     19  C   UNL     1       3.751   6.692  17.986  0.00  0.00    +0.000 C 
ATOM     20  O   UNL     1       4.735   7.260  17.506  0.00  0.00    +0.000 OA
ATOM     21  N   UNL     1       3.690   5.308  18.103  0.00  0.00    +0.000 N 
ATOM     22  C   UNL     1       4.908   4.549  17.879  0.00  0.00    +0.000 C 
ATOM     23  C   UNL     1       4.417   3.184  17.453  0.00  0.00    +0.000 C 
ATOM     24  C   UNL     1       3.154   2.994  18.282  0.00  0.00    +0.000 C 
ATOM     25  C   UNL     1       2.587   4.415  18.483  0.00  0.00    +0.000 C 
ATOM     26  C   UNL     1       1.307   4.605  17.676  0.00  0.00    +0.000 C 
ENDBRANCH   4  19
BRANCH   6  27
ATOM     27  O   UNL     1       0.915   8.318  21.504  0.00  0.00    +0.000 OA
ATOM     28  C   UNL     1       1.521   9.107  22.511  0.00  0.00    +0.000 C 
ENDBRANCH   6  27
TORSDOF 4
ENDMDL
MODEL 5
REMARK VINA RESULT:      -7.0      2.994      3.973
REMARK  Name = 
REMARK  7 active torsions:
REMARK  status: ('A' for Active; 'I' for Inactive)
REMARK    1  A    between atoms: C_1  and  N_2
REMARK    2  A    between atoms: N_2  and  C_3
REMARK    3  A    between atoms: N_6  and  C_7
REMARK    4  A    between atoms: C_10  and  C_11
REMARK    5  A    between atoms: C_17  and  C_18
REMARK    6  A    between atoms: C_20  and  O_21
REMARK    7  A    between atoms: O_21  and  C_22
REMARK                            x       y       z     vdW  Elec       q    Type
REMARK                         _______ _______ _______ _____ _____    ______ ____
ROOT
ATOM      1  C   UNL     1       0.918   9.350  19.134  0.00  0.00    +0.000 A 
ATOM      2  C   UNL     1       1.454   9.215  17.833  0.00  0.00    +0.000 A 
ATOM      3  C   UNL     1       2.342   8.190  17.508  0.00  0.00    +0.000 A 
ATOM      4  C   UNL     1       2.742   7.277  18.483  0.00  0.00    +0.000 A 
ATOM      5  C   UNL     1       2.240   7.408  19.777  0.00  0.00    +0.000 A 
ATOM      6  C   UNL     1       1.315   8.415  20.108  0.00  0.00    +0.000 A 
ENDROOT
BRANCH   1  10
ATOM      7  C   UNL     1       1.873  13.476  18.522  0.00  0.00    +0.000 A 
ATOM      8  N   UNL     1       1.522  12.181  18.598  0.00  0.00    +0.000 NA
ATOM      9  C   UNL     1       0.528  11.812  19.423  0.00  0.00    +0.000 A 
ATOM     10  N   UNL     1       0.125  10.474  19.442  0.00  0.00    +0.000 N 
ATOM     11  N   UNL     1      -0.132  12.664  20.210  0.00  0.00    +0.000 NA
ATOM     12  C   UNL     1       0.240  13.964  20.129  0.00  0.00    +0.000 A 
ATOM     13  C   UNL     1       1.227  14.432  19.291  0.00  0.00    +0.000 A 
ATOM     14 CL   UNL     1       1.595  16.109  19.225  0.00  0.00    +0.000 Cl
ATOM     15  H   UNL     1      -0.462  10.338  20.258  0.00  0.00    +0.000 HD
BRANCH   7  17
ATOM     16  C   UNL     1       4.173  14.187  18.370  0.00  0.00    +0.000 C 
ATOM     17  N   UNL     1       2.942  13.835  17.675  0.00  0.00    +0.000 N 
ATOM     18  H   UNL     1       3.075  13.114  16.970  0.00  0.00    +0.000 HD
ENDBRANCH   7  17
ENDBRANCH   1  10
BRANCH   4  19
ATOM     19  C   UNL     1       3.814   6.317  18.144  0.00  0.00    +0.000 C 
ATOM     20  O   UNL     1       4.873   6.798  17.734  0.00  0.00    +0.000 OA
ATOM     21  N   UNL     1       3.637   4.944  18.279  0.00  0.00    +0.000 N 
ATOM     22  C   UNL     1       4.808   4.090  18.166  0.00  0.00    +0.000 C 
ATOM     23  C   UNL     1       4.247   2.758  17.726  0.00  0.00    +0.000 C 
ATOM     24  C   UNL     1       2.912   2.682  18.453  0.00  0.00    +0.000 C 
ATOM     25  C   UNL     1       2.442   4.147  18.584  0.00  0.00    +0.000 C 
ATOM     26  C   UNL     1       1.249   4.414  17.673  0.00  0.00    +0.000 C 
ENDBRANCH   4  19
BRANCH   6  27
ATOM     27  O   UNL     1       0.923   8.312  21.417  0.00  0.00    +0.000 OA
ATOM     28  C   UNL     1       1.403   9.230  22.382  0.00  0.00    +0.000 C 
ENDBRANCH   6  27
TORSDOF 4
ENDMDL
MODEL 6
REMARK VINA RESULT:      -7.0      4.002      7.921
REMARK  Name = 
REMARK  7 active torsions:
REMARK  status: ('A' for Active; 'I' for Inactive)
REMARK    1  A    between atoms: C_1  and  N_2
REMARK    2  A    between atoms: N_2  and  C_3
REMARK    3  A    between atoms: N_6  and  C_7
REMARK    4  A    between atoms: C_10  and  C_11
REMARK    5  A    between atoms: C_17  and  C_18
REMARK    6  A    between atoms: C_20  and  O_21
REMARK    7  A    between atoms: O_21  and  C_22
REMARK                            x       y       z     vdW  Elec       q    Type
REMARK                         _______ _______ _______ _____ _____    ______ ____
ROOT
ATOM      1  C   UNL     1       1.437   8.741  20.232  0.00  0.00    +0.000 A 
ATOM      2  C   UNL     1       1.301   9.149  18.886  0.00  0.00    +0.000 A 
ATOM      3  C   UNL     1       0.824  10.416  18.547  0.00  0.00    +0.000 A 
ATOM      4  C   UNL     1       0.445  11.310  19.548  0.00  0.00    +0.000 A 
ATOM      5  C   UNL     1       0.552  10.916  20.882  0.00  0.00    +0.000 A 
ATOM      6  C   UNL     1       1.066   9.655  21.236  0.00  0.00    +0.000 A 
ENDROOT
BRANCH   1  10
ATOM      7  C   UNL     1       3.809   6.108  17.835  0.00  0.00    +0.000 A 
ATOM      8  N   UNL     1       3.173   6.973  18.644  0.00  0.00    +0.000 NA
ATOM      9  C   UNL     1       2.405   6.503  19.641  0.00  0.00    +0.000 A 
ATOM     10  N   UNL     1       1.804   7.410  20.517  0.00  0.00    +0.000 N 
ATOM     11  N   UNL     1       2.208   5.203  19.871  0.00  0.00    +0.000 NA
ATOM     12  C   UNL     1       2.849   4.345  19.042  0.00  0.00    +0.000 A 
ATOM     13  C   UNL     1       3.676   4.740  18.014  0.00  0.00    +0.000 A 
ATOM     14 CL   UNL     1       4.484   3.573  17.046  0.00  0.00    +0.000 Cl
ATOM     15  H   UNL     1       1.103   6.908  21.052  0.00  0.00    +0.000 HD
BRANCH   7  17
ATOM     16  C   UNL     1       5.971   6.899  17.115  0.00  0.00    +0.000 C 
ATOM     17  N   UNL     1       4.582   6.624  16.774  0.00  0.00    +0.000 N 
ATOM     18  H   UNL     1       4.483   6.026  15.958  0.00  0.00    +0.000 HD
ENDBRANCH   7  17
ENDBRANCH   1  10
BRANCH   4  19
ATOM     19  C   UNL     1      -0.217  12.569  19.146  0.00  0.00    +0.000 C 
ATOM     20  O   UNL     1      -1.363  12.471  18.703  0.00  0.00    +0.000 OA
ATOM     21  N   UNL     1       0.420  13.800  19.262  0.00  0.00    +0.000 N 
ATOM     22  C   UNL     1      -0.378  15.002  19.084  0.00  0.00    +0.000 C 
ATOM     23  C   UNL     1       0.624  16.043  18.642  0.00  0.00    +0.000 C 
ATOM     24  C   UNL     1       1.878  15.677  19.422  0.00  0.00    +0.000 C 
ATOM     25  C   UNL     1       1.807  14.145  19.601  0.00  0.00    +0.000 C 
ATOM     26  C   UNL     1       2.863  13.453  18.746  0.00  0.00    +0.000 C 
ENDBRANCH   4  19
BRANCH   6  27
ATOM     27  O   UNL     1       1.130   9.515  22.598  0.00  0.00    +0.000 OA
ATOM     28  C   UNL     1      -0.054   9.533  23.375  0.00  0.00    +0.000 C 
ENDBRANCH   6  27
TORSDOF 4
ENDMDL
MODEL 7
REMARK VINA RESULT:      -6.9      2.284      3.474
REMARK  Name = 
REMARK  7 active torsions:
REMARK  status: ('A' for Active; 'I' for Inactive)
REMARK    1  A    between atoms: C_1  and  N_2
REMARK    2  A    between atoms: N_2  and  C_3
REMARK    3  A    between atoms: N_6  and  C_7
REMARK    4  A    between atoms: C_10  and  C_11
REMARK    5  A    between atoms: C_17  and  C_18
REMARK    6  A    between atoms: C_20  and  O_21
REMARK    7  A    between atoms: O_21  and  C_22
REMARK                            x       y       z     vdW  Elec       q    Type
REMARK                         _______ _______ _______ _____ _____    ______ ____
ROOT
ATOM      1  C   UNL     1       0.932   9.258  19.347  0.00  0.00    +0.000 A 
ATOM      2  C   UNL     1       1.366   9.309  18.003  0.00  0.00    +0.000 A 
ATOM      3  C   UNL     1       2.297   8.401  17.497  0.00  0.00    +0.000 A 
ATOM      4  C   UNL     1       2.841   7.423  18.328  0.00  0.00    +0.000 A 
ATOM      5  C   UNL     1       2.441   7.372  19.663  0.00  0.00    +0.000 A 
ATOM      6  C   UNL     1       1.476   8.258  20.175  0.00  0.00    +0.000 A 
ENDROOT
BRANCH   1  10
ATOM      7  C   UNL     1      -2.923  10.398  17.883  0.00  0.00    +0.000 A 
ATOM      8  N   UNL     1      -1.772   9.958  18.420  0.00  0.00    +0.000 NA
ATOM      9  C   UNL     1      -1.070  10.765  19.233  0.00  0.00    +0.000 A 
ATOM     10  N   UNL     1       0.088  10.274  19.840  0.00  0.00    +0.000 N 
ATOM     11  N   UNL     1      -1.437  12.014  19.529  0.00  0.00    +0.000 NA
ATOM     12  C   UNL     1      -2.593  12.446  18.972  0.00  0.00    +0.000 A 
ATOM     13  C   UNL     1      -3.389  11.676  18.152  0.00  0.00    +0.000 A 
ATOM     14 CL   UNL     1      -4.865  12.298  17.532  0.00  0.00    +0.000 Cl
ATOM     15  H   UNL     1       0.595  11.062  20.227  0.00  0.00    +0.000 HD
BRANCH   7  17
ATOM     16  C   UNL     1      -3.256   9.685  15.603  0.00  0.00    +0.000 C 
ATOM     17  N   UNL     1      -3.625   9.545  17.005  0.00  0.00    +0.000 N 
ATOM     18  H   UNL     1      -3.564   8.588  17.340  0.00  0.00    +0.000 HD
ENDBRANCH   7  17
ENDBRANCH   1  10
BRANCH   4  19
ATOM     19  C   UNL     1       3.948   6.597  17.802  0.00  0.00    +0.000 C 
ATOM     20  O   UNL     1       4.883   7.202  17.272  0.00  0.00    +0.000 OA
ATOM     21  N   UNL     1       3.936   5.209  17.899  0.00  0.00    +0.000 N 
ATOM     22  C   UNL     1       5.161   4.492  17.588  0.00  0.00    +0.000 C 
ATOM     23  C   UNL     1       4.686   3.120  17.170  0.00  0.00    +0.000 C 
ATOM     24  C   UNL     1       3.483   2.877  18.071  0.00  0.00    +0.000 C 
ATOM     25  C   UNL     1       2.886   4.277  18.330  0.00  0.00    +0.000 C 
ATOM     26  C   UNL     1       1.554   4.439  17.606  0.00  0.00    +0.000 C 
ENDBRANCH   4  19
BRANCH   6  27
ATOM     27  O   UNL     1       1.202   7.982  21.489  0.00  0.00    +0.000 OA
ATOM     28  C   UNL     1       1.336   8.990  22.475  0.00  0.00    +0.000 C 
ENDBRANCH   6  27
TORSDOF 4
ENDMDL
MODEL 8
REMARK VINA RESULT:      -6.7      4.302      9.492
REMARK  Name = 
REMARK  7 active torsions:
REMARK  status: ('A' for Active; 'I' for Inactive)
REMARK    1  A    between atoms: C_1  and  N_2
REMARK    2  A    between atoms: N_2  and  C_3
REMARK    3  A    between atoms: N_6  and  C_7
REMARK    4  A    between atoms: C_10  and  C_11
REMARK    5  A    between atoms: C_17  and  C_18
REMARK    6  A    between atoms: C_20  and  O_21
REMARK    7  A    between atoms: O_21  and  C_22
REMARK                            x       y       z     vdW  Elec       q    Type
REMARK                         _______ _______ _______ _____ _____    ______ ____
ROOT
ATOM      1  C   UNL     1      -0.288  11.549  18.576  0.00  0.00    +0.000 A 
ATOM      2  C   UNL     1      -1.688  11.610  18.764  0.00  0.00    +0.000 A 
ATOM      3  C   UNL     1      -2.274  12.551  19.611  0.00  0.00    +0.000 A 
ATOM      4  C   UNL     1      -1.475  13.449  20.316  0.00  0.00    +0.000 A 
ATOM      5  C   UNL     1      -0.090  13.389  20.159  0.00  0.00    +0.000 A 
ATOM      6  C   UNL     1       0.510  12.469  19.280  0.00  0.00    +0.000 A 
ENDROOT
BRANCH   1  10
ATOM      7  C   UNL     1       1.740   8.054  19.985  0.00  0.00    +0.000 A 
ATOM      8  N   UNL     1       0.994   9.085  19.550  0.00  0.00    +0.000 NA
ATOM      9  C   UNL     1       1.090   9.475  18.268  0.00  0.00    +0.000 A 
ATOM     10  N   UNL     1       0.261  10.501  17.808  0.00  0.00    +0.000 N 
ATOM     11  N   UNL     1       1.916   8.909  17.384  0.00  0.00    +0.000 NA
ATOM     12  C   UNL     1       2.666   7.879  17.841  0.00  0.00    +0.000 A 
ATOM     13  C   UNL     1       2.609   7.396  19.130  0.00  0.00    +0.000 A 
ATOM     14 CL   UNL     1       3.568   6.051  19.602  0.00  0.00    +0.000 Cl
ATOM     15  H   UNL     1       0.615  10.808  16.909  0.00  0.00    +0.000 HD
BRANCH   7  17
ATOM     16  C   UNL     1       1.243   8.762  22.237  0.00  0.00    +0.000 C 
ATOM     17  N   UNL     1       1.647   7.685  21.344  0.00  0.00    +0.000 N 
ATOM     18  H   UNL     1       1.067   6.855  21.433  0.00  0.00    +0.000 HD
ENDBRANCH   7  17
ENDBRANCH   1  10
BRANCH   4  19
ATOM     19  C   UNL     1      -2.119  14.309  21.331  0.00  0.00    +0.000 C 
ATOM     20  O   UNL     1      -1.993  15.527  21.181  0.00  0.00    +0.000 OA
ATOM     21  N   UNL     1      -2.830  13.773  22.400  0.00  0.00    +0.000 N 
ATOM     22  C   UNL     1      -3.636  14.675  23.205  0.00  0.00    +0.000 C 
ATOM     23  C   UNL     1      -3.729  13.985  24.546  0.00  0.00    +0.000 C 
ATOM     24  C   UNL     1      -3.789  12.509  24.176  0.00  0.00    +0.000 C 
ATOM     25  C   UNL     1      -2.977  12.389  22.869  0.00  0.00    +0.000 C 
ATOM     26  C   UNL     1      -1.663  11.657  23.115  0.00  0.00    +0.000 C 
ENDBRANCH   4  19
BRANCH   6  27
ATOM     27  O   UNL     1       1.870  12.634  19.249  0.00  0.00    +0.000 OA
ATOM     28  C   UNL     1       2.463  13.507  18.305  0.00  0.00    +0.000 C 
ENDBRANCH   6  27
TORSDOF 4
ENDMDL
MODEL 9
REMARK VINA RESULT:      -6.7      2.645      4.115
REMARK  Name = 
REMARK  7 active torsions:
REMARK  status: ('A' for Active; 'I' for Inactive)
REMARK    1  A    between atoms: C_1  and  N_2
REMARK    2  A    between atoms: N_2  and  C_3
REMARK    3  A    between atoms: N_6  and  C_7
REMARK    4  A    between atoms: C_10  and  C_11
REMARK    5  A    between atoms: C_17  and  C_18
REMARK    6  A    between atoms: C_20  and  O_21
REMARK    7  A    between atoms: O_21  and  C_22
REMARK                            x       y       z     vdW  Elec       q    Type
REMARK                         _______ _______ _______ _____ _____    ______ ____
ROOT
ATOM      1  C   UNL     1       1.034   8.680  19.837  0.00  0.00    +0.000 A 
ATOM      2  C   UNL     1       1.235   7.698  20.833  0.00  0.00    +0.000 A 
ATOM      3  C   UNL     1       2.176   6.679  20.679  0.00  0.00    +0.000 A 
ATOM      4  C   UNL     1       2.931   6.596  19.510  0.00  0.00    +0.000 A 
ATOM      5  C   UNL     1       2.730   7.544  18.508  0.00  0.00    +0.000 A 
ATOM      6  C   UNL     1       1.812   8.598  18.666  0.00  0.00    +0.000 A 
ENDROOT
BRANCH   1  10
ATOM      7  C   UNL     1       1.337  12.806  20.932  0.00  0.00    +0.000 A 
ATOM      8  N   UNL     1       1.253  11.548  20.467  0.00  0.00    +0.000 NA
ATOM      9  C   UNL     1       0.081  10.894  20.536  0.00  0.00    +0.000 A 
ATOM     10  N   UNL     1      -0.013   9.613  19.987  0.00  0.00    +0.000 N 
ATOM     11  N   UNL     1      -1.024  11.415  21.073  0.00  0.00    +0.000 NA
ATOM     12  C   UNL     1      -0.920  12.679  21.546  0.00  0.00    +0.000 A 
ATOM     13  C   UNL     1       0.233  13.432  21.489  0.00  0.00    +0.000 A 
ATOM     14 CL   UNL     1       0.251  15.047  22.074  0.00  0.00    +0.000 Cl
ATOM     15  H   UNL     1      -0.875   9.195  20.319  0.00  0.00    +0.000 HD
BRANCH   7  17
ATOM     16  C   UNL     1       2.907  14.047  19.587  0.00  0.00    +0.000 C 
ATOM     17  N   UNL     1       2.586  13.460  20.880  0.00  0.00    +0.000 N 
ATOM     18  H   UNL     1       2.656  14.123  21.647  0.00  0.00    +0.000 HD
ENDBRANCH   7  17
ENDBRANCH   1  10
BRANCH   4  19
ATOM     19  C   UNL     1       3.786   5.406  19.314  0.00  0.00    +0.000 C 
ATOM     20  O   UNL     1       5.003   5.582  19.407  0.00  0.00    +0.000 OA
ATOM     21  N   UNL     1       3.246   4.155  19.039  0.00  0.00    +0.000 N 
ATOM     22  C   UNL     1       4.127   3.000  19.107  0.00  0.00    +0.000 C 
ATOM     23  C   UNL     1       3.476   1.989  18.192  0.00  0.00    +0.000 C 
ATOM     24  C   UNL     1       1.989   2.235  18.399  0.00  0.00    +0.000 C 
ATOM     25  C   UNL     1       1.872   3.739  18.728  0.00  0.00    +0.000 C 
ATOM     26  C   UNL     1       1.224   4.495  17.573  0.00  0.00    +0.000 C 
ENDBRANCH   4  19
BRANCH   6  27
ATOM     27  O   UNL     1       1.828   9.433  17.580  0.00  0.00    +0.000 OA
ATOM     28  C   UNL     1       2.488  10.684  17.649  0.00  0.00    +0.000 C 
ENDBRANCH   6  27
TORSDOF 4
ENDMDL
