MODEL 1
REMARK VINA RESULT:      -8.9      0.000      0.000
REMARK  Name = 
REMARK  8 active torsions:
REMARK  status: ('A' for Active; 'I' for Inactive)
REMARK    1  A    between atoms: C_1  and  C_2
REMARK    2  A    between atoms: C_2  and  S_3
REMARK    3  A    between atoms: S_3  and  N_6
REMARK    4  A    between atoms: N_9  and  C_10
REMARK    5  A    between atoms: C_10  and  C_11
REMARK    6  A    between atoms: C_11  and  N_12
REMARK    7  A    between atoms: C_13  and  C_15
REMARK    8  A    between atoms: C_16  and  N_17
REMARK                            x       y       z     vdW  Elec       q    Type
REMARK                         _______ _______ _______ _____ _____    ______ ____
ROOT
ATOM      1  C   UNL     1       2.722   5.085  19.428  0.00  0.00    +0.000 C 
ATOM      2  C   UNL     1       1.611   4.455  18.526  0.00  0.00    +0.000 C 
ATOM      3  C   UNL     1       1.204   3.040  18.960  0.00  0.00    +0.000 C 
ATOM      4  C   UNL     1       0.650   3.086  20.383  0.00  0.00    +0.000 C 
ATOM      5  C   UNL     1       1.744   3.576  21.343  0.00  0.00    +0.000 C 
ATOM      6  C   UNL     1       2.223   4.976  20.924  0.00  0.00    +0.000 C 
ENDROOT
BRANCH   1  10
ATOM      7  N   UNL     1       5.505   5.328  16.835  0.00  0.00    +0.000 NA
ATOM      8  C   UNL     1       4.485   4.277  16.677  0.00  0.00    +0.000 C 
ATOM      9  C   UNL     1       4.186   3.506  17.991  0.00  0.00    +0.000 C 
ATOM     10  N   UNL     1       4.051   4.368  19.201  0.00  0.00    +0.000 NA
ATOM     11  C   UNL     1       5.333   5.111  19.340  0.00  0.00    +0.000 C 
ATOM     12  C   UNL     1       5.651   6.018  18.139  0.00  0.00    +0.000 C 
BRANCH   7  13
ATOM     13  S   UNL     1       7.012   5.084  15.935  0.00  0.00    +0.000 S 
ATOM     14  O   UNL     1       7.880   4.162  16.809  0.00  0.00    +0.000 OA
ATOM     15  O   UNL     1       7.758   6.423  16.017  0.00  0.00    +0.000 OA
BRANCH  13  17
ATOM     16  C   UNL     1       7.671   5.164  13.276  0.00  0.00    +0.000 C 
ATOM     17  C   UNL     1       6.812   4.391  14.273  0.00  0.00    +0.000 C 
ENDBRANCH  13  17
ENDBRANCH   7  13
ENDBRANCH   1  10
BRANCH   1  18
ATOM     18  C   UNL     1       2.849   6.576  19.010  0.00  0.00    +0.000 C 
BRANCH  18  19
ATOM     19  N   UNL     1       1.859   7.467  19.556  0.00  0.00    +0.000 N 
ATOM     20  C   UNL     1       1.651   8.719  19.059  0.00  0.00    +0.000 C 
ATOM     21  O   UNL     1       2.258   9.091  18.065  0.00  0.00    +0.000 OA
ATOM     22  H   UNL     1       1.331   7.155  20.371  0.00  0.00    +0.000 HD
BRANCH  20  23
ATOM     23  C   UNL     1       0.650   9.610  19.694  0.00  0.00    +0.000 A 
ATOM     24  C   UNL     1      -0.321  10.326  18.913  0.00  0.00    +0.000 A 
ATOM     25  C   UNL     1      -1.171  11.232  19.562  0.00  0.00    +0.000 A 
ATOM     26  C   UNL     1      -1.097  11.401  20.936  0.00  0.00    +0.000 A 
ATOM     27  C   UNL     1      -0.193  10.670  21.703  0.00  0.00    +0.000 A 
ATOM     28  C   UNL     1       0.678   9.775  21.099  0.00  0.00    +0.000 A 
ATOM     29 CL   UNL     1       1.822   8.936  22.151  0.00  0.00    +0.000 Cl
BRANCH  24  30
ATOM     30  N   UNL     1      -0.521  10.128  17.517  0.00  0.00    +0.000 N 
ATOM     31  H   UNL     1      -1.121  10.741  16.939  0.00  0.00    +0.000 HD
ATOM     32  H   UNL     1       0.068   9.462  16.996  0.00  0.00    +0.000 HD
ENDBRANCH  24  30
ENDBRANCH  20  23
ENDBRANCH  18  19
ENDBRANCH   1  18
TORSDOF 7
ENDMDL
MODEL 2
REMARK VINA RESULT:      -8.8      1.015      1.041
REMARK  Name = 
REMARK  8 active torsions:
REMARK  status: ('A' for Active; 'I' for Inactive)
REMARK    1  A    between atoms: C_1  and  C_2
REMARK    2  A    between atoms: C_2  and  S_3
REMARK    3  A    between atoms: S_3  and  N_6
REMARK    4  A    between atoms: N_9  and  C_10
REMARK    5  A    between atoms: C_10  and  C_11
REMARK    6  A    between atoms: C_11  and  N_12
REMARK    7  A    between atoms: C_13  and  C_15
REMARK    8  A    between atoms: C_16  and  N_17
REMARK                            x       y       z     vdW  Elec       q    Type
REMARK                         _______ _______ _______ _____ _____    ______ ____
ROOT
ATOM      1  C   UNL     1       2.639   5.250  19.098  0.00  0.00    +0.000 C 
ATOM      2  C   UNL     1       1.619   4.383  18.289  0.00  0.00    +0.000 C 
ATOM      3  C   UNL     1       1.323   3.026  18.941  0.00  0.00    +0.000 C 
ATOM      4  C   UNL     1       0.719   3.249  20.327  0.00  0.00    +0.000 C 
ATOM      5  C   UNL     1       1.732   3.986  21.215  0.00  0.00    +0.000 C 
ATOM      6  C   UNL     1       2.100   5.339  20.581  0.00  0.00    +0.000 C 
ENDROOT
BRANCH   1  10
ATOM      7  N   UNL     1       5.501   5.380  16.585  0.00  0.00    +0.000 NA
ATOM      8  C   UNL     1       4.582   4.229  16.547  0.00  0.00    +0.000 C 
ATOM      9  C   UNL     1       4.292   3.625  17.947  0.00  0.00    +0.000 C 
ATOM     10  N   UNL     1       4.032   4.632  19.017  0.00  0.00    +0.000 NA
ATOM     11  C   UNL     1       5.239   5.499  19.089  0.00  0.00    +0.000 C 
ATOM     12  C   UNL     1       5.531   6.256  17.781  0.00  0.00    +0.000 C 
BRANCH   7  13
ATOM     13  S   UNL     1       7.061   5.150  15.777  0.00  0.00    +0.000 S 
ATOM     14  O   UNL     1       7.836   4.134  16.635  0.00  0.00    +0.000 OA
ATOM     15  O   UNL     1       7.840   6.451  16.012  0.00  0.00    +0.000 OA
BRANCH  13  17
ATOM     16  C   UNL     1       7.961   5.359  13.195  0.00  0.00    +0.000 C 
ATOM     17  C   UNL     1       6.961   4.590  14.055  0.00  0.00    +0.000 C 
ENDBRANCH  13  17
ENDBRANCH   7  13
ENDBRANCH   1  10
BRANCH   1  18
ATOM     18  C   UNL     1       2.649   6.659  18.444  0.00  0.00    +0.000 C 
BRANCH  18  19
ATOM     19  N   UNL     1       2.147   7.734  19.261  0.00  0.00    +0.000 N 
ATOM     20  C   UNL     1       1.496   8.809  18.734  0.00  0.00    +0.000 C 
ATOM     21  O   UNL     1       1.248   8.846  17.537  0.00  0.00    +0.000 OA
ATOM     22  H   UNL     1       2.329   7.698  20.264  0.00  0.00    +0.000 HD
BRANCH  20  23
ATOM     23  C   UNL     1       1.044   9.908  19.620  0.00  0.00    +0.000 A 
ATOM     24  C   UNL     1       1.349  11.282  19.330  0.00  0.00    +0.000 A 
ATOM     25  C   UNL     1       0.984  12.264  20.261  0.00  0.00    +0.000 A 
ATOM     26  C   UNL     1       0.310  11.914  21.420  0.00  0.00    +0.000 A 
ATOM     27  C   UNL     1      -0.033  10.589  21.681  0.00  0.00    +0.000 A 
ATOM     28  C   UNL     1       0.323   9.583  20.794  0.00  0.00    +0.000 A 
ATOM     29 CL   UNL     1      -0.111   7.931  21.240  0.00  0.00    +0.000 Cl
BRANCH  24  30
ATOM     30  N   UNL     1       1.947  11.724  18.115  0.00  0.00    +0.000 N 
ATOM     31  H   UNL     1       2.298  12.687  17.976  0.00  0.00    +0.000 HD
ATOM     32  H   UNL     1       2.209  11.044  17.386  0.00  0.00    +0.000 HD
ENDBRANCH  24  30
ENDBRANCH  20  23
ENDBRANCH  18  19
ENDBRANCH   1  18
TORSDOF 7
ENDMDL
MODEL 3
REMARK VINA RESULT:      -8.5      1.345      1.523
REMARK  Name = 
REMARK  8 active torsions:
REMARK  status: ('A' for Active; 'I' for Inactive)
REMARK    1  A    between atoms: C_1  and  C_2
REMARK    2  A    between atoms: C_2  and  S_3
REMARK    3  A    between atoms: S_3  and  N_6
REMARK    4  A    between atoms: N_9  and  C_10
REMARK    5  A    between atoms: C_10  and  C_11
REMARK    6  A    between atoms: C_11  and  N_12
REMARK    7  A    between atoms: C_13  and  C_15
REMARK    8  A    between atoms: C_16  and  N_17
REMARK                            x       y       z     vdW  Elec       q    Type
REMARK                         _______ _______ _______ _____ _____    ______ ____
ROOT
ATOM      1  C   UNL     1       2.626   5.271  19.159  0.00  0.00    +0.000 C 
ATOM      2  C   UNL     1       1.604   4.494  18.266  0.00  0.00    +0.000 C 
ATOM      3  C   UNL     1       1.252   3.103  18.813  0.00  0.00    +0.000 C 
ATOM      4  C   UNL     1       0.617   3.247  20.195  0.00  0.00    +0.000 C 
ATOM      5  C   UNL     1       1.626   3.890  21.158  0.00  0.00    +0.000 C 
ATOM      6  C   UNL     1       2.049   5.271  20.632  0.00  0.00    +0.000 C 
ENDROOT
BRANCH   1  10
ATOM      7  N   UNL     1       5.478   5.333  16.632  0.00  0.00    +0.000 NA
ATOM      8  C   UNL     1       4.530   4.206  16.597  0.00  0.00    +0.000 C 
ATOM      9  C   UNL     1       4.232   3.606  17.998  0.00  0.00    +0.000 C 
ATOM     10  N   UNL     1       4.003   4.618  19.071  0.00  0.00    +0.000 NA
ATOM     11  C   UNL     1       5.231   5.455  19.137  0.00  0.00    +0.000 C 
ATOM     12  C   UNL     1       5.536   6.206  17.829  0.00  0.00    +0.000 C 
BRANCH   7  13
ATOM     13  S   UNL     1       7.027   5.065  15.816  0.00  0.00    +0.000 S 
ATOM     14  O   UNL     1       7.838   4.141  16.740  0.00  0.00    +0.000 OA
ATOM     15  O   UNL     1       7.783   6.396  15.926  0.00  0.00    +0.000 OA
BRANCH  13  17
ATOM     16  C   UNL     1       7.728   5.195  13.168  0.00  0.00    +0.000 C 
ATOM     17  C   UNL     1       6.908   4.361  14.150  0.00  0.00    +0.000 C 
ENDBRANCH  13  17
ENDBRANCH   7  13
ENDBRANCH   1  10
BRANCH   1  18
ATOM     18  C   UNL     1       2.693   6.721  18.607  0.00  0.00    +0.000 C 
BRANCH  18  19
ATOM     19  N   UNL     1       2.146   7.744  19.461  0.00  0.00    +0.000 N 
ATOM     20  C   UNL     1       1.423   8.792  18.974  0.00  0.00    +0.000 C 
ATOM     21  O   UNL     1       1.150   8.844  17.783  0.00  0.00    +0.000 OA
ATOM     22  H   UNL     1       2.349   7.694  20.459  0.00  0.00    +0.000 HD
BRANCH  20  23
ATOM     23  C   UNL     1       0.925   9.839  19.897  0.00  0.00    +0.000 A 
ATOM     24  C   UNL     1       0.095   9.514  21.024  0.00  0.00    +0.000 A 
ATOM     25  C   UNL     1      -0.430  10.559  21.797  0.00  0.00    +0.000 A 
ATOM     26  C   UNL     1      -0.120  11.876  21.497  0.00  0.00    +0.000 A 
ATOM     27  C   UNL     1       0.726  12.193  20.437  0.00  0.00    +0.000 A 
ATOM     28  C   UNL     1       1.254  11.191  19.636  0.00  0.00    +0.000 A 
ATOM     29 CL   UNL     1       2.273  11.696  18.285  0.00  0.00    +0.000 Cl
BRANCH  24  30
ATOM     30  N   UNL     1      -0.182   8.184  21.450  0.00  0.00    +0.000 N 
ATOM     31  H   UNL     1       0.505   7.414  21.384  0.00  0.00    +0.000 HD
ATOM     32  H   UNL     1      -1.027   7.981  22.005  0.00  0.00    +0.000 HD
ENDBRANCH  24  30
ENDBRANCH  20  23
ENDBRANCH  18  19
ENDBRANCH   1  18
TORSDOF 7
ENDMDL
MODEL 4
REMARK VINA RESULT:      -8.4      1.316      1.783
REMARK  Name = 
REMARK  8 active torsions:
REMARK  status: ('A' for Active; 'I' for Inactive)
REMARK    1  A    between atoms: C_1  and  C_2
REMARK    2  A    between atoms: C_2  and  S_3
REMARK    3  A    between atoms: S_3  and  N_6
REMARK    4  A    between atoms: N_9  and  C_10
REMARK    5  A    between atoms: C_10  and  C_11
REMARK    6  A    between atoms: C_11  and  N_12
REMARK    7  A    between atoms: C_13  and  C_15
REMARK    8  A    between atoms: C_16  and  N_17
REMARK                            x       y       z     vdW  Elec       q    Type
REMARK                         _______ _______ _______ _____ _____    ______ ____
ROOT
ATOM      1  C   UNL     1       2.652   4.973  19.363  0.00  0.00    +0.000 C 
ATOM      2  C   UNL     1       1.610   4.291  18.417  0.00  0.00    +0.000 C 
ATOM      3  C   UNL     1       1.300   2.838  18.801  0.00  0.00    +0.000 C 
ATOM      4  C   UNL     1       0.715   2.799  20.211  0.00  0.00    +0.000 C 
ATOM      5  C   UNL     1       1.748   3.339  21.210  0.00  0.00    +0.000 C 
ATOM      6  C   UNL     1       2.130   4.783  20.843  0.00  0.00    +0.000 C 
ENDROOT
BRANCH   1  10
ATOM      7  N   UNL     1       5.452   5.478  16.827  0.00  0.00    +0.000 NA
ATOM      8  C   UNL     1       4.517   4.357  16.630  0.00  0.00    +0.000 C 
ATOM      9  C   UNL     1       4.255   3.539  17.923  0.00  0.00    +0.000 C 
ATOM     10  N   UNL     1       4.035   4.364  19.147  0.00  0.00    +0.000 NA
ATOM     11  C   UNL     1       5.255   5.198  19.323  0.00  0.00    +0.000 C 
ATOM     12  C   UNL     1       5.523   6.152  18.145  0.00  0.00    +0.000 C 
BRANCH   7  13
ATOM     13  S   UNL     1       6.987   5.367  15.950  0.00  0.00    +0.000 S 
ATOM     14  O   UNL     1       7.784   4.243  16.635  0.00  0.00    +0.000 OA
ATOM     15  O   UNL     1       7.775   6.624  16.343  0.00  0.00    +0.000 OA
BRANCH  13  17
ATOM     16  C   UNL     1       6.260   3.661  13.931  0.00  0.00    +0.000 C 
ATOM     17  C   UNL     1       6.837   5.054  14.171  0.00  0.00    +0.000 C 
ENDBRANCH  13  17
ENDBRANCH   7  13
ENDBRANCH   1  10
BRANCH   1  18
ATOM     18  C   UNL     1       2.677   6.482  18.991  0.00  0.00    +0.000 C 
BRANCH  18  19
ATOM     19  N   UNL     1       1.833   7.337  19.785  0.00  0.00    +0.000 N 
ATOM     20  C   UNL     1       1.618   8.646  19.469  0.00  0.00    +0.000 C 
ATOM     21  O   UNL     1       2.083   9.110  18.438  0.00  0.00    +0.000 OA
ATOM     22  H   UNL     1       1.421   6.951  20.633  0.00  0.00    +0.000 HD
BRANCH  20  23
ATOM     23  C   UNL     1       0.777   9.491  20.350  0.00  0.00    +0.000 A 
ATOM     24  C   UNL     1       0.979   9.526  21.773  0.00  0.00    +0.000 A 
ATOM     25  C   UNL     1       0.085  10.263  22.562  0.00  0.00    +0.000 A 
ATOM     26  C   UNL     1      -0.951  10.970  21.972  0.00  0.00    +0.000 A 
ATOM     27  C   UNL     1      -1.120  10.979  20.589  0.00  0.00    +0.000 A 
ATOM     28  C   UNL     1      -0.267  10.251  19.772  0.00  0.00    +0.000 A 
ATOM     29 CL   UNL     1      -0.595  10.285  18.037  0.00  0.00    +0.000 Cl
BRANCH  24  30
ATOM     30  N   UNL     1       2.078   8.909  22.436  0.00  0.00    +0.000 N 
ATOM     31  H   UNL     1       2.402   9.191  23.376  0.00  0.00    +0.000 HD
ATOM     32  H   UNL     1       2.484   8.035  22.068  0.00  0.00    +0.000 HD
ENDBRANCH  24  30
ENDBRANCH  20  23
ENDBRANCH  18  19
ENDBRANCH   1  18
TORSDOF 7
ENDMDL
MODEL 5
REMARK VINA RESULT:      -7.9      1.813      2.455
REMARK  Name = 
REMARK  8 active torsions:
REMARK  status: ('A' for Active; 'I' for Inactive)
REMARK    1  A    between atoms: C_1  and  C_2
REMARK    2  A    between atoms: C_2  and  S_3
REMARK    3  A    between atoms: S_3  and  N_6
REMARK    4  A    between atoms: N_9  and  C_10
REMARK    5  A    between atoms: C_10  and  C_11
REMARK    6  A    between atoms: C_11  and  N_12
REMARK    7  A    between atoms: C_13  and  C_15
REMARK    8  A    between atoms: C_16  and  N_17
REMARK                            x       y       z     vdW  Elec       q    Type
REMARK                         _______ _______ _______ _____ _____    ______ ____
ROOT
ATOM      1  C   UNL     1       2.287   4.761  18.900  0.00  0.00    +0.000 C 
ATOM      2  C   UNL     1       1.113   4.030  18.170  0.00  0.00    +0.000 C 
ATOM      3  C   UNL     1       0.862   2.609  18.693  0.00  0.00    +0.000 C 
ATOM      4  C   UNL     1       0.496   2.671  20.175  0.00  0.00    +0.000 C 
ATOM      5  C   UNL     1       1.670   3.263  20.969  0.00  0.00    +0.000 C 
ATOM      6  C   UNL     1       1.995   4.675  20.452  0.00  0.00    +0.000 C 
ENDROOT
BRANCH   1  10
ATOM      7  N   UNL     1       5.748   6.080  18.002  0.00  0.00    +0.000 NA
ATOM      8  C   UNL     1       4.832   5.705  16.910  0.00  0.00    +0.000 C 
ATOM      9  C   UNL     1       4.133   4.337  17.135  0.00  0.00    +0.000 C 
ATOM     10  N   UNL     1       3.620   4.121  18.520  0.00  0.00    +0.000 NA
ATOM     11  C   UNL     1       4.791   4.238  19.430  0.00  0.00    +0.000 C 
ATOM     12  C   UNL     1       5.473   5.617  19.383  0.00  0.00    +0.000 C 
BRANCH   7  13
ATOM     13  S   UNL     1       7.463   6.189  17.568  0.00  0.00    +0.000 S 
ATOM     14  O   UNL     1       7.501   6.362  16.039  0.00  0.00    +0.000 OA
ATOM     15  O   UNL     1       8.023   4.773  17.759  0.00  0.00    +0.000 OA
BRANCH  13  17
ATOM     16  C   UNL     1       8.003   8.868  17.780  0.00  0.00    +0.000 C 
ATOM     17  C   UNL     1       8.381   7.519  18.387  0.00  0.00    +0.000 C 
ENDBRANCH  13  17
ENDBRANCH   7  13
ENDBRANCH   1  10
BRANCH   1  18
ATOM     18  C   UNL     1       2.259   6.241  18.428  0.00  0.00    +0.000 C 
BRANCH  18  19
ATOM     19  N   UNL     1       1.467   7.139  19.228  0.00  0.00    +0.000 N 
ATOM     20  C   UNL     1       1.590   8.494  19.141  0.00  0.00    +0.000 C 
ATOM     21  O   UNL     1       2.334   8.988  18.307  0.00  0.00    +0.000 OA
ATOM     22  H   UNL     1       0.825   6.735  19.910  0.00  0.00    +0.000 HD
BRANCH  20  23
ATOM     23  C   UNL     1       0.781   9.368  20.024  0.00  0.00    +0.000 A 
ATOM     24  C   UNL     1       0.992   9.401  21.445  0.00  0.00    +0.000 A 
ATOM     25  C   UNL     1       0.125  10.168  22.237  0.00  0.00    +0.000 A 
ATOM     26  C   UNL     1      -0.890  10.906  21.650  0.00  0.00    +0.000 A 
ATOM     27  C   UNL     1      -1.065  10.917  20.268  0.00  0.00    +0.000 A 
ATOM     28  C   UNL     1      -0.241  10.160  19.449  0.00  0.00    +0.000 A 
ATOM     29 CL   UNL     1      -0.577  10.200  17.716  0.00  0.00    +0.000 Cl
BRANCH  24  30
ATOM     30  N   UNL     1       2.073   8.750  22.105  0.00  0.00    +0.000 N 
ATOM     31  H   UNL     1       1.940   8.005  22.810  0.00  0.00    +0.000 HD
ATOM     32  H   UNL     1       3.040   8.880  21.771  0.00  0.00    +0.000 HD
ENDBRANCH  24  30
ENDBRANCH  20  23
ENDBRANCH  18  19
ENDBRANCH   1  18
TORSDOF 7
ENDMDL
MODEL 6
REMARK VINA RESULT:      -7.9      1.559      1.641
REMARK  Name = 
REMARK  8 active torsions:
REMARK  status: ('A' for Active; 'I' for Inactive)
REMARK    1  A    between atoms: C_1  and  C_2
REMARK    2  A    between atoms: C_2  and  S_3
REMARK    3  A    between atoms: S_3  and  N_6
REMARK    4  A    between atoms: N_9  and  C_10
REMARK    5  A    between atoms: C_10  and  C_11
REMARK    6  A    between atoms: C_11  and  N_12
REMARK    7  A    between atoms: C_13  and  C_15
REMARK    8  A    between atoms: C_16  and  N_17
REMARK                            x       y       z     vdW  Elec       q    Type
REMARK                         _______ _______ _______ _____ _____    ______ ____
ROOT
ATOM      1  C   UNL     1       2.520   6.023  18.750  0.00  0.00    +0.000 C 
ATOM      2  C   UNL     1       1.740   4.916  17.969  0.00  0.00    +0.000 C 
ATOM      3  C   UNL     1       1.612   3.598  18.746  0.00  0.00    +0.000 C 
ATOM      4  C   UNL     1       0.851   3.848  20.047  0.00  0.00    +0.000 C 
ATOM      5  C   UNL     1       1.638   4.835  20.921  0.00  0.00    +0.000 C 
ATOM      6  C   UNL     1       1.835   6.162  20.169  0.00  0.00    +0.000 C 
ENDROOT
BRANCH   1  10
ATOM      7  N   UNL     1       5.340   5.510  16.238  0.00  0.00    +0.000 NA
ATOM      8  C   UNL     1       4.627   4.326  16.748  0.00  0.00    +0.000 C 
ATOM      9  C   UNL     1       4.432   4.340  18.288  0.00  0.00    +0.000 C 
ATOM     10  N   UNL     1       3.998   5.653  18.848  0.00  0.00    +0.000 NA
ATOM     11  C   UNL     1       5.042   6.644  18.469  0.00  0.00    +0.000 C 
ATOM     12  C   UNL     1       5.214   6.805  16.948  0.00  0.00    +0.000 C 
BRANCH   7  13
ATOM     13  S   UNL     1       6.922   5.201  15.503  0.00  0.00    +0.000 S 
ATOM     14  O   UNL     1       7.504   3.987  16.247  0.00  0.00    +0.000 OA
ATOM     15  O   UNL     1       7.824   6.349  15.978  0.00  0.00    +0.000 OA
BRANCH  13  17
ATOM     16  C   UNL     1       6.116   3.630  13.406  0.00  0.00    +0.000 C 
ATOM     17  C   UNL     1       6.896   4.905  13.715  0.00  0.00    +0.000 C 
ENDBRANCH  13  17
ENDBRANCH   7  13
ENDBRANCH   1  10
BRANCH   1  18
ATOM     18  C   UNL     1       2.359   7.341  17.944  0.00  0.00    +0.000 C 
BRANCH  18  19
ATOM     19  N   UNL     1       2.183   8.537  18.726  0.00  0.00    +0.000 N 
ATOM     20  C   UNL     1       1.240   9.475  18.423  0.00  0.00    +0.000 C 
ATOM     21  O   UNL     1       0.454   9.277  17.508  0.00  0.00    +0.000 OA
ATOM     22  H   UNL     1       2.819   8.698  19.506  0.00  0.00    +0.000 HD
BRANCH  20  23
ATOM     23  C   UNL     1       1.137  10.709  19.237  0.00  0.00    +0.000 A 
ATOM     24  C   UNL     1       1.732  11.945  18.806  0.00  0.00    +0.000 A 
ATOM     25  C   UNL     1       1.689  13.049  19.669  0.00  0.00    +0.000 A 
ATOM     26  C   UNL     1       1.053  12.954  20.897  0.00  0.00    +0.000 A 
ATOM     27  C   UNL     1       0.430  11.774  21.295  0.00  0.00    +0.000 A 
ATOM     28  C   UNL     1       0.462  10.652  20.480  0.00  0.00    +0.000 A 
ATOM     29 CL   UNL     1      -0.310   9.189  21.097  0.00  0.00    +0.000 Cl
BRANCH  24  30
ATOM     30  N   UNL     1       2.312  12.143  17.521  0.00  0.00    +0.000 N 
ATOM     31  H   UNL     1       2.223  13.026  16.990  0.00  0.00    +0.000 HD
ATOM     32  H   UNL     1       2.993  11.465  17.147  0.00  0.00    +0.000 HD
ENDBRANCH  24  30
ENDBRANCH  20  23
ENDBRANCH  18  19
ENDBRANCH   1  18
TORSDOF 7
ENDMDL
MODEL 7
REMARK VINA RESULT:      -7.8      1.624      2.046
REMARK  Name = 
REMARK  8 active torsions:
REMARK  status: ('A' for Active; 'I' for Inactive)
REMARK    1  A    between atoms: C_1  and  C_2
REMARK    2  A    between atoms: C_2  and  S_3
REMARK    3  A    between atoms: S_3  and  N_6
REMARK    4  A    between atoms: N_9  and  C_10
REMARK    5  A    between atoms: C_10  and  C_11
REMARK    6  A    between atoms: C_11  and  N_12
REMARK    7  A    between atoms: C_13  and  C_15
REMARK    8  A    between atoms: C_16  and  N_17
REMARK                            x       y       z     vdW  Elec       q    Type
REMARK                         _______ _______ _______ _____ _____    ______ ____
ROOT
ATOM      1  C   UNL     1       2.307   4.840  18.833  0.00  0.00    +0.000 C 
ATOM      2  C   UNL     1       1.181   3.978  18.174  0.00  0.00    +0.000 C 
ATOM      3  C   UNL     1       0.931   2.647  18.898  0.00  0.00    +0.000 C 
ATOM      4  C   UNL     1       0.497   2.925  20.336  0.00  0.00    +0.000 C 
ATOM      5  C   UNL     1       1.623   3.660  21.078  0.00  0.00    +0.000 C 
ATOM      6  C   UNL     1       1.946   4.984  20.365  0.00  0.00    +0.000 C 
ENDROOT
BRANCH   1  10
ATOM      7  N   UNL     1       5.782   6.092  17.894  0.00  0.00    +0.000 NA
ATOM      8  C   UNL     1       4.924   5.535  16.834  0.00  0.00    +0.000 C 
ATOM      9  C   UNL     1       4.239   4.200  17.233  0.00  0.00    +0.000 C 
ATOM     10  N   UNL     1       3.667   4.183  18.611  0.00  0.00    +0.000 NA
ATOM     11  C   UNL     1       4.793   4.464  19.544  0.00  0.00    +0.000 C 
ATOM     12  C   UNL     1       5.451   5.836  19.317  0.00  0.00    +0.000 C 
BRANCH   7  13
ATOM     13  S   UNL     1       7.512   6.176  17.523  0.00  0.00    +0.000 S 
ATOM     14  O   UNL     1       7.610   6.326  15.995  0.00  0.00    +0.000 OA
ATOM     15  O   UNL     1       8.050   4.758  17.756  0.00  0.00    +0.000 OA
BRANCH  13  17
ATOM     16  C   UNL     1       7.954   8.865  17.829  0.00  0.00    +0.000 C 
ATOM     17  C   UNL     1       8.415   7.509  18.357  0.00  0.00    +0.000 C 
ENDBRANCH  13  17
ENDBRANCH   7  13
ENDBRANCH   1  10
BRANCH   1  18
ATOM     18  C   UNL     1       2.274   6.229  18.138  0.00  0.00    +0.000 C 
BRANCH  18  19
ATOM     19  N   UNL     1       1.900   7.340  18.976  0.00  0.00    +0.000 N 
ATOM     20  C   UNL     1       1.593   8.567  18.467  0.00  0.00    +0.000 C 
ATOM     21  O   UNL     1       1.549   8.732  17.256  0.00  0.00    +0.000 OA
ATOM     22  H   UNL     1       1.910   7.203  19.986  0.00  0.00    +0.000 HD
BRANCH  20  23
ATOM     23  C   UNL     1       1.262   9.685  19.382  0.00  0.00    +0.000 A 
ATOM     24  C   UNL     1       1.589  11.046  19.055  0.00  0.00    +0.000 A 
ATOM     25  C   UNL     1       1.344  12.045  20.007  0.00  0.00    +0.000 A 
ATOM     26  C   UNL     1       0.764  11.725  21.224  0.00  0.00    +0.000 A 
ATOM     27  C   UNL     1       0.397  10.415  21.524  0.00  0.00    +0.000 A 
ATOM     28  C   UNL     1       0.636   9.393  20.617  0.00  0.00    +0.000 A 
ATOM     29 CL   UNL     1       0.184   7.759  21.112  0.00  0.00    +0.000 Cl
BRANCH  24  30
ATOM     30  N   UNL     1       2.093  11.460  17.788  0.00  0.00    +0.000 N 
ATOM     31  H   UNL     1       3.012  11.163  17.421  0.00  0.00    +0.000 HD
ATOM     32  H   UNL     1       1.476  11.937  17.114  0.00  0.00    +0.000 HD
ENDBRANCH  24  30
ENDBRANCH  20  23
ENDBRANCH  18  19
ENDBRANCH   1  18
TORSDOF 7
ENDMDL
MODEL 8
REMARK VINA RESULT:      -7.5      1.626      1.921
REMARK  Name = 
REMARK  8 active torsions:
REMARK  status: ('A' for Active; 'I' for Inactive)
REMARK    1  A    between atoms: C_1  and  C_2
REMARK    2  A    between atoms: C_2  and  S_3
REMARK    3  A    between atoms: S_3  and  N_6
REMARK    4  A    between atoms: N_9  and  C_10
REMARK    5  A    between atoms: C_10  and  C_11
REMARK    6  A    between atoms: C_11  and  N_12
REMARK    7  A    between atoms: C_13  and  C_15
REMARK    8  A    between atoms: C_16  and  N_17
REMARK                            x       y       z     vdW  Elec       q    Type
REMARK                         _______ _______ _______ _____ _____    ______ ____
ROOT
ATOM      1  C   UNL     1       2.838   4.548  19.740  0.00  0.00    +0.000 C 
ATOM      2  C   UNL     1       1.720   4.662  18.654  0.00  0.00    +0.000 C 
ATOM      3  C   UNL     1       1.085   3.313  18.290  0.00  0.00    +0.000 C 
ATOM      4  C   UNL     1       0.439   2.704  19.533  0.00  0.00    +0.000 C 
ATOM      5  C   UNL     1       1.517   2.445  20.596  0.00  0.00    +0.000 C 
ATOM      6  C   UNL     1       2.219   3.763  20.965  0.00  0.00    +0.000 C 
ENDROOT
BRANCH   1  10
ATOM      7  N   UNL     1       5.530   5.496  17.214  0.00  0.00    +0.000 NA
ATOM      8  C   UNL     1       4.390   4.683  16.757  0.00  0.00    +0.000 C 
ATOM      9  C   UNL     1       4.053   3.503  17.708  0.00  0.00    +0.000 C 
ATOM     10  N   UNL     1       4.065   3.851  19.159  0.00  0.00    +0.000 NA
ATOM     11  C   UNL     1       5.429   4.362  19.463  0.00  0.00    +0.000 C 
ATOM     12  C   UNL     1       5.805   5.624  18.665  0.00  0.00    +0.000 C 
BRANCH   7  13
ATOM     13  S   UNL     1       6.963   5.472  16.172  0.00  0.00    +0.000 S 
ATOM     14  O   UNL     1       7.878   4.371  16.737  0.00  0.00    +0.000 OA
ATOM     15  O   UNL     1       7.735   6.755  16.510  0.00  0.00    +0.000 OA
BRANCH  13  17
ATOM     16  C   UNL     1       6.275   3.725  14.175  0.00  0.00    +0.000 C 
ATOM     17  C   UNL     1       6.631   5.190  14.413  0.00  0.00    +0.000 C 
ENDBRANCH  13  17
ENDBRANCH   7  13
ENDBRANCH   1  10
BRANCH   1  18
ATOM     18  C   UNL     1       3.206   5.998  20.161  0.00  0.00    +0.000 C 
BRANCH  18  19
ATOM     19  N   UNL     1       2.355   7.037  19.641  0.00  0.00    +0.000 N 
ATOM     20  C   UNL     1       1.769   7.970  20.444  0.00  0.00    +0.000 C 
ATOM     21  O   UNL     1       2.024   7.993  21.640  0.00  0.00    +0.000 OA
ATOM     22  H   UNL     1       2.157   7.039  18.641  0.00  0.00    +0.000 HD
BRANCH  20  23
ATOM     23  C   UNL     1       0.864   8.987  19.858  0.00  0.00    +0.000 A 
ATOM     24  C   UNL     1      -0.206   9.569  20.620  0.00  0.00    +0.000 A 
ATOM     25  C   UNL     1      -1.090  10.447  19.977  0.00  0.00    +0.000 A 
ATOM     26  C   UNL     1      -0.909  10.770  18.641  0.00  0.00    +0.000 A 
ATOM     27  C   UNL     1       0.158  10.248  17.913  0.00  0.00    +0.000 A 
ATOM     28  C   UNL     1       1.047   9.363  18.506  0.00  0.00    +0.000 A 
ATOM     29 CL   UNL     1       2.335   8.716  17.485  0.00  0.00    +0.000 Cl
BRANCH  24  30
ATOM     30  N   UNL     1      -0.393   9.362  22.016  0.00  0.00    +0.000 N 
ATOM     31  H   UNL     1      -1.310   9.457  22.485  0.00  0.00    +0.000 HD
ATOM     32  H   UNL     1       0.355   8.936  22.584  0.00  0.00    +0.000 HD
ENDBRANCH  24  30
ENDBRANCH  20  23
ENDBRANCH  18  19
ENDBRANCH   1  18
TORSDOF 7
ENDMDL
MODEL 9
REMARK VINA RESULT:      -7.4      1.873      2.365
REMARK  Name = 
REMARK  8 active torsions:
REMARK  status: ('A' for Active; 'I' for Inactive)
REMARK    1  A    between atoms: C_1  and  C_2
REMARK    2  A    between atoms: C_2  and  S_3
REMARK    3  A    between atoms: S_3  and  N_6
REMARK    4  A    between atoms: N_9  and  C_10
REMARK    5  A    between atoms: C_10  and  C_11
REMARK    6  A    between atoms: C_11  and  N_12
REMARK    7  A    between atoms: C_13  and  C_15
REMARK    8  A    between atoms: C_16  and  N_17
REMARK                            x       y       z     vdW  Elec       q    Type
REMARK                         _______ _______ _______ _____ _____    ______ ____
ROOT
ATOM      1  C   UNL     1       2.296   4.938  18.784  0.00  0.00    +0.000 C 
ATOM      2  C   UNL     1       1.130   4.164  18.087  0.00  0.00    +0.000 C 
ATOM      3  C   UNL     1       0.860   2.785  18.704  0.00  0.00    +0.000 C 
ATOM      4  C   UNL     1       0.469   2.953  20.171  0.00  0.00    +0.000 C 
ATOM      5  C   UNL     1       1.632   3.594  20.942  0.00  0.00    +0.000 C 
ATOM      6  C   UNL     1       1.976   4.964  20.332  0.00  0.00    +0.000 C 
ENDROOT
BRANCH   1  10
ATOM      7  N   UNL     1       5.808   6.173  17.971  0.00  0.00    +0.000 NA
ATOM      8  C   UNL     1       4.927   5.777  16.860  0.00  0.00    +0.000 C 
ATOM      9  C   UNL     1       4.197   4.428  17.103  0.00  0.00    +0.000 C 
ATOM     10  N   UNL     1       3.631   4.266  18.474  0.00  0.00    +0.000 NA
ATOM     11  C   UNL     1       4.770   4.394  19.423  0.00  0.00    +0.000 C 
ATOM     12  C   UNL     1       5.476   5.760  19.355  0.00  0.00    +0.000 C 
BRANCH   7  13
ATOM     13  S   UNL     1       7.539   6.241  17.597  0.00  0.00    +0.000 S 
ATOM     14  O   UNL     1       7.635   6.397  16.069  0.00  0.00    +0.000 OA
ATOM     15  O   UNL     1       8.063   4.816  17.822  0.00  0.00    +0.000 OA
BRANCH  13  17
ATOM     16  C   UNL     1       8.064   8.919  17.859  0.00  0.00    +0.000 C 
ATOM     17  C   UNL     1       8.456   7.561  18.435  0.00  0.00    +0.000 C 
ENDBRANCH  13  17
ENDBRANCH   7  13
ENDBRANCH   1  10
BRANCH   1  18
ATOM     18  C   UNL     1       2.286   6.381  18.208  0.00  0.00    +0.000 C 
BRANCH  18  19
ATOM     19  N   UNL     1       1.913   7.421  19.131  0.00  0.00    +0.000 N 
ATOM     20  C   UNL     1       1.290   8.566  18.728  0.00  0.00    +0.000 C 
ATOM     21  O   UNL     1       0.956   8.699  17.559  0.00  0.00    +0.000 OA
ATOM     22  H   UNL     1       2.167   7.306  20.112  0.00  0.00    +0.000 HD
BRANCH  20  23
ATOM     23  C   UNL     1       0.973   9.623  19.717  0.00  0.00    +0.000 A 
ATOM     24  C   UNL     1       0.216   9.338  20.904  0.00  0.00    +0.000 A 
ATOM     25  C   UNL     1      -0.140  10.400  21.747  0.00  0.00    +0.000 A 
ATOM     26  C   UNL     1       0.265  11.692  21.454  0.00  0.00    +0.000 A 
ATOM     27  C   UNL     1       1.043  11.965  20.331  0.00  0.00    +0.000 A 
ATOM     28  C   UNL     1       1.404  10.947  19.462  0.00  0.00    +0.000 A 
ATOM     29 CL   UNL     1       2.347  11.402  18.040  0.00  0.00    +0.000 Cl
BRANCH  24  30
ATOM     30  N   UNL     1      -0.147   8.025  21.320  0.00  0.00    +0.000 N 
ATOM     31  H   UNL     1      -0.976   7.525  20.956  0.00  0.00    +0.000 HD
ATOM     32  H   UNL     1       0.508   7.455  21.876  0.00  0.00    +0.000 HD
ENDBRANCH  24  30
ENDBRANCH  20  23
ENDBRANCH  18  19
ENDBRANCH   1  18
TORSDOF 7
ENDMDL
