MODEL 1
REMARK VINA RESULT:      -6.6      0.000      0.000
REMARK  Name = 
REMARK  5 active torsions:
REMARK  status: ('A' for Active; 'I' for Inactive)
REMARK    1  A    between atoms: C_2  and  C_3
REMARK    2  A    between atoms: C_8  and  O_9
REMARK    3  A    between atoms: O_9  and  C_10
REMARK    4  A    between atoms: N_16  and  C_17
REMARK    5  A    between atoms: C_17  and  C_18
REMARK                            x       y       z     vdW  Elec       q    Type
REMARK                         _______ _______ _______ _____ _____    ______ ____
ROOT
ATOM      1  O   UNL     1       0.721   8.934  21.704  0.00  0.00    +0.000 OA
ATOM      2  C   UNL     1       0.993   9.113  20.516  0.00  0.00    +0.000 C 
ATOM      3  N   UNL     1       1.662   8.135  19.754  0.00  0.00    +0.000 N 
ATOM      4  C   UNL     1       1.959   8.200  18.313  0.00  0.00    +0.000 C 
ATOM      5  C   UNL     1       3.174   7.361  17.866  0.00  0.00    +0.000 C 
ATOM      6  N   UNL     1       3.211   5.983  18.393  0.00  0.00    +0.000 NA
ATOM      7  C   UNL     1       3.065   6.062  19.864  0.00  0.00    +0.000 C 
ATOM      8  C   UNL     1       1.804   6.800  20.354  0.00  0.00    +0.000 C 
ENDROOT
BRANCH   2   9
ATOM      9  C   UNL     1       0.590  10.422  19.919  0.00  0.00    +0.000 A 
ATOM     10  C   UNL     1       1.457  11.520  20.089  0.00  0.00    +0.000 A 
ATOM     11  C   UNL     1       1.147  12.790  19.604  0.00  0.00    +0.000 A 
ATOM     12  C   UNL     1       0.006  12.968  18.843  0.00  0.00    +0.000 A 
ATOM     13  C   UNL     1      -0.800  11.871  18.554  0.00  0.00    +0.000 A 
ATOM     14  C   UNL     1      -0.531  10.593  19.084  0.00  0.00    +0.000 A 
BRANCH  14  15
ATOM     15  O   UNL     1      -1.396   9.660  18.587  0.00  0.00    +0.000 OA
BRANCH  15  16
ATOM     16  C   UNL     1      -2.372  10.033  17.632  0.00  0.00    +0.000 C 
ATOM     17  F   UNL     1      -1.984   9.665  16.386  0.00  0.00    +0.000 F 
ATOM     18  F   UNL     1      -3.483   9.296  17.913  0.00  0.00    +0.000 F 
ENDBRANCH  15  16
ENDBRANCH  14  15
ENDBRANCH   2   9
BRANCH   6  19
ATOM     19  C   UNL     1       2.166   5.156  17.753  0.00  0.00    +0.000 C 
BRANCH  19  20
ATOM     20  C   UNL     1       2.340   3.707  18.068  0.00  0.00    +0.000 A 
ATOM     21  C   UNL     1       1.465   2.818  18.657  0.00  0.00    +0.000 A 
ATOM     22  N   UNL     1       2.137   1.631  18.722  0.00  0.00    +0.000 N 
ATOM     23  C   UNL     1       3.378   1.830  18.189  0.00  0.00    +0.000 A 
ATOM     24  N   UNL     1       3.534   3.067  17.785  0.00  0.00    +0.000 NA
ATOM     25  H   UNL     1       1.783   0.759  19.091  0.00  0.00    +0.000 HD
ENDBRANCH  19  20
ENDBRANCH   6  19
TORSDOF 5
ENDMDL
MODEL 2
REMARK VINA RESULT:      -6.6      4.493      7.422
REMARK  Name = 
REMARK  5 active torsions:
REMARK  status: ('A' for Active; 'I' for Inactive)
REMARK    1  A    between atoms: C_2  and  C_3
REMARK    2  A    between atoms: C_8  and  O_9
REMARK    3  A    between atoms: O_9  and  C_10
REMARK    4  A    between atoms: N_16  and  C_17
REMARK    5  A    between atoms: C_17  and  C_18
REMARK                            x       y       z     vdW  Elec       q    Type
REMARK                         _______ _______ _______ _____ _____    ______ ____
ROOT
ATOM      1  O   UNL     1       3.903   2.631  17.244  0.00  0.00    +0.000 OA
ATOM      2  C   UNL     1       4.146   3.413  18.164  0.00  0.00    +0.000 C 
ATOM      3  N   UNL     1       5.281   4.249  18.145  0.00  0.00    +0.000 N 
ATOM      4  C   UNL     1       5.624   5.281  19.138  0.00  0.00    +0.000 C 
ATOM      5  C   UNL     1       7.129   5.604  19.240  0.00  0.00    +0.000 C 
ATOM      6  N   UNL     1       7.814   5.807  17.949  0.00  0.00    +0.000 NA
ATOM      7  C   UNL     1       7.525   4.629  17.098  0.00  0.00    +0.000 C 
ATOM      8  C   UNL     1       6.028   4.336  16.881  0.00  0.00    +0.000 C 
ENDROOT
BRANCH   2   9
ATOM      9  C   UNL     1       3.188   3.429  19.309  0.00  0.00    +0.000 A 
ATOM     10  C   UNL     1       3.446   2.571  20.397  0.00  0.00    +0.000 A 
ATOM     11  C   UNL     1       2.587   2.485  21.492  0.00  0.00    +0.000 A 
ATOM     12  C   UNL     1       1.500   3.337  21.574  0.00  0.00    +0.000 A 
ATOM     13  C   UNL     1       1.298   4.282  20.572  0.00  0.00    +0.000 A 
ATOM     14  C   UNL     1       2.124   4.342  19.432  0.00  0.00    +0.000 A 
BRANCH  14  15
ATOM     15  O   UNL     1       1.795   5.405  18.639  0.00  0.00    +0.000 OA
BRANCH  15  16
ATOM     16  C   UNL     1       2.583   6.581  18.664  0.00  0.00    +0.000 C 
ATOM     17  F   UNL     1       3.231   6.745  17.485  0.00  0.00    +0.000 F 
ATOM     18  F   UNL     1       1.711   7.623  18.762  0.00  0.00    +0.000 F 
ENDBRANCH  15  16
ENDBRANCH  14  15
ENDBRANCH   2   9
BRANCH   6  19
ATOM     19  C   UNL     1       7.390   7.081  17.333  0.00  0.00    +0.000 C 
BRANCH  19  20
ATOM     20  C   UNL     1       8.057   8.253  17.977  0.00  0.00    +0.000 A 
ATOM     21  C   UNL     1       8.858   8.310  19.099  0.00  0.00    +0.000 A 
ATOM     22  N   UNL     1       9.182   9.628  19.251  0.00  0.00    +0.000 N 
ATOM     23  C   UNL     1       8.574  10.321  18.244  0.00  0.00    +0.000 A 
ATOM     24  N   UNL     1       7.891   9.525  17.458  0.00  0.00    +0.000 NA
ATOM     25  H   UNL     1       9.768  10.023  19.973  0.00  0.00    +0.000 HD
ENDBRANCH  19  20
ENDBRANCH   6  19
TORSDOF 5
ENDMDL
MODEL 3
REMARK VINA RESULT:      -6.6      3.604      7.682
REMARK  Name = 
REMARK  5 active torsions:
REMARK  status: ('A' for Active; 'I' for Inactive)
REMARK    1  A    between atoms: C_2  and  C_3
REMARK    2  A    between atoms: C_8  and  O_9
REMARK    3  A    between atoms: O_9  and  C_10
REMARK    4  A    between atoms: N_16  and  C_17
REMARK    5  A    between atoms: C_17  and  C_18
REMARK                            x       y       z     vdW  Elec       q    Type
REMARK                         _______ _______ _______ _____ _____    ______ ____
ROOT
ATOM      1  O   UNL     1       2.385   6.024  20.733  0.00  0.00    +0.000 OA
ATOM      2  C   UNL     1       2.427   6.539  19.615  0.00  0.00    +0.000 C 
ATOM      3  N   UNL     1       1.820   7.783  19.349  0.00  0.00    +0.000 N 
ATOM      4  C   UNL     1       1.882   8.533  18.083  0.00  0.00    +0.000 C 
ATOM      5  C   UNL     1       0.697   9.493  17.843  0.00  0.00    +0.000 C 
ATOM      6  N   UNL     1       0.340  10.345  18.993  0.00  0.00    +0.000 NA
ATOM      7  C   UNL     1       0.147   9.459  20.165  0.00  0.00    +0.000 C 
ATOM      8  C   UNL     1       1.351   8.560  20.506  0.00  0.00    +0.000 C 
ENDROOT
BRANCH   2   9
ATOM      9  C   UNL     1       3.143   5.779  18.546  0.00  0.00    +0.000 A 
ATOM     10  C   UNL     1       4.483   6.124  18.276  0.00  0.00    +0.000 A 
ATOM     11  C   UNL     1       5.219   5.500  17.270  0.00  0.00    +0.000 A 
ATOM     12  C   UNL     1       4.663   4.439  16.577  0.00  0.00    +0.000 A 
ATOM     13  C   UNL     1       3.387   3.998  16.915  0.00  0.00    +0.000 A 
ATOM     14  C   UNL     1       2.609   4.654  17.889  0.00  0.00    +0.000 A 
BRANCH  14  15
ATOM     15  O   UNL     1       1.439   3.987  18.119  0.00  0.00    +0.000 OA
BRANCH  15  16
ATOM     16  C   UNL     1       1.451   2.742  18.793  0.00  0.00    +0.000 C 
ATOM     17  F   UNL     1       2.326   2.770  19.828  0.00  0.00    +0.000 F 
ATOM     18  F   UNL     1       0.216   2.597  19.349  0.00  0.00    +0.000 F 
ENDBRANCH  15  16
ENDBRANCH  14  15
ENDBRANCH   2   9
BRANCH   6  19
ATOM     19  C   UNL     1       1.375  11.376  19.214  0.00  0.00    +0.000 C 
BRANCH  19  20
ATOM     20  C   UNL     1       0.835  12.753  19.006  0.00  0.00    +0.000 A 
ATOM     21  C   UNL     1      -0.414  13.160  18.584  0.00  0.00    +0.000 A 
ATOM     22  N   UNL     1      -0.364  14.524  18.553  0.00  0.00    +0.000 N 
ATOM     23  C   UNL     1       0.890  14.900  18.940  0.00  0.00    +0.000 A 
ATOM     24  N   UNL     1       1.637  13.860  19.222  0.00  0.00    +0.000 NA
ATOM     25  H   UNL     1      -1.116  15.148  18.296  0.00  0.00    +0.000 HD
ENDBRANCH  19  20
ENDBRANCH   6  19
TORSDOF 5
ENDMDL
MODEL 4
REMARK VINA RESULT:      -6.5      4.581      7.950
REMARK  Name = 
REMARK  5 active torsions:
REMARK  status: ('A' for Active; 'I' for Inactive)
REMARK    1  A    between atoms: C_2  and  C_3
REMARK    2  A    between atoms: C_8  and  O_9
REMARK    3  A    between atoms: O_9  and  C_10
REMARK    4  A    between atoms: N_16  and  C_17
REMARK    5  A    between atoms: C_17  and  C_18
REMARK                            x       y       z     vdW  Elec       q    Type
REMARK                         _______ _______ _______ _____ _____    ______ ____
ROOT
ATOM      1  O   UNL     1       5.239   3.196  19.280  0.00  0.00    +0.000 OA
ATOM      2  C   UNL     1       4.896   4.154  18.586  0.00  0.00    +0.000 C 
ATOM      3  N   UNL     1       3.821   4.989  18.956  0.00  0.00    +0.000 N 
ATOM      4  C   UNL     1       3.381   6.208  18.257  0.00  0.00    +0.000 C 
ATOM      5  C   UNL     1       1.897   6.571  18.468  0.00  0.00    +0.000 C 
ATOM      6  N   UNL     1       1.432   6.518  19.867  0.00  0.00    +0.000 NA
ATOM      7  C   UNL     1       1.790   5.186  20.408  0.00  0.00    +0.000 C 
ATOM      8  C   UNL     1       3.285   4.828  20.316  0.00  0.00    +0.000 C 
ENDROOT
BRANCH   2   9
ATOM      9  C   UNL     1       5.663   4.387  17.327  0.00  0.00    +0.000 A 
ATOM     10  C   UNL     1       5.194   3.778  16.145  0.00  0.00    +0.000 A 
ATOM     11  C   UNL     1       5.866   3.903  14.930  0.00  0.00    +0.000 A 
ATOM     12  C   UNL     1       6.972   4.731  14.846  0.00  0.00    +0.000 A 
ATOM     13  C   UNL     1       7.378   5.444  15.970  0.00  0.00    +0.000 A 
ATOM     14  C   UNL     1       6.743   5.283  17.218  0.00  0.00    +0.000 A 
BRANCH  14  15
ATOM     15  O   UNL     1       7.248   6.152  18.144  0.00  0.00    +0.000 OA
BRANCH  15  16
ATOM     16  C   UNL     1       7.826   7.376  17.729  0.00  0.00    +0.000 C 
ATOM     17  F   UNL     1       6.869   8.321  17.559  0.00  0.00    +0.000 F 
ATOM     18  F   UNL     1       8.598   7.805  18.766  0.00  0.00    +0.000 F 
ENDBRANCH  15  16
ENDBRANCH  14  15
ENDBRANCH   2   9
BRANCH   6  19
ATOM     19  C   UNL     1       2.010   7.632  20.647  0.00  0.00    +0.000 C 
BRANCH  19  20
ATOM     20  C   UNL     1       1.014   8.722  20.874  0.00  0.00    +0.000 A 
ATOM     21  C   UNL     1       0.300   9.047  22.008  0.00  0.00    +0.000 A 
ATOM     22  N   UNL     1      -0.476  10.114  21.659  0.00  0.00    +0.000 N 
ATOM     23  C   UNL     1      -0.223  10.397  20.348  0.00  0.00    +0.000 A 
ATOM     24  N   UNL     1       0.669   9.580  19.844  0.00  0.00    +0.000 NA
ATOM     25  H   UNL     1      -1.119  10.612  22.259  0.00  0.00    +0.000 HD
ENDBRANCH  19  20
ENDBRANCH   6  19
TORSDOF 5
ENDMDL
MODEL 5
REMARK VINA RESULT:      -6.5      3.437      4.486
REMARK  Name = 
REMARK  5 active torsions:
REMARK  status: ('A' for Active; 'I' for Inactive)
REMARK    1  A    between atoms: C_2  and  C_3
REMARK    2  A    between atoms: C_8  and  O_9
REMARK    3  A    between atoms: O_9  and  C_10
REMARK    4  A    between atoms: N_16  and  C_17
REMARK    5  A    between atoms: C_17  and  C_18
REMARK                            x       y       z     vdW  Elec       q    Type
REMARK                         _______ _______ _______ _____ _____    ______ ____
ROOT
ATOM      1  O   UNL     1       1.718   5.800  20.627  0.00  0.00    +0.000 OA
ATOM      2  C   UNL     1       2.361   6.427  19.784  0.00  0.00    +0.000 C 
ATOM      3  N   UNL     1       3.464   5.856  19.118  0.00  0.00    +0.000 N 
ATOM      4  C   UNL     1       4.247   6.475  18.035  0.00  0.00    +0.000 C 
ATOM      5  C   UNL     1       5.695   5.958  17.910  0.00  0.00    +0.000 C 
ATOM      6  N   UNL     1       5.842   4.491  17.952  0.00  0.00    +0.000 NA
ATOM      7  C   UNL     1       5.152   4.006  19.170  0.00  0.00    +0.000 C 
ATOM      8  C   UNL     1       3.669   4.409  19.280  0.00  0.00    +0.000 C 
ENDROOT
BRANCH   2   9
ATOM      9  C   UNL     1       1.925   7.828  19.506  0.00  0.00    +0.000 A 
ATOM     10  C   UNL     1       1.869   8.248  18.161  0.00  0.00    +0.000 A 
ATOM     11  C   UNL     1       1.515   9.548  17.805  0.00  0.00    +0.000 A 
ATOM     12  C   UNL     1       1.103  10.434  18.784  0.00  0.00    +0.000 A 
ATOM     13  C   UNL     1       1.026  10.003  20.106  0.00  0.00    +0.000 A 
ATOM     14  C   UNL     1       1.436   8.710  20.489  0.00  0.00    +0.000 A 
BRANCH  14  15
ATOM     15  O   UNL     1       1.179   8.482  21.811  0.00  0.00    +0.000 OA
BRANCH  15  16
ATOM     16  C   UNL     1       0.177   9.227  22.479  0.00  0.00    +0.000 C 
ATOM     17  F   UNL     1      -0.977   8.519  22.545  0.00  0.00    +0.000 F 
ATOM     18  F   UNL     1       0.604   9.372  23.765  0.00  0.00    +0.000 F 
ENDBRANCH  15  16
ENDBRANCH  14  15
ENDBRANCH   2   9
BRANCH   6  19
ATOM     19  C   UNL     1       5.319   3.883  16.711  0.00  0.00    +0.000 C 
BRANCH  19  20
ATOM     20  C   UNL     1       6.127   4.279  15.519  0.00  0.00    +0.000 A 
ATOM     21  C   UNL     1       7.247   5.079  15.436  0.00  0.00    +0.000 A 
ATOM     22  N   UNL     1       7.569   5.122  14.109  0.00  0.00    +0.000 N 
ATOM     23  C   UNL     1       6.650   4.369  13.438  0.00  0.00    +0.000 A 
ATOM     24  N   UNL     1       5.769   3.846  14.255  0.00  0.00    +0.000 NA
ATOM     25  H   UNL     1       8.347   5.616  13.695  0.00  0.00    +0.000 HD
ENDBRANCH  19  20
ENDBRANCH   6  19
TORSDOF 5
ENDMDL
MODEL 6
REMARK VINA RESULT:      -6.5      4.641      7.986
REMARK  Name = 
REMARK  5 active torsions:
REMARK  status: ('A' for Active; 'I' for Inactive)
REMARK    1  A    between atoms: C_2  and  C_3
REMARK    2  A    between atoms: C_8  and  O_9
REMARK    3  A    between atoms: O_9  and  C_10
REMARK    4  A    between atoms: N_16  and  C_17
REMARK    5  A    between atoms: C_17  and  C_18
REMARK                            x       y       z     vdW  Elec       q    Type
REMARK                         _______ _______ _______ _____ _____    ______ ____
ROOT
ATOM      1  O   UNL     1       5.672   3.531  19.048  0.00  0.00    +0.000 OA
ATOM      2  C   UNL     1       5.161   4.336  18.269  0.00  0.00    +0.000 C 
ATOM      3  N   UNL     1       4.042   5.111  18.633  0.00  0.00    +0.000 N 
ATOM      4  C   UNL     1       3.405   6.162  17.822  0.00  0.00    +0.000 C 
ATOM      5  C   UNL     1       1.916   6.411  18.142  0.00  0.00    +0.000 C 
ATOM      6  N   UNL     1       1.595   6.526  19.577  0.00  0.00    +0.000 NA
ATOM      7  C   UNL     1       2.147   5.331  20.257  0.00  0.00    +0.000 C 
ATOM      8  C   UNL     1       3.658   5.107  20.053  0.00  0.00    +0.000 C 
ENDROOT
BRANCH   2   9
ATOM      9  C   UNL     1       5.776   4.448  16.912  0.00  0.00    +0.000 A 
ATOM     10  C   UNL     1       5.044   3.954  15.813  0.00  0.00    +0.000 A 
ATOM     11  C   UNL     1       5.552   3.976  14.515  0.00  0.00    +0.000 A 
ATOM     12  C   UNL     1       6.766   4.592  14.270  0.00  0.00    +0.000 A 
ATOM     13  C   UNL     1       7.448   5.200  15.320  0.00  0.00    +0.000 A 
ATOM     14  C   UNL     1       6.975   5.136  16.646  0.00  0.00    +0.000 A 
BRANCH  14  15
ATOM     15  O   UNL     1       7.753   5.882  17.485  0.00  0.00    +0.000 OA
BRANCH  15  16
ATOM     16  C   UNL     1       7.683   7.296  17.449  0.00  0.00    +0.000 C 
ATOM     17  F   UNL     1       6.394   7.710  17.520  0.00  0.00    +0.000 F 
ATOM     18  F   UNL     1       8.282   7.737  18.590  0.00  0.00    +0.000 F 
ENDBRANCH  15  16
ENDBRANCH  14  15
ENDBRANCH   2   9
BRANCH   6  19
ATOM     19  C   UNL     1       2.118   7.795  20.124  0.00  0.00    +0.000 C 
BRANCH  19  20
ATOM     20  C   UNL     1       1.183   8.932  19.871  0.00  0.00    +0.000 A 
ATOM     21  C   UNL     1       1.132   9.819  18.817  0.00  0.00    +0.000 A 
ATOM     22  N   UNL     1       0.096  10.663  19.097  0.00  0.00    +0.000 N 
ATOM     23  C   UNL     1      -0.437  10.278  20.293  0.00  0.00    +0.000 A 
ATOM     24  N   UNL     1       0.191   9.239  20.786  0.00  0.00    +0.000 NA
ATOM     25  H   UNL     1      -0.225  11.431  18.524  0.00  0.00    +0.000 HD
ENDBRANCH  19  20
ENDBRANCH   6  19
TORSDOF 5
ENDMDL
MODEL 7
REMARK VINA RESULT:      -6.5      4.460      6.676
REMARK  Name = 
REMARK  5 active torsions:
REMARK  status: ('A' for Active; 'I' for Inactive)
REMARK    1  A    between atoms: C_2  and  C_3
REMARK    2  A    between atoms: C_8  and  O_9
REMARK    3  A    between atoms: O_9  and  C_10
REMARK    4  A    between atoms: N_16  and  C_17
REMARK    5  A    between atoms: C_17  and  C_18
REMARK                            x       y       z     vdW  Elec       q    Type
REMARK                         _______ _______ _______ _____ _____    ______ ____
ROOT
ATOM      1  O   UNL     1       5.964   5.003  20.188  0.00  0.00    +0.000 OA
ATOM      2  C   UNL     1       5.143   4.816  19.289  0.00  0.00    +0.000 C 
ATOM      3  N   UNL     1       5.489   4.954  17.929  0.00  0.00    +0.000 N 
ATOM      4  C   UNL     1       4.621   4.670  16.774  0.00  0.00    +0.000 C 
ATOM      5  C   UNL     1       4.981   5.448  15.491  0.00  0.00    +0.000 C 
ATOM      6  N   UNL     1       6.414   5.449  15.140  0.00  0.00    +0.000 NA
ATOM      7  C   UNL     1       7.166   5.907  16.332  0.00  0.00    +0.000 C 
ATOM      8  C   UNL     1       6.919   5.086  17.612  0.00  0.00    +0.000 C 
ENDROOT
BRANCH   2   9
ATOM      9  C   UNL     1       3.758   4.444  19.705  0.00  0.00    +0.000 A 
ATOM     10  C   UNL     1       3.521   3.110  20.096  0.00  0.00    +0.000 A 
ATOM     11  C   UNL     1       2.253   2.659  20.460  0.00  0.00    +0.000 A 
ATOM     12  C   UNL     1       1.208   3.561  20.543  0.00  0.00    +0.000 A 
ATOM     13  C   UNL     1       1.446   4.908  20.286  0.00  0.00    +0.000 A 
ATOM     14  C   UNL     1       2.709   5.370  19.862  0.00  0.00    +0.000 A 
BRANCH  14  15
ATOM     15  O   UNL     1       2.730   6.732  19.766  0.00  0.00    +0.000 OA
BRANCH  15  16
ATOM     16  C   UNL     1       2.511   7.360  18.516  0.00  0.00    +0.000 C 
ATOM     17  F   UNL     1       3.690   7.716  17.949  0.00  0.00    +0.000 F 
ATOM     18  F   UNL     1       1.974   6.409  17.701  0.00  0.00    +0.000 F 
ENDBRANCH  15  16
ENDBRANCH  14  15
ENDBRANCH   2   9
BRANCH   6  19
ATOM     19  C   UNL     1       6.833   4.112  14.672  0.00  0.00    +0.000 C 
BRANCH  19  20
ATOM     20  C   UNL     1       6.304   3.815  13.307  0.00  0.00    +0.000 A 
ATOM     21  C   UNL     1       6.955   3.792  12.091  0.00  0.00    +0.000 A 
ATOM     22  N   UNL     1       5.997   3.481  11.168  0.00  0.00    +0.000 N 
ATOM     23  C   UNL     1       4.815   3.335  11.835  0.00  0.00    +0.000 A 
ATOM     24  N   UNL     1       4.963   3.528  13.123  0.00  0.00    +0.000 NA
ATOM     25  H   UNL     1       6.134   3.373  10.173  0.00  0.00    +0.000 HD
ENDBRANCH  19  20
ENDBRANCH   6  19
TORSDOF 5
ENDMDL
MODEL 8
REMARK VINA RESULT:      -6.4      3.591      7.662
REMARK  Name = 
REMARK  5 active torsions:
REMARK  status: ('A' for Active; 'I' for Inactive)
REMARK    1  A    between atoms: C_2  and  C_3
REMARK    2  A    between atoms: C_8  and  O_9
REMARK    3  A    between atoms: O_9  and  C_10
REMARK    4  A    between atoms: N_16  and  C_17
REMARK    5  A    between atoms: C_17  and  C_18
REMARK                            x       y       z     vdW  Elec       q    Type
REMARK                         _______ _______ _______ _____ _____    ______ ____
ROOT
ATOM      1  O   UNL     1       2.935   5.983  20.292  0.00  0.00    +0.000 OA
ATOM      2  C   UNL     1       2.880   6.628  19.244  0.00  0.00    +0.000 C 
ATOM      3  N   UNL     1       2.129   7.816  19.145  0.00  0.00    +0.000 N 
ATOM      4  C   UNL     1       2.061   8.713  17.979  0.00  0.00    +0.000 C 
ATOM      5  C   UNL     1       0.769   9.551  17.884  0.00  0.00    +0.000 C 
ATOM      6  N   UNL     1       0.359  10.214  19.137  0.00  0.00    +0.000 NA
ATOM      7  C   UNL     1       0.308   9.179  20.195  0.00  0.00    +0.000 C 
ATOM      8  C   UNL     1       1.616   8.391  20.398  0.00  0.00    +0.000 C 
ENDROOT
BRANCH   2   9
ATOM      9  C   UNL     1       3.638   6.088  18.077  0.00  0.00    +0.000 A 
ATOM     10  C   UNL     1       4.437   6.983  17.337  0.00  0.00    +0.000 A 
ATOM     11  C   UNL     1       5.148   6.582  16.207  0.00  0.00    +0.000 A 
ATOM     12  C   UNL     1       5.160   5.246  15.849  0.00  0.00    +0.000 A 
ATOM     13  C   UNL     1       4.482   4.322  16.639  0.00  0.00    +0.000 A 
ATOM     14  C   UNL     1       3.713   4.720  17.751  0.00  0.00    +0.000 A 
BRANCH  14  15
ATOM     15  O   UNL     1       3.222   3.638  18.426  0.00  0.00    +0.000 OA
BRANCH  15  16
ATOM     16  C   UNL     1       1.929   3.142  18.128  0.00  0.00    +0.000 C 
ATOM     17  F   UNL     1       1.257   4.011  17.335  0.00  0.00    +0.000 F 
ATOM     18  F   UNL     1       2.115   2.017  17.382  0.00  0.00    +0.000 F 
ENDBRANCH  15  16
ENDBRANCH  14  15
ENDBRANCH   2   9
BRANCH   6  19
ATOM     19  C   UNL     1       1.279  11.325  19.459  0.00  0.00    +0.000 C 
BRANCH  19  20
ATOM     20  C   UNL     1       0.671  12.653  19.148  0.00  0.00    +0.000 A 
ATOM     21  C   UNL     1      -0.610  12.967  18.744  0.00  0.00    +0.000 A 
ATOM     22  N   UNL     1      -0.621  14.324  18.585  0.00  0.00    +0.000 N 
ATOM     23  C   UNL     1       0.629  14.784  18.883  0.00  0.00    +0.000 A 
ATOM     24  N   UNL     1       1.431  13.807  19.227  0.00  0.00    +0.000 NA
ATOM     25  H   UNL     1      -1.410  14.889  18.303  0.00  0.00    +0.000 HD
ENDBRANCH  19  20
ENDBRANCH   6  19
TORSDOF 5
ENDMDL
MODEL 9
REMARK VINA RESULT:      -6.3      4.520      7.033
REMARK  Name = 
REMARK  5 active torsions:
REMARK  status: ('A' for Active; 'I' for Inactive)
REMARK    1  A    between atoms: C_2  and  C_3
REMARK    2  A    between atoms: C_8  and  O_9
REMARK    3  A    between atoms: O_9  and  C_10
REMARK    4  A    between atoms: N_16  and  C_17
REMARK    5  A    between atoms: C_17  and  C_18
REMARK                            x       y       z     vdW  Elec       q    Type
REMARK                         _______ _______ _______ _____ _____    ______ ____
ROOT
ATOM      1  O   UNL     1       5.180   4.332  20.393  0.00  0.00    +0.000 OA
ATOM      2  C   UNL     1       4.638   4.264  19.289  0.00  0.00    +0.000 C 
ATOM      3  N   UNL     1       5.285   4.705  18.117  0.00  0.00    +0.000 N 
ATOM      4  C   UNL     1       4.775   4.592  16.741  0.00  0.00    +0.000 C 
ATOM      5  C   UNL     1       5.331   5.643  15.758  0.00  0.00    +0.000 C 
ATOM      6  N   UNL     1       6.793   5.836  15.809  0.00  0.00    +0.000 NA
ATOM      7  C   UNL     1       7.160   6.102  17.219  0.00  0.00    +0.000 C 
ATOM      8  C   UNL     1       6.718   5.019  18.222  0.00  0.00    +0.000 C 
ENDROOT
BRANCH   2   9
ATOM      9  C   UNL     1       3.255   3.700  19.248  0.00  0.00    +0.000 A 
ATOM     10  C   UNL     1       3.072   2.448  18.627  0.00  0.00    +0.000 A 
ATOM     11  C   UNL     1       1.813   1.860  18.502  0.00  0.00    +0.000 A 
ATOM     12  C   UNL     1       0.718   2.466  19.092  0.00  0.00    +0.000 A 
ATOM     13  C   UNL     1       0.897   3.638  19.821  0.00  0.00    +0.000 A 
ATOM     14  C   UNL     1       2.152   4.273  19.908  0.00  0.00    +0.000 A 
BRANCH  14  15
ATOM     15  O   UNL     1       2.105   5.347  20.751  0.00  0.00    +0.000 OA
BRANCH  15  16
ATOM     16  C   UNL     1       1.800   6.634  20.245  0.00  0.00    +0.000 C 
ATOM     17  F   UNL     1       1.543   7.495  21.260  0.00  0.00    +0.000 F 
ATOM     18  F   UNL     1       2.937   7.088  19.646  0.00  0.00    +0.000 F 
ENDBRANCH  15  16
ENDBRANCH  14  15
ENDBRANCH   2   9
BRANCH   6  19
ATOM     19  C   UNL     1       7.490   4.663  15.243  0.00  0.00    +0.000 C 
BRANCH  19  20
ATOM     20  C   UNL     1       7.170   4.477  13.796  0.00  0.00    +0.000 A 
ATOM     21  C   UNL     1       7.690   5.110  12.686  0.00  0.00    +0.000 A 
ATOM     22  N   UNL     1       7.033   4.572  11.616  0.00  0.00    +0.000 N 
ATOM     23  C   UNL     1       6.146   3.653  12.097  0.00  0.00    +0.000 A 
ATOM     24  N   UNL     1       6.202   3.569  13.403  0.00  0.00    +0.000 NA
ATOM     25  H   UNL     1       7.177   4.805  10.643  0.00  0.00    +0.000 HD
ENDBRANCH  19  20
ENDBRANCH   6  19
TORSDOF 5
ENDMDL
