MODEL 1
REMARK VINA RESULT:      -7.7      0.000      0.000
REMARK  Name = 
REMARK  4 active torsions:
REMARK  status: ('A' for Active; 'I' for Inactive)
REMARK    1  A    between atoms: C_1  and  C_2
REMARK    2  A    between atoms: C_7  and  C_8
REMARK    3  A    between atoms: C_11  and  N_12
REMARK    4  A    between atoms: C_21  and  C_22
REMARK                            x       y       z     vdW  Elec       q    Type
REMARK                         _______ _______ _______ _____ _____    ______ ____
ROOT
ATOM      1  C   UNL     1      -0.678   9.394  22.721  0.00  0.00    +0.000 C 
ATOM      2  C   UNL     1       0.165   9.068  21.513  0.00  0.00    +0.000 A 
ATOM      3  N   UNL     1       0.770   7.835  21.540  0.00  0.00    +0.000 NA
ATOM      4  C   UNL     1       1.524   7.505  20.540  0.00  0.00    +0.000 A 
ATOM      5  N   UNL     1       2.111   6.261  20.567  0.00  0.00    +0.000 NA
ATOM      6  N   UNL     1       2.820   5.885  19.605  0.00  0.00    +0.000 NA
ATOM      7  C   UNL     1       3.057   6.732  18.545  0.00  0.00    +0.000 A 
ATOM      8  N   UNL     1       2.566   7.925  18.440  0.00  0.00    +0.000 NA
ATOM      9  N   UNL     1       1.755   8.330  19.463  0.00  0.00    +0.000 N 
ATOM     10  C   UNL     1       1.152   9.566  19.353  0.00  0.00    +0.000 A 
ATOM     11  O   UNL     1       1.282  10.328  18.394  0.00  0.00    +0.000 OA
ATOM     12  C   UNL     1       0.284   9.947  20.499  0.00  0.00    +0.000 A 
ATOM     13  C   UNL     1      -0.402  11.277  20.448  0.00  0.00    +0.000 C 
ENDROOT
BRANCH   7  14
ATOM     14  C   UNL     1       3.927   6.201  17.452  0.00  0.00    +0.000 A 
ATOM     15  C   UNL     1       4.544   7.065  16.536  0.00  0.00    +0.000 A 
ATOM     16  C   UNL     1       5.400   6.557  15.553  0.00  0.00    +0.000 A 
ATOM     17  C   UNL     1       5.630   5.176  15.480  0.00  0.00    +0.000 A 
ATOM     18  C   UNL     1       5.009   4.301  16.380  0.00  0.00    +0.000 A 
ATOM     19  C   UNL     1       4.161   4.817  17.365  0.00  0.00    +0.000 A 
BRANCH  17  20
ATOM     20  N   UNL     1       6.542   4.642  14.459  0.00  0.00    +0.000 N 
ATOM     21  O   UNL     1       7.618   5.231  14.286  0.00  0.00    +0.000 OA
ATOM     22  O   UNL     1       6.181   3.636  13.834  0.00  0.00    +0.000 OA
ENDBRANCH  17  20
ENDBRANCH   7  14
TORSDOF 2
ENDMDL
MODEL 2
REMARK VINA RESULT:      -7.6      3.344      8.318
REMARK  Name = 
REMARK  4 active torsions:
REMARK  status: ('A' for Active; 'I' for Inactive)
REMARK    1  A    between atoms: C_1  and  C_2
REMARK    2  A    between atoms: C_7  and  C_8
REMARK    3  A    between atoms: C_11  and  N_12
REMARK    4  A    between atoms: C_21  and  C_22
REMARK                            x       y       z     vdW  Elec       q    Type
REMARK                         _______ _______ _______ _____ _____    ______ ____
ROOT
ATOM      1  C   UNL     1       4.618   3.973  17.071  0.00  0.00    +0.000 C 
ATOM      2  C   UNL     1       3.810   4.775  18.061  0.00  0.00    +0.000 A 
ATOM      3  N   UNL     1       3.503   6.053  17.662  0.00  0.00    +0.000 NA
ATOM      4  C   UNL     1       2.828   6.799  18.479  0.00  0.00    +0.000 A 
ATOM      5  N   UNL     1       2.508   8.071  18.063  0.00  0.00    +0.000 NA
ATOM      6  N   UNL     1       1.826   8.816  18.805  0.00  0.00    +0.000 NA
ATOM      7  C   UNL     1       1.442   8.386  20.056  0.00  0.00    +0.000 A 
ATOM      8  N   UNL     1       1.711   7.218  20.540  0.00  0.00    +0.000 NA
ATOM      9  N   UNL     1       2.417   6.379  19.723  0.00  0.00    +0.000 N 
ATOM     10  C   UNL     1       2.660   5.098  20.173  0.00  0.00    +0.000 A 
ATOM     11  O   UNL     1       2.278   4.650  21.255  0.00  0.00    +0.000 OA
ATOM     12  C   UNL     1       3.433   4.238  19.237  0.00  0.00    +0.000 A 
ATOM     13  C   UNL     1       3.735   2.834  19.662  0.00  0.00    +0.000 C 
ENDROOT
BRANCH   7  14
ATOM     14  C   UNL     1       0.644   9.351  20.873  0.00  0.00    +0.000 A 
ATOM     15  C   UNL     1      -0.025  10.427  20.270  0.00  0.00    +0.000 A 
ATOM     16  C   UNL     1      -0.813  11.287  21.042  0.00  0.00    +0.000 A 
ATOM     17  C   UNL     1      -0.924  11.077  22.424  0.00  0.00    +0.000 A 
ATOM     18  C   UNL     1      -0.250  10.014  23.039  0.00  0.00    +0.000 A 
ATOM     19  C   UNL     1       0.530   9.153  22.260  0.00  0.00    +0.000 A 
BRANCH  17  20
ATOM     20  N   UNL     1      -1.765  11.970  23.232  0.00  0.00    +0.000 N 
ATOM     21  O   UNL     1      -1.273  13.045  23.599  0.00  0.00    +0.000 OA
ATOM     22  O   UNL     1      -2.916  11.595  23.495  0.00  0.00    +0.000 OA
ENDBRANCH  17  20
ENDBRANCH   7  14
TORSDOF 2
ENDMDL
MODEL 3
REMARK VINA RESULT:      -7.6      0.152      1.231
REMARK  Name = 
REMARK  4 active torsions:
REMARK  status: ('A' for Active; 'I' for Inactive)
REMARK    1  A    between atoms: C_1  and  C_2
REMARK    2  A    between atoms: C_7  and  C_8
REMARK    3  A    between atoms: C_11  and  N_12
REMARK    4  A    between atoms: C_21  and  C_22
REMARK                            x       y       z     vdW  Elec       q    Type
REMARK                         _______ _______ _______ _____ _____    ______ ____
ROOT
ATOM      1  C   UNL     1      -0.735   9.502  22.621  0.00  0.00    +0.000 C 
ATOM      2  C   UNL     1       0.135   9.137  21.444  0.00  0.00    +0.000 A 
ATOM      3  N   UNL     1       0.724   7.898  21.518  0.00  0.00    +0.000 NA
ATOM      4  C   UNL     1       1.500   7.535  20.546  0.00  0.00    +0.000 A 
ATOM      5  N   UNL     1       2.070   6.285  20.619  0.00  0.00    +0.000 NA
ATOM      6  N   UNL     1       2.800   5.877  19.686  0.00  0.00    +0.000 NA
ATOM      7  C   UNL     1       3.076   6.696  18.613  0.00  0.00    +0.000 A 
ATOM      8  N   UNL     1       2.603   7.891  18.466  0.00  0.00    +0.000 NA
ATOM      9  N   UNL     1       1.770   8.330  19.457  0.00  0.00    +0.000 N 
ATOM     10  C   UNL     1       1.186   9.570  19.301  0.00  0.00    +0.000 A 
ATOM     11  O   UNL     1       1.351  10.307  18.328  0.00  0.00    +0.000 OA
ATOM     12  C   UNL     1       0.292   9.990  20.413  0.00  0.00    +0.000 A 
ATOM     13  C   UNL     1      -0.375  11.327  20.312  0.00  0.00    +0.000 C 
ENDROOT
BRANCH   7  14
ATOM     14  C   UNL     1       3.968   6.127  17.556  0.00  0.00    +0.000 A 
ATOM     15  C   UNL     1       4.010   4.746  17.314  0.00  0.00    +0.000 A 
ATOM     16  C   UNL     1       4.807   4.235  16.284  0.00  0.00    +0.000 A 
ATOM     17  C   UNL     1       5.574   5.109  15.500  0.00  0.00    +0.000 A 
ATOM     18  C   UNL     1       5.551   6.489  15.742  0.00  0.00    +0.000 A 
ATOM     19  C   UNL     1       4.745   6.993  16.767  0.00  0.00    +0.000 A 
BRANCH  17  20
ATOM     20  N   UNL     1       6.398   4.575  14.408  0.00  0.00    +0.000 N 
ATOM     21  O   UNL     1       5.950   3.614  13.768  0.00  0.00    +0.000 OA
ATOM     22  O   UNL     1       7.489   5.120  14.190  0.00  0.00    +0.000 OA
ENDBRANCH  17  20
ENDBRANCH   7  14
TORSDOF 2
ENDMDL
MODEL 4
REMARK VINA RESULT:      -7.5      3.038      4.061
REMARK  Name = 
REMARK  4 active torsions:
REMARK  status: ('A' for Active; 'I' for Inactive)
REMARK    1  A    between atoms: C_1  and  C_2
REMARK    2  A    between atoms: C_7  and  C_8
REMARK    3  A    between atoms: C_11  and  N_12
REMARK    4  A    between atoms: C_21  and  C_22
REMARK                            x       y       z     vdW  Elec       q    Type
REMARK                         _______ _______ _______ _____ _____    ______ ____
ROOT
ATOM      1  C   UNL     1      -0.436  13.347  19.294  0.00  0.00    +0.000 C 
ATOM      2  C   UNL     1       0.104  11.986  19.658  0.00  0.00    +0.000 A 
ATOM      3  N   UNL     1       0.579  11.247  18.602  0.00  0.00    +0.000 NA
ATOM      4  C   UNL     1       1.038  10.061  18.847  0.00  0.00    +0.000 A 
ATOM      5  N   UNL     1       1.529   9.336  17.786  0.00  0.00    +0.000 NA
ATOM      6  N   UNL     1       2.015   8.197  17.981  0.00  0.00    +0.000 NA
ATOM      7  C   UNL     1       2.011   7.647  19.244  0.00  0.00    +0.000 A 
ATOM      8  N   UNL     1       1.553   8.243  20.297  0.00  0.00    +0.000 NA
ATOM      9  N   UNL     1       1.060   9.504  20.105  0.00  0.00    +0.000 N 
ATOM     10  C   UNL     1       0.633  10.202  21.215  0.00  0.00    +0.000 A 
ATOM     11  O   UNL     1       0.671   9.776  22.370  0.00  0.00    +0.000 OA
ATOM     12  C   UNL     1       0.107  11.566  20.938  0.00  0.00    +0.000 A 
ATOM     13  C   UNL     1      -0.377  12.380  22.097  0.00  0.00    +0.000 C 
ENDROOT
BRANCH   7  14
ATOM     14  C   UNL     1       2.598   6.279  19.375  0.00  0.00    +0.000 A 
ATOM     15  C   UNL     1       2.159   5.398  20.375  0.00  0.00    +0.000 A 
ATOM     16  C   UNL     1       2.679   4.101  20.448  0.00  0.00    +0.000 A 
ATOM     17  C   UNL     1       3.650   3.688  19.526  0.00  0.00    +0.000 A 
ATOM     18  C   UNL     1       4.107   4.564  18.532  0.00  0.00    +0.000 A 
ATOM     19  C   UNL     1       3.577   5.856  18.459  0.00  0.00    +0.000 A 
BRANCH  17  20
ATOM     20  N   UNL     1       4.184   2.322  19.592  0.00  0.00    +0.000 N 
ATOM     21  O   UNL     1       3.749   1.495  18.779  0.00  0.00    +0.000 OA
ATOM     22  O   UNL     1       5.039   2.079  20.454  0.00  0.00    +0.000 OA
ENDBRANCH  17  20
ENDBRANCH   7  14
TORSDOF 2
ENDMDL
MODEL 5
REMARK VINA RESULT:      -7.5      2.943      3.921
REMARK  Name = 
REMARK  4 active torsions:
REMARK  status: ('A' for Active; 'I' for Inactive)
REMARK    1  A    between atoms: C_1  and  C_2
REMARK    2  A    between atoms: C_7  and  C_8
REMARK    3  A    between atoms: C_11  and  N_12
REMARK    4  A    between atoms: C_21  and  C_22
REMARK                            x       y       z     vdW  Elec       q    Type
REMARK                         _______ _______ _______ _____ _____    ______ ____
ROOT
ATOM      1  C   UNL     1       0.079  13.538  19.326  0.00  0.00    +0.000 C 
ATOM      2  C   UNL     1       0.463  12.106  19.600  0.00  0.00    +0.000 A 
ATOM      3  N   UNL     1       1.043  11.447  18.543  0.00  0.00    +0.000 NA
ATOM      4  C   UNL     1       1.376  10.206  18.710  0.00  0.00    +0.000 A 
ATOM      5  N   UNL     1       1.975   9.560  17.653  0.00  0.00    +0.000 NA
ATOM      6  N   UNL     1       2.347   8.370  17.780  0.00  0.00    +0.000 NA
ATOM      7  C   UNL     1       2.111   7.690  18.954  0.00  0.00    +0.000 A 
ATOM      8  N   UNL     1       1.539   8.207  19.994  0.00  0.00    +0.000 NA
ATOM      9  N   UNL     1       1.168   9.518  19.883  0.00  0.00    +0.000 N 
ATOM     10  C   UNL     1       0.623  10.127  20.994  0.00  0.00    +0.000 A 
ATOM     11  O   UNL     1       0.455   9.578  22.084  0.00  0.00    +0.000 OA
ATOM     12  C   UNL     1       0.241  11.552  20.807  0.00  0.00    +0.000 A 
ATOM     13  C   UNL     1      -0.360  12.276  21.973  0.00  0.00    +0.000 C 
ENDROOT
BRANCH   7  14
ATOM     14  C   UNL     1       2.577   6.271  19.006  0.00  0.00    +0.000 A 
ATOM     15  C   UNL     1       3.284   5.704  17.935  0.00  0.00    +0.000 A 
ATOM     16  C   UNL     1       3.763   4.393  18.022  0.00  0.00    +0.000 A 
ATOM     17  C   UNL     1       3.523   3.641  19.181  0.00  0.00    +0.000 A 
ATOM     18  C   UNL     1       2.806   4.191  20.251  0.00  0.00    +0.000 A 
ATOM     19  C   UNL     1       2.338   5.506  20.161  0.00  0.00    +0.000 A 
BRANCH  17  20
ATOM     20  N   UNL     1       4.040   2.270  19.280  0.00  0.00    +0.000 N 
ATOM     21  O   UNL     1       3.649   1.447  18.440  0.00  0.00    +0.000 OA
ATOM     22  O   UNL     1       4.836   2.019  20.194  0.00  0.00    +0.000 OA
ENDBRANCH  17  20
ENDBRANCH   7  14
TORSDOF 2
ENDMDL
MODEL 6
REMARK VINA RESULT:      -7.5      3.252      8.309
REMARK  Name = 
REMARK  4 active torsions:
REMARK  status: ('A' for Active; 'I' for Inactive)
REMARK    1  A    between atoms: C_1  and  C_2
REMARK    2  A    between atoms: C_7  and  C_8
REMARK    3  A    between atoms: C_11  and  N_12
REMARK    4  A    between atoms: C_21  and  C_22
REMARK                            x       y       z     vdW  Elec       q    Type
REMARK                         _______ _______ _______ _____ _____    ______ ____
ROOT
ATOM      1  C   UNL     1       4.665   3.867  16.888  0.00  0.00    +0.000 C 
ATOM      2  C   UNL     1       3.878   4.682  17.883  0.00  0.00    +0.000 A 
ATOM      3  N   UNL     1       3.589   5.964  17.486  0.00  0.00    +0.000 NA
ATOM      4  C   UNL     1       2.932   6.722  18.306  0.00  0.00    +0.000 A 
ATOM      5  N   UNL     1       2.630   7.999  17.892  0.00  0.00    +0.000 NA
ATOM      6  N   UNL     1       1.965   8.755  18.638  0.00  0.00    +0.000 NA
ATOM      7  C   UNL     1       1.582   8.332  19.892  0.00  0.00    +0.000 A 
ATOM      8  N   UNL     1       1.836   7.159  20.375  0.00  0.00    +0.000 NA
ATOM      9  N   UNL     1       2.522   6.309  19.553  0.00  0.00    +0.000 N 
ATOM     10  C   UNL     1       2.747   5.025  20.002  0.00  0.00    +0.000 A 
ATOM     11  O   UNL     1       2.366   4.583  21.087  0.00  0.00    +0.000 OA
ATOM     12  C   UNL     1       3.500   4.151  19.062  0.00  0.00    +0.000 A 
ATOM     13  C   UNL     1       3.782   2.743  19.486  0.00  0.00    +0.000 C 
ENDROOT
BRANCH   7  14
ATOM     14  C   UNL     1       0.806   9.310  20.714  0.00  0.00    +0.000 A 
ATOM     15  C   UNL     1       0.112   8.897  21.861  0.00  0.00    +0.000 A 
ATOM     16  C   UNL     1      -0.563   9.833  22.652  0.00  0.00    +0.000 A 
ATOM     17  C   UNL     1      -0.553  11.187  22.286  0.00  0.00    +0.000 A 
ATOM     18  C   UNL     1       0.124  11.609  21.135  0.00  0.00    +0.000 A 
ATOM     19  C   UNL     1       0.803  10.669  20.354  0.00  0.00    +0.000 A 
BRANCH  17  20
ATOM     20  N   UNL     1      -1.248  12.173  23.124  0.00  0.00    +0.000 N 
ATOM     21  O   UNL     1      -2.403  11.908  23.485  0.00  0.00    +0.000 OA
ATOM     22  O   UNL     1      -0.637  13.208  23.421  0.00  0.00    +0.000 OA
ENDBRANCH  17  20
ENDBRANCH   7  14
TORSDOF 2
ENDMDL
MODEL 7
REMARK VINA RESULT:      -7.4      1.697      2.549
REMARK  Name = 
REMARK  4 active torsions:
REMARK  status: ('A' for Active; 'I' for Inactive)
REMARK    1  A    between atoms: C_1  and  C_2
REMARK    2  A    between atoms: C_7  and  C_8
REMARK    3  A    between atoms: C_11  and  N_12
REMARK    4  A    between atoms: C_21  and  C_22
REMARK                            x       y       z     vdW  Elec       q    Type
REMARK                         _______ _______ _______ _____ _____    ______ ____
ROOT
ATOM      1  C   UNL     1      -1.544  11.888  20.977  0.00  0.00    +0.000 C 
ATOM      2  C   UNL     1      -0.534  10.809  20.674  0.00  0.00    +0.000 A 
ATOM      3  N   UNL     1      -0.091  10.776  19.374  0.00  0.00    +0.000 NA
ATOM      4  C   UNL     1       0.763   9.858  19.046  0.00  0.00    +0.000 A 
ATOM      5  N   UNL     1       1.216   9.844  17.747  0.00  0.00    +0.000 NA
ATOM      6  N   UNL     1       2.069   8.997  17.393  0.00  0.00    +0.000 NA
ATOM      7  C   UNL     1       2.514   8.046  18.285  0.00  0.00    +0.000 A 
ATOM      8  N   UNL     1       2.131   7.967  19.519  0.00  0.00    +0.000 NA
ATOM      9  N   UNL     1       1.234   8.914  19.928  0.00  0.00    +0.000 N 
ATOM     10  C   UNL     1       0.859   8.910  21.256  0.00  0.00    +0.000 A 
ATOM     11  O   UNL     1       1.281   8.122  22.103  0.00  0.00    +0.000 OA
ATOM     12  C   UNL     1      -0.119   9.964  21.637  0.00  0.00    +0.000 A 
ATOM     13  C   UNL     1      -0.574  10.018  23.063  0.00  0.00    +0.000 C 
ENDROOT
BRANCH   7  14
ATOM     14  C   UNL     1       3.519   7.069  17.768  0.00  0.00    +0.000 A 
ATOM     15  C   UNL     1       4.242   7.330  16.594  0.00  0.00    +0.000 A 
ATOM     16  C   UNL     1       5.220   6.432  16.153  0.00  0.00    +0.000 A 
ATOM     17  C   UNL     1       5.467   5.262  16.884  0.00  0.00    +0.000 A 
ATOM     18  C   UNL     1       4.743   4.983  18.050  0.00  0.00    +0.000 A 
ATOM     19  C   UNL     1       3.773   5.889  18.489  0.00  0.00    +0.000 A 
BRANCH  17  20
ATOM     20  N   UNL     1       6.506   4.326  16.432  0.00  0.00    +0.000 N 
ATOM     21  O   UNL     1       6.181   3.468  15.599  0.00  0.00    +0.000 OA
ATOM     22  O   UNL     1       7.641   4.452  16.908  0.00  0.00    +0.000 OA
ENDBRANCH  17  20
ENDBRANCH   7  14
TORSDOF 2
ENDMDL
MODEL 8
REMARK VINA RESULT:      -7.3      2.463      3.613
REMARK  Name = 
REMARK  4 active torsions:
REMARK  status: ('A' for Active; 'I' for Inactive)
REMARK    1  A    between atoms: C_1  and  C_2
REMARK    2  A    between atoms: C_7  and  C_8
REMARK    3  A    between atoms: C_11  and  N_12
REMARK    4  A    between atoms: C_21  and  C_22
REMARK                            x       y       z     vdW  Elec       q    Type
REMARK                         _______ _______ _______ _____ _____    ______ ____
ROOT
ATOM      1  C   UNL     1      -2.513  13.072  20.543  0.00  0.00    +0.000 C 
ATOM      2  C   UNL     1      -1.482  11.971  20.548  0.00  0.00    +0.000 A 
ATOM      3  N   UNL     1      -1.109  11.518  19.306  0.00  0.00    +0.000 NA
ATOM      4  C   UNL     1      -0.241  10.558  19.244  0.00  0.00    +0.000 A 
ATOM      5  N   UNL     1       0.141  10.124  17.996  0.00  0.00    +0.000 NA
ATOM      6  N   UNL     1       1.004   9.222  17.887  0.00  0.00    +0.000 NA
ATOM      7  C   UNL     1       1.531   8.626  19.012  0.00  0.00    +0.000 A 
ATOM      8  N   UNL     1       1.220   8.953  20.224  0.00  0.00    +0.000 NA
ATOM      9  N   UNL     1       0.312   9.966  20.356  0.00  0.00    +0.000 N 
ATOM     10  C   UNL     1       0.009  10.395  21.632  0.00  0.00    +0.000 A 
ATOM     11  O   UNL     1       0.506   9.938  22.663  0.00  0.00    +0.000 OA
ATOM     12  C   UNL     1      -0.985  11.499  21.707  0.00  0.00    +0.000 A 
ATOM     13  C   UNL     1      -1.363  12.013  23.062  0.00  0.00    +0.000 C 
ENDROOT
BRANCH   7  14
ATOM     14  C   UNL     1       2.543   7.550  18.781  0.00  0.00    +0.000 A 
ATOM     15  C   UNL     1       2.644   6.456  19.653  0.00  0.00    +0.000 A 
ATOM     16  C   UNL     1       3.557   5.429  19.392  0.00  0.00    +0.000 A 
ATOM     17  C   UNL     1       4.380   5.502  18.260  0.00  0.00    +0.000 A 
ATOM     18  C   UNL     1       4.298   6.596  17.389  0.00  0.00    +0.000 A 
ATOM     19  C   UNL     1       3.378   7.616  17.652  0.00  0.00    +0.000 A 
BRANCH  17  20
ATOM     20  N   UNL     1       5.328   4.416  17.976  0.00  0.00    +0.000 N 
ATOM     21  O   UNL     1       5.261   3.873  16.865  0.00  0.00    +0.000 OA
ATOM     22  O   UNL     1       6.136   4.111  18.863  0.00  0.00    +0.000 OA
ENDBRANCH  17  20
ENDBRANCH   7  14
TORSDOF 2
ENDMDL
MODEL 9
REMARK VINA RESULT:      -7.2      1.610      2.545
REMARK  Name = 
REMARK  4 active torsions:
REMARK  status: ('A' for Active; 'I' for Inactive)
REMARK    1  A    between atoms: C_1  and  C_2
REMARK    2  A    between atoms: C_7  and  C_8
REMARK    3  A    between atoms: C_11  and  N_12
REMARK    4  A    between atoms: C_21  and  C_22
REMARK                            x       y       z     vdW  Elec       q    Type
REMARK                         _______ _______ _______ _____ _____    ______ ____
ROOT
ATOM      1  C   UNL     1      -1.439  11.600  20.673  0.00  0.00    +0.000 C 
ATOM      2  C   UNL     1      -0.397  10.547  20.387  0.00  0.00    +0.000 A 
ATOM      3  N   UNL     1       0.154  10.600  19.130  0.00  0.00    +0.000 NA
ATOM      4  C   UNL     1       1.041   9.709  18.817  0.00  0.00    +0.000 A 
ATOM      5  N   UNL     1       1.602   9.782  17.563  0.00  0.00    +0.000 NA
ATOM      6  N   UNL     1       2.489   8.962  17.229  0.00  0.00    +0.000 NA
ATOM      7  C   UNL     1       2.866   7.957  18.092  0.00  0.00    +0.000 A 
ATOM      8  N   UNL     1       2.382   7.797  19.281  0.00  0.00    +0.000 NA
ATOM      9  N   UNL     1       1.445   8.711  19.674  0.00  0.00    +0.000 N 
ATOM     10  C   UNL     1       0.960   8.620  20.961  0.00  0.00    +0.000 A 
ATOM     11  O   UNL     1       1.316   7.780  21.789  0.00  0.00    +0.000 OA
ATOM     12  C   UNL     1      -0.057   9.643  21.326  0.00  0.00    +0.000 A 
ATOM     13  C   UNL     1      -0.630   9.602  22.709  0.00  0.00    +0.000 C 
ENDROOT
BRANCH   7  14
ATOM     14  C   UNL     1       3.921   7.020  17.599  0.00  0.00    +0.000 A 
ATOM     15  C   UNL     1       4.417   5.996  18.420  0.00  0.00    +0.000 A 
ATOM     16  C   UNL     1       5.363   5.092  17.925  0.00  0.00    +0.000 A 
ATOM     17  C   UNL     1       5.822   5.219  16.606  0.00  0.00    +0.000 A 
ATOM     18  C   UNL     1       5.345   6.246  15.781  0.00  0.00    +0.000 A 
ATOM     19  C   UNL     1       4.393   7.141  16.280  0.00  0.00    +0.000 A 
BRANCH  17  20
ATOM     20  N   UNL     1       6.803   4.260  16.080  0.00  0.00    +0.000 N 
ATOM     21  O   UNL     1       7.839   4.082  16.735  0.00  0.00    +0.000 OA
ATOM     22  O   UNL     1       6.534   3.687  15.016  0.00  0.00    +0.000 OA
ENDBRANCH  17  20
ENDBRANCH   7  14
TORSDOF 2
ENDMDL
