MODEL 1
REMARK VINA RESULT:      -7.3      0.000      0.000
REMARK  Name = 
REMARK  9 active torsions:
REMARK  status: ('A' for Active; 'I' for Inactive)
REMARK    1  A    between atoms: C_1  and  O_2
REMARK    2  A    between atoms: O_2  and  C_3
REMARK    3  A    between atoms: C_3  and  C_4
REMARK    4  A    between atoms: C_4  and  N_5
REMARK    5  A    between atoms: N_5  and  C_6
REMARK    6  A    between atoms: C_9  and  N_10
REMARK    7  A    between atoms: C_13  and  C_14
REMARK    8  A    between atoms: N_18  and  C_19
REMARK    9  A    between atoms: C_19  and  C_20
REMARK                            x       y       z     vdW  Elec       q    Type
REMARK                         _______ _______ _______ _____ _____    ______ ____
ROOT
ATOM      1  N   UNL     1       2.098   8.040  18.112  0.00  0.00    +0.000 N 
ATOM      2  C   UNL     1       1.516   8.474  19.311  0.00  0.00    +0.000 A 
ATOM      3  C   UNL     1       0.916   9.733  19.350  0.00  0.00    +0.000 A 
ATOM      4  C   UNL     1       0.457  10.280  20.561  0.00  0.00    +0.000 A 
ATOM      5  C   UNL     1       0.523   9.483  21.706  0.00  0.00    +0.000 A 
ATOM      6 CL   UNL     1      -0.073   9.934  23.264  0.00  0.00    +0.000 Cl
ATOM      7  C   UNL     1       1.078   8.219  21.565  0.00  0.00    +0.000 A 
ATOM      8  N   UNL     1       1.591   7.717  20.415  0.00  0.00    +0.000 NA
ATOM      9  H   UNL     1       1.426   7.933  17.377  0.00  0.00    +0.000 HD
ENDROOT
BRANCH   4  10
ATOM     10  C   UNL     1      -0.017  11.669  20.589  0.00  0.00    +0.000 A 
ATOM     11  C   UNL     1       0.803  12.743  20.863  0.00  0.00    +0.000 A 
ATOM     12  S   UNL     1      -0.103  14.194  20.875  0.00  0.00    +0.000 S 
ATOM     13  C   UNL     1      -1.526  13.300  20.493  0.00  0.00    +0.000 A 
ATOM     14  N   UNL     1      -2.701  13.957  20.311  0.00  0.00    +0.000 N 
ATOM     15  N   UNL     1      -1.352  12.006  20.415  0.00  0.00    +0.000 NA
ATOM     16  H   UNL     1      -2.695  14.960  20.434  0.00  0.00    +0.000 HD
BRANCH  14  17
ATOM     17  C   UNL     1      -3.939  13.264  20.629  0.00  0.00    +0.000 C 
BRANCH  17  18
ATOM     18  C   UNL     1      -4.373  13.522  22.086  0.00  0.00    +0.000 C 
ATOM     19  C   UNL     1      -3.971  14.945  22.509  0.00  0.00    +0.000 C 
ATOM     20  C   UNL     1      -4.277  15.190  23.981  0.00  0.00    +0.000 C 
ATOM     21  O   UNL     1      -3.635  14.214  24.798  0.00  0.00    +0.000 OA
ATOM     22  C   UNL     1      -4.085  12.892  24.511  0.00  0.00    +0.000 C 
ATOM     23  C   UNL     1      -3.768  12.510  23.070  0.00  0.00    +0.000 C 
ENDBRANCH  17  18
ENDBRANCH  14  17
ENDBRANCH   4  10
BRANCH   1  27
ATOM     24  C   UNL     1       5.131   5.057  17.128  0.00  0.00    +0.000 C 
ATOM     25  C   UNL     1       3.977   4.691  18.082  0.00  0.00    +0.000 C 
ATOM     26  C   UNL     1       2.770   5.620  17.887  0.00  0.00    +0.000 C 
ATOM     27  C   UNL     1       3.192   7.062  18.173  0.00  0.00    +0.000 C 
ATOM     28  C   UNL     1       4.268   7.460  17.146  0.00  0.00    +0.000 C 
ATOM     29  C   UNL     1       5.502   6.548  17.251  0.00  0.00    +0.000 C 
BRANCH  24  30
ATOM     30  N   UNL     1       6.328   4.223  17.324  0.00  0.00    +0.000 NA
ATOM     31  H   UNL     1       6.745   4.470  18.226  0.00  0.00    +0.000 HD
BRANCH  30  32
ATOM     32  C   UNL     1       7.364   4.411  16.281  0.00  0.00    +0.000 C 
BRANCH  32  33
ATOM     33  C   UNL     1       6.813   4.737  14.885  0.00  0.00    +0.000 C 
BRANCH  33  35
ATOM     34  C   UNL     1       6.230   3.625  12.891  0.00  0.00    +0.000 C 
ATOM     35  O   UNL     1       6.273   3.549  14.300  0.00  0.00    +0.000 OA
ENDBRANCH  33  35
ENDBRANCH  32  33
ENDBRANCH  30  32
ENDBRANCH  24  30
ENDBRANCH   1  27
TORSDOF 8
ENDMDL
MODEL 2
REMARK VINA RESULT:      -7.1      3.583     10.692
REMARK  Name = 
REMARK  9 active torsions:
REMARK  status: ('A' for Active; 'I' for Inactive)
REMARK    1  A    between atoms: C_1  and  O_2
REMARK    2  A    between atoms: O_2  and  C_3
REMARK    3  A    between atoms: C_3  and  C_4
REMARK    4  A    between atoms: C_4  and  N_5
REMARK    5  A    between atoms: N_5  and  C_6
REMARK    6  A    between atoms: C_9  and  N_10
REMARK    7  A    between atoms: C_13  and  C_14
REMARK    8  A    between atoms: N_18  and  C_19
REMARK    9  A    between atoms: C_19  and  C_20
REMARK                            x       y       z     vdW  Elec       q    Type
REMARK                         _______ _______ _______ _____ _____    ______ ____
ROOT
ATOM      1  N   UNL     1       0.870  11.178  18.055  0.00  0.00    +0.000 N 
ATOM      2  C   UNL     1       1.214  10.032  18.788  0.00  0.00    +0.000 A 
ATOM      3  C   UNL     1       2.096   9.112  18.220  0.00  0.00    +0.000 A 
ATOM      4  C   UNL     1       2.352   7.876  18.841  0.00  0.00    +0.000 A 
ATOM      5  C   UNL     1       1.782   7.642  20.094  0.00  0.00    +0.000 A 
ATOM      6 CL   UNL     1       2.049   6.234  21.058  0.00  0.00    +0.000 Cl
ATOM      7  C   UNL     1       0.967   8.638  20.613  0.00  0.00    +0.000 A 
ATOM      8  N   UNL     1       0.656   9.798  19.984  0.00  0.00    +0.000 NA
ATOM      9  H   UNL     1       1.657  11.774  17.887  0.00  0.00    +0.000 HD
ENDROOT
BRANCH   4  10
ATOM     10  C   UNL     1       3.155   6.870  18.135  0.00  0.00    +0.000 A 
ATOM     11  C   UNL     1       4.183   7.191  17.273  0.00  0.00    +0.000 A 
ATOM     12  S   UNL     1       4.844   5.772  16.584  0.00  0.00    +0.000 S 
ATOM     13  C   UNL     1       3.733   4.820  17.495  0.00  0.00    +0.000 A 
ATOM     14  N   UNL     1       3.782   3.466  17.406  0.00  0.00    +0.000 N 
ATOM     15  N   UNL     1       2.891   5.510  18.220  0.00  0.00    +0.000 NA
ATOM     16  H   UNL     1       4.467   3.067  16.779  0.00  0.00    +0.000 HD
BRANCH  14  17
ATOM     17  C   UNL     1       2.554   2.713  17.601  0.00  0.00    +0.000 C 
BRANCH  17  18
ATOM     18  C   UNL     1       2.402   2.249  19.064  0.00  0.00    +0.000 C 
ATOM     19  C   UNL     1       1.274   3.037  19.750  0.00  0.00    +0.000 C 
ATOM     20  C   UNL     1       1.178   2.690  21.229  0.00  0.00    +0.000 C 
ATOM     21  O   UNL     1       2.426   2.914  21.881  0.00  0.00    +0.000 OA
ATOM     22  C   UNL     1       3.467   2.099  21.346  0.00  0.00    +0.000 C 
ATOM     23  C   UNL     1       3.698   2.412  19.872  0.00  0.00    +0.000 C 
ENDBRANCH  17  18
ENDBRANCH  14  17
ENDBRANCH   4  10
BRANCH   1  27
ATOM     24  C   UNL     1      -2.951  12.371  19.796  0.00  0.00    +0.000 C 
ATOM     25  C   UNL     1      -2.916  11.714  18.404  0.00  0.00    +0.000 C 
ATOM     26  C   UNL     1      -1.631  10.898  18.199  0.00  0.00    +0.000 C 
ATOM     27  C   UNL     1      -0.421  11.823  18.324  0.00  0.00    +0.000 C 
ATOM     28  C   UNL     1      -0.399  12.394  19.755  0.00  0.00    +0.000 C 
ATOM     29  C   UNL     1      -1.675  13.197  20.054  0.00  0.00    +0.000 C 
BRANCH  24  30
ATOM     30  N   UNL     1      -4.144  13.209  20.009  0.00  0.00    +0.000 NA
ATOM     31  H   UNL     1      -3.853  14.059  20.499  0.00  0.00    +0.000 HD
BRANCH  30  32
ATOM     32  C   UNL     1      -5.196  12.554  20.823  0.00  0.00    +0.000 C 
BRANCH  32  33
ATOM     33  C   UNL     1      -6.592  13.180  20.685  0.00  0.00    +0.000 C 
BRANCH  33  35
ATOM     34  C   UNL     1      -7.512  11.011  20.663  0.00  0.00    +0.000 C 
ATOM     35  O   UNL     1      -7.564  12.296  21.247  0.00  0.00    +0.000 OA
ENDBRANCH  33  35
ENDBRANCH  32  33
ENDBRANCH  30  32
ENDBRANCH  24  30
ENDBRANCH   1  27
TORSDOF 8
ENDMDL
MODEL 3
REMARK VINA RESULT:      -7.0      2.935      4.241
REMARK  Name = 
REMARK  9 active torsions:
REMARK  status: ('A' for Active; 'I' for Inactive)
REMARK    1  A    between atoms: C_1  and  O_2
REMARK    2  A    between atoms: O_2  and  C_3
REMARK    3  A    between atoms: C_3  and  C_4
REMARK    4  A    between atoms: C_4  and  N_5
REMARK    5  A    between atoms: N_5  and  C_6
REMARK    6  A    between atoms: C_9  and  N_10
REMARK    7  A    between atoms: C_13  and  C_14
REMARK    8  A    between atoms: N_18  and  C_19
REMARK    9  A    between atoms: C_19  and  C_20
REMARK                            x       y       z     vdW  Elec       q    Type
REMARK                         _______ _______ _______ _____ _____    ______ ____
ROOT
ATOM      1  N   UNL     1       2.014   8.286  18.291  0.00  0.00    +0.000 N 
ATOM      2  C   UNL     1       1.469   8.593  19.546  0.00  0.00    +0.000 A 
ATOM      3  C   UNL     1       0.964   9.876  19.763  0.00  0.00    +0.000 A 
ATOM      4  C   UNL     1       0.551  10.285  21.044  0.00  0.00    +0.000 A 
ATOM      5  C   UNL     1       0.560   9.337  22.069  0.00  0.00    +0.000 A 
ATOM      6 CL   UNL     1       0.005   9.613  23.681  0.00  0.00    +0.000 Cl
ATOM      7  C   UNL     1       1.019   8.067  21.750  0.00  0.00    +0.000 A 
ATOM      8  N   UNL     1       1.490   7.690  20.536  0.00  0.00    +0.000 NA
ATOM      9  H   UNL     1       1.333   8.330  17.557  0.00  0.00    +0.000 HD
ENDROOT
BRANCH   4  10
ATOM     10  C   UNL     1       0.181  11.688  21.265  0.00  0.00    +0.000 A 
ATOM     11  C   UNL     1      -1.117  12.104  21.475  0.00  0.00    +0.000 A 
ATOM     12  S   UNL     1      -1.177  13.808  21.626  0.00  0.00    +0.000 S 
ATOM     13  C   UNL     1       0.533  13.879  21.424  0.00  0.00    +0.000 A 
ATOM     14  N   UNL     1       1.166  15.079  21.490  0.00  0.00    +0.000 N 
ATOM     15  N   UNL     1       1.104  12.723  21.205  0.00  0.00    +0.000 NA
ATOM     16  H   UNL     1       0.592  15.898  21.634  0.00  0.00    +0.000 HD
BRANCH  14  17
ATOM     17  C   UNL     1       2.389  15.261  20.726  0.00  0.00    +0.000 C 
BRANCH  17  18
ATOM     18  C   UNL     1       2.094  15.760  19.297  0.00  0.00    +0.000 C 
ATOM     19  C   UNL     1       3.411  16.056  18.562  0.00  0.00    +0.000 C 
ATOM     20  C   UNL     1       3.154  16.665  17.191  0.00  0.00    +0.000 C 
ATOM     21  O   UNL     1       2.359  17.843  17.305  0.00  0.00    +0.000 OA
ATOM     22  C   UNL     1       1.077  17.574  17.869  0.00  0.00    +0.000 C 
ATOM     23  C   UNL     1       1.212  17.017  19.282  0.00  0.00    +0.000 C 
ENDBRANCH  17  18
ENDBRANCH  14  17
ENDBRANCH   4  10
BRANCH   1  27
ATOM     24  C   UNL     1       4.726   5.166  16.888  0.00  0.00    +0.000 C 
ATOM     25  C   UNL     1       3.627   4.822  17.910  0.00  0.00    +0.000 C 
ATOM     26  C   UNL     1       2.481   5.844  17.870  0.00  0.00    +0.000 C 
ATOM     27  C   UNL     1       3.031   7.231  18.205  0.00  0.00    +0.000 C 
ATOM     28  C   UNL     1       4.052   7.618  17.118  0.00  0.00    +0.000 C 
ATOM     29  C   UNL     1       5.218   6.617  17.067  0.00  0.00    +0.000 C 
BRANCH  24  30
ATOM     30  N   UNL     1       5.870   4.239  16.936  0.00  0.00    +0.000 NA
ATOM     31  H   UNL     1       6.724   4.791  17.049  0.00  0.00    +0.000 HD
BRANCH  30  32
ATOM     32  C   UNL     1       6.022   3.416  15.713  0.00  0.00    +0.000 C 
BRANCH  32  33
ATOM     33  C   UNL     1       6.490   4.194  14.474  0.00  0.00    +0.000 C 
BRANCH  33  35
ATOM     34  C   UNL     1       6.397   3.470  12.233  0.00  0.00    +0.000 C 
ATOM     35  O   UNL     1       5.651   3.866  13.364  0.00  0.00    +0.000 OA
ENDBRANCH  33  35
ENDBRANCH  32  33
ENDBRANCH  30  32
ENDBRANCH  24  30
ENDBRANCH   1  27
TORSDOF 8
ENDMDL
MODEL 4
REMARK VINA RESULT:      -7.0      4.785      6.672
REMARK  Name = 
REMARK  9 active torsions:
REMARK  status: ('A' for Active; 'I' for Inactive)
REMARK    1  A    between atoms: C_1  and  O_2
REMARK    2  A    between atoms: O_2  and  C_3
REMARK    3  A    between atoms: C_3  and  C_4
REMARK    4  A    between atoms: C_4  and  N_5
REMARK    5  A    between atoms: N_5  and  C_6
REMARK    6  A    between atoms: C_9  and  N_10
REMARK    7  A    between atoms: C_13  and  C_14
REMARK    8  A    between atoms: N_18  and  C_19
REMARK    9  A    between atoms: C_19  and  C_20
REMARK                            x       y       z     vdW  Elec       q    Type
REMARK                         _______ _______ _______ _____ _____    ______ ____
ROOT
ATOM      1  N   UNL     1       2.210   8.317  17.741  0.00  0.00    +0.000 N 
ATOM      2  C   UNL     1       1.622   9.165  18.691  0.00  0.00    +0.000 A 
ATOM      3  C   UNL     1       1.643  10.542  18.467  0.00  0.00    +0.000 A 
ATOM      4  C   UNL     1       1.209  11.443  19.455  0.00  0.00    +0.000 A 
ATOM      5  C   UNL     1       0.657  10.917  20.625  0.00  0.00    +0.000 A 
ATOM      6 CL   UNL     1      -0.016  11.852  21.912  0.00  0.00    +0.000 Cl
ATOM      7  C   UNL     1       0.619   9.535  20.739  0.00  0.00    +0.000 A 
ATOM      8  N   UNL     1       1.105   8.663  19.822  0.00  0.00    +0.000 NA
ATOM      9  H   UNL     1       1.745   8.354  16.855  0.00  0.00    +0.000 HD
ENDROOT
BRANCH   4  10
ATOM     10  C   UNL     1       1.398  12.884  19.247  0.00  0.00    +0.000 A 
ATOM     11  C   UNL     1       0.360  13.791  19.245  0.00  0.00    +0.000 A 
ATOM     12  S   UNL     1       0.945  15.362  18.904  0.00  0.00    +0.000 S 
ATOM     13  C   UNL     1       2.547  14.736  18.802  0.00  0.00    +0.000 A 
ATOM     14  N   UNL     1       3.583  15.582  18.568  0.00  0.00    +0.000 N 
ATOM     15  N   UNL     1       2.636  13.441  18.957  0.00  0.00    +0.000 NA
ATOM     16  H   UNL     1       3.363  16.560  18.437  0.00  0.00    +0.000 HD
BRANCH  14  17
ATOM     17  C   UNL     1       4.749  15.073  17.866  0.00  0.00    +0.000 C 
BRANCH  17  18
ATOM     18  C   UNL     1       6.058  15.478  18.575  0.00  0.00    +0.000 C 
ATOM     19  C   UNL     1       6.083  16.999  18.800  0.00  0.00    +0.000 C 
ATOM     20  C   UNL     1       7.413  17.448  19.389  0.00  0.00    +0.000 C 
ATOM     21  O   UNL     1       8.496  17.038  18.557  0.00  0.00    +0.000 OA
ATOM     22  C   UNL     1       8.572  15.619  18.433  0.00  0.00    +0.000 C 
ATOM     23  C   UNL     1       7.308  15.061  17.788  0.00  0.00    +0.000 C 
ENDBRANCH  17  18
ENDBRANCH  14  17
ENDBRANCH   4  10
BRANCH   1  27
ATOM     24  C   UNL     1       3.838   4.268  17.879  0.00  0.00    +0.000 C 
ATOM     25  C   UNL     1       2.418   4.542  18.412  0.00  0.00    +0.000 C 
ATOM     26  C   UNL     1       1.829   5.826  17.810  0.00  0.00    +0.000 C 
ATOM     27  C   UNL     1       2.719   7.012  18.182  0.00  0.00    +0.000 C 
ATOM     28  C   UNL     1       4.107   6.786  17.554  0.00  0.00    +0.000 C 
ATOM     29  C   UNL     1       4.752   5.494  18.079  0.00  0.00    +0.000 C 
BRANCH  24  30
ATOM     30  N   UNL     1       4.459   3.074  18.478  0.00  0.00    +0.000 NA
ATOM     31  H   UNL     1       4.647   2.403  17.728  0.00  0.00    +0.000 HD
BRANCH  30  32
ATOM     32  C   UNL     1       3.606   2.400  19.485  0.00  0.00    +0.000 C 
BRANCH  32  33
ATOM     33  C   UNL     1       4.200   2.362  20.902  0.00  0.00    +0.000 C 
BRANCH  33  35
ATOM     34  C   UNL     1       1.975   2.875  21.485  0.00  0.00    +0.000 C 
ATOM     35  O   UNL     1       3.146   2.178  21.851  0.00  0.00    +0.000 OA
ENDBRANCH  33  35
ENDBRANCH  32  33
ENDBRANCH  30  32
ENDBRANCH  24  30
ENDBRANCH   1  27
TORSDOF 8
ENDMDL
MODEL 5
REMARK VINA RESULT:      -6.9      3.590     11.754
REMARK  Name = 
REMARK  9 active torsions:
REMARK  status: ('A' for Active; 'I' for Inactive)
REMARK    1  A    between atoms: C_1  and  O_2
REMARK    2  A    between atoms: O_2  and  C_3
REMARK    3  A    between atoms: C_3  and  C_4
REMARK    4  A    between atoms: C_4  and  N_5
REMARK    5  A    between atoms: N_5  and  C_6
REMARK    6  A    between atoms: C_9  and  N_10
REMARK    7  A    between atoms: C_13  and  C_14
REMARK    8  A    between atoms: N_18  and  C_19
REMARK    9  A    between atoms: C_19  and  C_20
REMARK                            x       y       z     vdW  Elec       q    Type
REMARK                         _______ _______ _______ _____ _____    ______ ____
ROOT
ATOM      1  N   UNL     1       1.799   9.070  18.694  0.00  0.00    +0.000 N 
ATOM      2  C   UNL     1       1.931   7.870  19.408  0.00  0.00    +0.000 A 
ATOM      3  C   UNL     1       2.603   6.803  18.809  0.00  0.00    +0.000 A 
ATOM      4  C   UNL     1       2.629   5.533  19.413  0.00  0.00    +0.000 A 
ATOM      5  C   UNL     1       2.055   5.398  20.679  0.00  0.00    +0.000 A 
ATOM      6 CL   UNL     1       2.066   3.952  21.624  0.00  0.00    +0.000 Cl
ATOM      7  C   UNL     1       1.462   6.527  21.228  0.00  0.00    +0.000 A 
ATOM      8  N   UNL     1       1.368   7.734  20.617  0.00  0.00    +0.000 NA
ATOM      9  H   UNL     1       2.683   9.505  18.510  0.00  0.00    +0.000 HD
ENDROOT
BRANCH   4  10
ATOM     10  C   UNL     1       3.202   4.400  18.678  0.00  0.00    +0.000 A 
ATOM     11  C   UNL     1       2.940   3.083  18.992  0.00  0.00    +0.000 A 
ATOM     12  S   UNL     1       3.831   2.040  17.970  0.00  0.00    +0.000 S 
ATOM     13  C   UNL     1       4.493   3.410  17.161  0.00  0.00    +0.000 A 
ATOM     14  N   UNL     1       5.336   3.225  16.112  0.00  0.00    +0.000 N 
ATOM     15  N   UNL     1       4.120   4.564  17.650  0.00  0.00    +0.000 NA
ATOM     16  H   UNL     1       5.562   2.273  15.861  0.00  0.00    +0.000 HD
BRANCH  14  17
ATOM     17  C   UNL     1       6.353   4.230  15.854  0.00  0.00    +0.000 C 
BRANCH  17  18
ATOM     18  C   UNL     1       6.378   4.642  14.368  0.00  0.00    +0.000 C 
ATOM     19  C   UNL     1       5.942   3.458  13.489  0.00  0.00    +0.000 C 
ATOM     20  C   UNL     1       6.071   3.794  12.009  0.00  0.00    +0.000 C 
ATOM     21  O   UNL     1       7.402   4.197  11.699  0.00  0.00    +0.000 OA
ATOM     22  C   UNL     1       7.788   5.372  12.409  0.00  0.00    +0.000 C 
ATOM     23  C   UNL     1       7.761   5.129  13.914  0.00  0.00    +0.000 C 
ENDBRANCH  17  18
ENDBRANCH  14  17
ENDBRANCH   4  10
BRANCH   1  27
ATOM     24  C   UNL     1      -1.410  12.022  18.480  0.00  0.00    +0.000 C 
ATOM     25  C   UNL     1      -0.233  12.240  19.449  0.00  0.00    +0.000 C 
ATOM     26  C   UNL     1       1.006  11.442  19.018  0.00  0.00    +0.000 C 
ATOM     27  C   UNL     1       0.665   9.951  19.003  0.00  0.00    +0.000 C 
ATOM     28  C   UNL     1      -0.438   9.722  17.952  0.00  0.00    +0.000 C 
ATOM     29  C   UNL     1      -1.706  10.521  18.292  0.00  0.00    +0.000 C 
BRANCH  24  30
ATOM     30  N   UNL     1      -2.636  12.728  18.892  0.00  0.00    +0.000 NA
ATOM     31  H   UNL     1      -2.504  13.061  19.851  0.00  0.00    +0.000 HD
BRANCH  30  32
ATOM     32  C   UNL     1      -3.850  11.878  18.871  0.00  0.00    +0.000 C 
BRANCH  32  33
ATOM     33  C   UNL     1      -5.037  12.439  19.669  0.00  0.00    +0.000 C 
BRANCH  33  35
ATOM     34  C   UNL     1      -6.315  10.900  18.424  0.00  0.00    +0.000 C 
ATOM     35  O   UNL     1      -6.089  11.471  19.695  0.00  0.00    +0.000 OA
ENDBRANCH  33  35
ENDBRANCH  32  33
ENDBRANCH  30  32
ENDBRANCH  24  30
ENDBRANCH   1  27
TORSDOF 8
ENDMDL
MODEL 6
REMARK VINA RESULT:      -6.9      4.426      6.200
REMARK  Name = 
REMARK  9 active torsions:
REMARK  status: ('A' for Active; 'I' for Inactive)
REMARK    1  A    between atoms: C_1  and  O_2
REMARK    2  A    between atoms: O_2  and  C_3
REMARK    3  A    between atoms: C_3  and  C_4
REMARK    4  A    between atoms: C_4  and  N_5
REMARK    5  A    between atoms: N_5  and  C_6
REMARK    6  A    between atoms: C_9  and  N_10
REMARK    7  A    between atoms: C_13  and  C_14
REMARK    8  A    between atoms: N_18  and  C_19
REMARK    9  A    between atoms: C_19  and  C_20
REMARK                            x       y       z     vdW  Elec       q    Type
REMARK                         _______ _______ _______ _____ _____    ______ ____
ROOT
ATOM      1  N   UNL     1       2.212   8.148  17.947  0.00  0.00    +0.000 N 
ATOM      2  C   UNL     1       1.572   8.969  18.887  0.00  0.00    +0.000 A 
ATOM      3  C   UNL     1       1.396  10.321  18.588  0.00  0.00    +0.000 A 
ATOM      4  C   UNL     1       0.903  11.217  19.553  0.00  0.00    +0.000 A 
ATOM      5  C   UNL     1       0.494  10.697  20.782  0.00  0.00    +0.000 A 
ATOM      6 CL   UNL     1      -0.223  11.614  22.058  0.00  0.00    +0.000 Cl
ATOM      7  C   UNL     1       0.646   9.331  20.972  0.00  0.00    +0.000 A 
ATOM      8  N   UNL     1       1.192   8.475  20.073  0.00  0.00    +0.000 NA
ATOM      9  H   UNL     1       1.697   8.070  17.092  0.00  0.00    +0.000 HD
ENDROOT
BRANCH   4  10
ATOM     10  C   UNL     1       0.887  12.655  19.255  0.00  0.00    +0.000 A 
ATOM     11  C   UNL     1      -0.266  13.411  19.241  0.00  0.00    +0.000 A 
ATOM     12  S   UNL     1       0.088  15.023  18.789  0.00  0.00    +0.000 S 
ATOM     13  C   UNL     1       1.758  14.614  18.664  0.00  0.00    +0.000 A 
ATOM     14  N   UNL     1       2.660  15.577  18.344  0.00  0.00    +0.000 N 
ATOM     15  N   UNL     1       2.028  13.355  18.889  0.00  0.00    +0.000 NA
ATOM     16  H   UNL     1       2.304  16.506  18.166  0.00  0.00    +0.000 HD
BRANCH  14  17
ATOM     17  C   UNL     1       3.864  15.188  17.629  0.00  0.00    +0.000 C 
BRANCH  17  18
ATOM     18  C   UNL     1       5.121  15.348  18.509  0.00  0.00    +0.000 C 
ATOM     19  C   UNL     1       5.342  16.833  18.843  0.00  0.00    +0.000 C 
ATOM     20  C   UNL     1       6.641  17.038  19.610  0.00  0.00    +0.000 C 
ATOM     21  O   UNL     1       7.745  16.510  18.880  0.00  0.00    +0.000 OA
ATOM     22  C   UNL     1       7.626  15.105  18.665  0.00  0.00    +0.000 C 
ATOM     23  C   UNL     1       6.383  14.784  17.842  0.00  0.00    +0.000 C 
ENDBRANCH  17  18
ENDBRANCH  14  17
ENDBRANCH   4  10
BRANCH   1  27
ATOM     24  C   UNL     1       4.332   4.339  18.199  0.00  0.00    +0.000 C 
ATOM     25  C   UNL     1       2.942   4.486  18.847  0.00  0.00    +0.000 C 
ATOM     26  C   UNL     1       2.148   5.642  18.219  0.00  0.00    +0.000 C 
ATOM     27  C   UNL     1       2.915   6.949  18.423  0.00  0.00    +0.000 C 
ATOM     28  C   UNL     1       4.260   6.838  17.680  0.00  0.00    +0.000 C 
ATOM     29  C   UNL     1       5.103   5.674  18.227  0.00  0.00    +0.000 C 
BRANCH  24  30
ATOM     30  N   UNL     1       5.145   3.276  18.813  0.00  0.00    +0.000 NA
ATOM     31  H   UNL     1       5.733   2.863  18.084  0.00  0.00    +0.000 HD
BRANCH  30  32
ATOM     32  C   UNL     1       4.343   2.187  19.419  0.00  0.00    +0.000 C 
BRANCH  32  33
ATOM     33  C   UNL     1       4.756   1.810  20.850  0.00  0.00    +0.000 C 
BRANCH  33  35
ATOM     34  C   UNL     1       6.060   0.295  22.097  0.00  0.00    +0.000 C 
ATOM     35  O   UNL     1       5.632   0.681  20.809  0.00  0.00    +0.000 OA
ENDBRANCH  33  35
ENDBRANCH  32  33
ENDBRANCH  30  32
ENDBRANCH  24  30
ENDBRANCH   1  27
TORSDOF 8
ENDMDL
MODEL 7
REMARK VINA RESULT:      -6.9      3.881     11.008
REMARK  Name = 
REMARK  9 active torsions:
REMARK  status: ('A' for Active; 'I' for Inactive)
REMARK    1  A    between atoms: C_1  and  O_2
REMARK    2  A    between atoms: O_2  and  C_3
REMARK    3  A    between atoms: C_3  and  C_4
REMARK    4  A    between atoms: C_4  and  N_5
REMARK    5  A    between atoms: N_5  and  C_6
REMARK    6  A    between atoms: C_9  and  N_10
REMARK    7  A    between atoms: C_13  and  C_14
REMARK    8  A    between atoms: N_18  and  C_19
REMARK    9  A    between atoms: C_19  and  C_20
REMARK                            x       y       z     vdW  Elec       q    Type
REMARK                         _______ _______ _______ _____ _____    ______ ____
ROOT
ATOM      1  N   UNL     1       1.359   9.487  18.271  0.00  0.00    +0.000 N 
ATOM      2  C   UNL     1       1.720   8.326  18.970  0.00  0.00    +0.000 A 
ATOM      3  C   UNL     1       2.394   7.313  18.286  0.00  0.00    +0.000 A 
ATOM      4  C   UNL     1       2.641   6.069  18.895  0.00  0.00    +0.000 A 
ATOM      5  C   UNL     1       2.288   5.915  20.237  0.00  0.00    +0.000 A 
ATOM      6 CL   UNL     1       2.592   4.504  21.186  0.00  0.00    +0.000 Cl
ATOM      7  C   UNL     1       1.679   6.996  20.858  0.00  0.00    +0.000 A 
ATOM      8  N   UNL     1       1.370   8.170  20.254  0.00  0.00    +0.000 NA
ATOM      9  H   UNL     1       2.155  10.000  17.943  0.00  0.00    +0.000 HD
ENDROOT
BRANCH   4  10
ATOM     10  C   UNL     1       3.203   4.976  18.092  0.00  0.00    +0.000 A 
ATOM     11  C   UNL     1       2.799   3.663  18.213  0.00  0.00    +0.000 A 
ATOM     12  S   UNL     1       3.717   2.662  17.173  0.00  0.00    +0.000 S 
ATOM     13  C   UNL     1       4.578   4.045  16.613  0.00  0.00    +0.000 A 
ATOM     14  N   UNL     1       5.521   3.900  15.646  0.00  0.00    +0.000 N 
ATOM     15  N   UNL     1       4.246   5.167  17.196  0.00  0.00    +0.000 NA
ATOM     16  H   UNL     1       5.697   2.964  15.306  0.00  0.00    +0.000 HD
BRANCH  14  17
ATOM     17  C   UNL     1       6.640   4.827  15.624  0.00  0.00    +0.000 C 
BRANCH  17  18
ATOM     18  C   UNL     1       6.759   5.601  16.953  0.00  0.00    +0.000 C 
ATOM     19  C   UNL     1       7.337   7.002  16.694  0.00  0.00    +0.000 C 
ATOM     20  C   UNL     1       7.581   7.748  17.998  0.00  0.00    +0.000 C 
ATOM     21  O   UNL     1       8.434   6.995  18.857  0.00  0.00    +0.000 OA
ATOM     22  C   UNL     1       7.862   5.739  19.216  0.00  0.00    +0.000 C 
ATOM     23  C   UNL     1       7.635   4.873  17.982  0.00  0.00    +0.000 C 
ENDBRANCH  17  18
ENDBRANCH  14  17
ENDBRANCH   4  10
BRANCH   1  27
ATOM     24  C   UNL     1      -2.067  12.179  18.551  0.00  0.00    +0.000 C 
ATOM     25  C   UNL     1      -0.806  12.454  19.393  0.00  0.00    +0.000 C 
ATOM     26  C   UNL     1       0.432  11.774  18.790  0.00  0.00    +0.000 C 
ATOM     27  C   UNL     1       0.205  10.262  18.744  0.00  0.00    +0.000 C 
ATOM     28  C   UNL     1      -0.990   9.984  17.813  0.00  0.00    +0.000 C 
ATOM     29  C   UNL     1      -2.268  10.666  18.329  0.00  0.00    +0.000 C 
BRANCH  24  30
ATOM     30  N   UNL     1      -3.286  12.768  19.129  0.00  0.00    +0.000 NA
ATOM     31  H   UNL     1      -3.105  12.973  20.116  0.00  0.00    +0.000 HD
BRANCH  30  32
ATOM     32  C   UNL     1      -4.470  11.878  19.061  0.00  0.00    +0.000 C 
BRANCH  32  33
ATOM     33  C   UNL     1      -5.701  12.502  18.388  0.00  0.00    +0.000 C 
BRANCH  33  35
ATOM     34  C   UNL     1      -7.187  11.146  19.615  0.00  0.00    +0.000 C 
ATOM     35  O   UNL     1      -6.751  11.533  18.329  0.00  0.00    +0.000 OA
ENDBRANCH  33  35
ENDBRANCH  32  33
ENDBRANCH  30  32
ENDBRANCH  24  30
ENDBRANCH   1  27
TORSDOF 8
ENDMDL
MODEL 8
REMARK VINA RESULT:      -6.9      3.271     10.985
REMARK  Name = 
REMARK  9 active torsions:
REMARK  status: ('A' for Active; 'I' for Inactive)
REMARK    1  A    between atoms: C_1  and  O_2
REMARK    2  A    between atoms: O_2  and  C_3
REMARK    3  A    between atoms: C_3  and  C_4
REMARK    4  A    between atoms: C_4  and  N_5
REMARK    5  A    between atoms: N_5  and  C_6
REMARK    6  A    between atoms: C_9  and  N_10
REMARK    7  A    between atoms: C_13  and  C_14
REMARK    8  A    between atoms: N_18  and  C_19
REMARK    9  A    between atoms: C_19  and  C_20
REMARK                            x       y       z     vdW  Elec       q    Type
REMARK                         _______ _______ _______ _____ _____    ______ ____
ROOT
ATOM      1  N   UNL     1       1.716   9.723  17.730  0.00  0.00    +0.000 N 
ATOM      2  C   UNL     1       1.903   8.618  18.573  0.00  0.00    +0.000 A 
ATOM      3  C   UNL     1       2.534   7.483  18.062  0.00  0.00    +0.000 A 
ATOM      4  C   UNL     1       2.607   6.296  18.813  0.00  0.00    +0.000 A 
ATOM      5  C   UNL     1       2.125   6.318  20.123  0.00  0.00    +0.000 A 
ATOM      6 CL   UNL     1       2.209   4.998  21.234  0.00  0.00    +0.000 Cl
ATOM      7  C   UNL     1       1.569   7.508  20.571  0.00  0.00    +0.000 A 
ATOM      8  N   UNL     1       1.428   8.633  19.826  0.00  0.00    +0.000 NA
ATOM      9  H   UNL     1       2.583  10.127  17.431  0.00  0.00    +0.000 HD
ENDROOT
BRANCH   4  10
ATOM     10  C   UNL     1       3.131   5.078  18.182  0.00  0.00    +0.000 A 
ATOM     11  C   UNL     1       2.647   3.816  18.456  0.00  0.00    +0.000 A 
ATOM     12  S   UNL     1       3.539   2.639  17.592  0.00  0.00    +0.000 S 
ATOM     13  C   UNL     1       4.497   3.888  16.892  0.00  0.00    +0.000 A 
ATOM     14  N   UNL     1       5.461   3.567  15.991  0.00  0.00    +0.000 N 
ATOM     15  N   UNL     1       4.212   5.093  17.312  0.00  0.00    +0.000 NA
ATOM     16  H   UNL     1       5.593   2.587  15.783  0.00  0.00    +0.000 HD
BRANCH  14  17
ATOM     17  C   UNL     1       6.633   4.422  15.894  0.00  0.00    +0.000 C 
BRANCH  17  18
ATOM     18  C   UNL     1       6.751   5.359  17.114  0.00  0.00    +0.000 C 
ATOM     19  C   UNL     1       7.250   6.742  16.665  0.00  0.00    +0.000 C 
ATOM     20  C   UNL     1       7.493   7.654  17.860  0.00  0.00    +0.000 C 
ATOM     21  O   UNL     1       8.407   7.054  18.774  0.00  0.00    +0.000 OA
ATOM     22  C   UNL     1       7.910   5.827  19.304  0.00  0.00    +0.000 C 
ATOM     23  C   UNL     1       7.691   4.805  18.194  0.00  0.00    +0.000 C 
ENDBRANCH  17  18
ENDBRANCH  14  17
ENDBRANCH   4  10
BRANCH   1  27
ATOM     24  C   UNL     1      -1.587  11.879  19.601  0.00  0.00    +0.000 C 
ATOM     25  C   UNL     1      -1.841  11.034  18.338  0.00  0.00    +0.000 C 
ATOM     26  C   UNL     1      -0.758   9.962  18.150  0.00  0.00    +0.000 C 
ATOM     27  C   UNL     1       0.605  10.641  18.008  0.00  0.00    +0.000 C 
ATOM     28  C   UNL     1       0.904  11.395  19.318  0.00  0.00    +0.000 C 
ATOM     29  C   UNL     1      -0.162  12.467  19.598  0.00  0.00    +0.000 C 
BRANCH  24  30
ATOM     30  N   UNL     1      -2.575  12.956  19.783  0.00  0.00    +0.000 NA
ATOM     31  H   UNL     1      -2.075  13.849  19.793  0.00  0.00    +0.000 HD
BRANCH  30  32
ATOM     32  C   UNL     1      -3.342  12.853  21.047  0.00  0.00    +0.000 C 
BRANCH  32  33
ATOM     33  C   UNL     1      -4.837  13.184  20.916  0.00  0.00    +0.000 C 
BRANCH  33  35
ATOM     34  C   UNL     1      -6.574  11.641  20.527  0.00  0.00    +0.000 C 
ATOM     35  O   UNL     1      -5.609  12.104  21.447  0.00  0.00    +0.000 OA
ENDBRANCH  33  35
ENDBRANCH  32  33
ENDBRANCH  30  32
ENDBRANCH  24  30
ENDBRANCH   1  27
TORSDOF 8
ENDMDL
MODEL 9
REMARK VINA RESULT:      -6.9      3.571     10.909
REMARK  Name = 
REMARK  9 active torsions:
REMARK  status: ('A' for Active; 'I' for Inactive)
REMARK    1  A    between atoms: C_1  and  O_2
REMARK    2  A    between atoms: O_2  and  C_3
REMARK    3  A    between atoms: C_3  and  C_4
REMARK    4  A    between atoms: C_4  and  N_5
REMARK    5  A    between atoms: N_5  and  C_6
REMARK    6  A    between atoms: C_9  and  N_10
REMARK    7  A    between atoms: C_13  and  C_14
REMARK    8  A    between atoms: N_18  and  C_19
REMARK    9  A    between atoms: C_19  and  C_20
REMARK                            x       y       z     vdW  Elec       q    Type
REMARK                         _______ _______ _______ _____ _____    ______ ____
ROOT
ATOM      1  N   UNL     1       0.187  10.317  17.797  0.00  0.00    +0.000 N 
ATOM      2  C   UNL     1       0.867   9.350  18.553  0.00  0.00    +0.000 A 
ATOM      3  C   UNL     1       1.880   8.610  17.941  0.00  0.00    +0.000 A 
ATOM      4  C   UNL     1       2.485   7.526  18.602  0.00  0.00    +0.000 A 
ATOM      5  C   UNL     1       2.118   7.279  19.927  0.00  0.00    +0.000 A 
ATOM      6 CL   UNL     1       2.810   6.062  20.937  0.00  0.00    +0.000 Cl
ATOM      7  C   UNL     1       1.147   8.104  20.478  0.00  0.00    +0.000 A 
ATOM      8  N   UNL     1       0.506   9.102  19.819  0.00  0.00    +0.000 NA
ATOM      9  H   UNL     1       0.788  11.061  17.498  0.00  0.00    +0.000 HD
ENDROOT
BRANCH   4  10
ATOM     10  C   UNL     1       3.427   6.673  17.868  0.00  0.00    +0.000 A 
ATOM     11  C   UNL     1       4.423   7.171  17.055  0.00  0.00    +0.000 A 
ATOM     12  S   UNL     1       5.279   5.889  16.313  0.00  0.00    +0.000 S 
ATOM     13  C   UNL     1       4.281   4.752  17.140  0.00  0.00    +0.000 A 
ATOM     14  N   UNL     1       4.509   3.423  16.983  0.00  0.00    +0.000 N 
ATOM     15  N   UNL     1       3.341   5.287  17.875  0.00  0.00    +0.000 NA
ATOM     16  H   UNL     1       5.253   3.151  16.356  0.00  0.00    +0.000 HD
BRANCH  14  17
ATOM     17  C   UNL     1       3.386   2.509  17.103  0.00  0.00    +0.000 C 
BRANCH  17  18
ATOM     18  C   UNL     1       3.193   2.038  18.559  0.00  0.00    +0.000 C 
ATOM     19  C   UNL     1       1.894   2.628  19.134  0.00  0.00    +0.000 C 
ATOM     20  C   UNL     1       1.736   2.282  20.608  0.00  0.00    +0.000 C 
ATOM     21  O   UNL     1       2.869   2.722  21.353  0.00  0.00    +0.000 OA
ATOM     22  C   UNL     1       4.074   2.092  20.922  0.00  0.00    +0.000 C 
ATOM     23  C   UNL     1       4.371   2.428  19.465  0.00  0.00    +0.000 C 
ENDBRANCH  17  18
ENDBRANCH  14  17
ENDBRANCH   4  10
BRANCH   1  27
ATOM     24  C   UNL     1      -3.861  11.948  17.893  0.00  0.00    +0.000 C 
ATOM     25  C   UNL     1      -2.840  12.370  18.967  0.00  0.00    +0.000 C 
ATOM     26  C   UNL     1      -1.397  12.153  18.487  0.00  0.00    +0.000 C 
ATOM     27  C   UNL     1      -1.186  10.670  18.179  0.00  0.00    +0.000 C 
ATOM     28  C   UNL     1      -2.134  10.279  17.029  0.00  0.00    +0.000 C 
ATOM     29  C   UNL     1      -3.604  10.504  17.418  0.00  0.00    +0.000 C 
BRANCH  24  30
ATOM     30  N   UNL     1      -5.258  12.089  18.339  0.00  0.00    +0.000 NA
ATOM     31  H   UNL     1      -5.766  12.625  17.631  0.00  0.00    +0.000 HD
BRANCH  30  32
ATOM     32  C   UNL     1      -5.403  12.798  19.633  0.00  0.00    +0.000 C 
BRANCH  32  33
ATOM     33  C   UNL     1      -6.195  12.026  20.699  0.00  0.00    +0.000 C 
BRANCH  33  35
ATOM     34  C   UNL     1      -6.055  13.382  22.620  0.00  0.00    +0.000 C 
ATOM     35  O   UNL     1      -5.582  12.219  21.976  0.00  0.00    +0.000 OA
ENDBRANCH  33  35
ENDBRANCH  32  33
ENDBRANCH  30  32
ENDBRANCH  24  30
ENDBRANCH   1  27
TORSDOF 8
ENDMDL
