MODEL 1
REMARK VINA RESULT:      -7.1      0.000      0.000
REMARK  Name = 
REMARK  9 active torsions:
REMARK  status: ('A' for Active; 'I' for Inactive)
REMARK    1  A    between atoms: C_1  and  C_2
REMARK    2  A    between atoms: C_4  and  C_5
REMARK    3  A    between atoms: C_5  and  C_6
REMARK    4  A    between atoms: C_5  and  N_13
REMARK    5  A    between atoms: N_13  and  C_14
REMARK    6  A    between atoms: N_13  and  C_15
REMARK    7  A    between atoms: N_16  and  C_17
REMARK    8  A    between atoms: C_17  and  C_18
REMARK    9  A    between atoms: C_18  and  O_19
REMARK                            x       y       z     vdW  Elec       q    Type
REMARK                         _______ _______ _______ _____ _____    ______ ____
ROOT
ATOM      1  C   UNL     1       4.558   4.289  18.200  0.00  0.00    +0.000 C 
ENDROOT
BRANCH   1   2
ATOM      2  C   UNL     1       3.762   5.573  18.453  0.00  0.00    +0.000 A 
ATOM      3  C   UNL     1       3.731   6.633  17.526  0.00  0.00    +0.000 A 
ATOM      4  C   UNL     1       2.962   7.776  17.758  0.00  0.00    +0.000 A 
ATOM      5  C   UNL     1       2.221   7.887  18.932  0.00  0.00    +0.000 A 
ATOM      6  C   UNL     1       2.257   6.856  19.862  0.00  0.00    +0.000 A 
ATOM      7  F   UNL     1       1.547   6.965  20.992  0.00  0.00    +0.000 F 
ATOM      8  C   UNL     1       3.013   5.712  19.636  0.00  0.00    +0.000 A 
ENDBRANCH   1   2
BRANCH   1  12
ATOM      9  C   UNL     1       6.738   4.227  13.722  0.00  0.00    +0.000 C 
ATOM     10  C   UNL     1       6.516   4.453  15.163  0.00  0.00    +0.000 A 
ATOM     11  N   UNL     1       5.356   4.102  15.786  0.00  0.00    +0.000 NA
ATOM     12  C   UNL     1       5.548   4.442  17.053  0.00  0.00    +0.000 A 
ATOM     13  N   UNL     1       6.803   4.997  17.154  0.00  0.00    +0.000 N 
ATOM     14  N   UNL     1       7.422   5.030  15.955  0.00  0.00    +0.000 NA
BRANCH  13  15
ATOM     15  C   UNL     1       7.484   5.572  18.295  0.00  0.00    +0.000 C 
BRANCH  15  16
ATOM     16  C   UNL     1       7.835   7.034  18.060  0.00  0.00    +0.000 C 
BRANCH  16  17
ATOM     17  O   UNL     1       7.016   7.596  17.035  0.00  0.00    +0.000 OA
ATOM     18  H   UNL     1       7.448   8.422  16.742  0.00  0.00    +0.000 HD
ENDBRANCH  16  17
ENDBRANCH  15  16
ENDBRANCH  13  15
ENDBRANCH   1  12
BRANCH   1  19
ATOM     19  N   UNL     1       3.748   3.041  18.110  0.00  0.00    +0.000 NA
ATOM     20  C   UNL     1       3.700   2.311  19.380  0.00  0.00    +0.000 C 
ATOM     21  C   UNL     1       2.387   3.212  17.600  0.00  0.00    +0.000 C 
ENDBRANCH   1  19
TORSDOF 6
ENDMDL
MODEL 2
REMARK VINA RESULT:      -7.0      1.076      1.522
REMARK  Name = 
REMARK  9 active torsions:
REMARK  status: ('A' for Active; 'I' for Inactive)
REMARK    1  A    between atoms: C_1  and  C_2
REMARK    2  A    between atoms: C_4  and  C_5
REMARK    3  A    between atoms: C_5  and  C_6
REMARK    4  A    between atoms: C_5  and  N_13
REMARK    5  A    between atoms: N_13  and  C_14
REMARK    6  A    between atoms: N_13  and  C_15
REMARK    7  A    between atoms: N_16  and  C_17
REMARK    8  A    between atoms: C_17  and  C_18
REMARK    9  A    between atoms: C_18  and  O_19
REMARK                            x       y       z     vdW  Elec       q    Type
REMARK                         _______ _______ _______ _____ _____    ______ ____
ROOT
ATOM      1  C   UNL     1       4.683   3.960  18.316  0.00  0.00    +0.000 C 
ENDROOT
BRANCH   1   2
ATOM      2  C   UNL     1       3.819   5.189  18.616  0.00  0.00    +0.000 A 
ATOM      3  C   UNL     1       3.111   5.332  19.824  0.00  0.00    +0.000 A 
ATOM      4  C   UNL     1       2.365   6.482  20.094  0.00  0.00    +0.000 A 
ATOM      5  C   UNL     1       2.301   7.505  19.152  0.00  0.00    +0.000 A 
ATOM      6  C   UNL     1       2.982   7.368  17.949  0.00  0.00    +0.000 A 
ATOM      7  F   UNL     1       2.917   8.351  17.042  0.00  0.00    +0.000 F 
ATOM      8  C   UNL     1       3.732   6.231  17.675  0.00  0.00    +0.000 A 
ENDBRANCH   1   2
BRANCH   1  12
ATOM      9  C   UNL     1       6.346   4.080  13.622  0.00  0.00    +0.000 C 
ATOM     10  C   UNL     1       6.293   4.237  15.089  0.00  0.00    +0.000 A 
ATOM     11  N   UNL     1       5.200   3.881  15.821  0.00  0.00    +0.000 NA
ATOM     12  C   UNL     1       5.543   4.149  17.074  0.00  0.00    +0.000 A 
ATOM     13  N   UNL     1       6.817   4.668  17.059  0.00  0.00    +0.000 N 
ATOM     14  N   UNL     1       7.299   4.749  15.800  0.00  0.00    +0.000 NA
BRANCH  13  15
ATOM     15  C   UNL     1       7.638   5.166  18.143  0.00  0.00    +0.000 C 
BRANCH  15  16
ATOM     16  C   UNL     1       7.558   6.683  18.254  0.00  0.00    +0.000 C 
BRANCH  16  17
ATOM     17  O   UNL     1       7.590   7.291  16.964  0.00  0.00    +0.000 OA
ATOM     18  H   UNL     1       8.254   6.808  16.434  0.00  0.00    +0.000 HD
ENDBRANCH  16  17
ENDBRANCH  15  16
ENDBRANCH  13  15
ENDBRANCH   1  12
BRANCH   1  19
ATOM     19  N   UNL     1       3.967   2.653  18.337  0.00  0.00    +0.000 NA
ATOM     20  C   UNL     1       4.022   2.005  19.651  0.00  0.00    +0.000 C 
ATOM     21  C   UNL     1       2.578   2.692  17.877  0.00  0.00    +0.000 C 
ENDBRANCH   1  19
TORSDOF 6
ENDMDL
MODEL 3
REMARK VINA RESULT:      -7.0      1.010      1.076
REMARK  Name = 
REMARK  9 active torsions:
REMARK  status: ('A' for Active; 'I' for Inactive)
REMARK    1  A    between atoms: C_1  and  C_2
REMARK    2  A    between atoms: C_4  and  C_5
REMARK    3  A    between atoms: C_5  and  C_6
REMARK    4  A    between atoms: C_5  and  N_13
REMARK    5  A    between atoms: N_13  and  C_14
REMARK    6  A    between atoms: N_13  and  C_15
REMARK    7  A    between atoms: N_16  and  C_17
REMARK    8  A    between atoms: C_17  and  C_18
REMARK    9  A    between atoms: C_18  and  O_19
REMARK                            x       y       z     vdW  Elec       q    Type
REMARK                         _______ _______ _______ _____ _____    ______ ____
ROOT
ATOM      1  C   UNL     1       4.679   4.563  18.110  0.00  0.00    +0.000 C 
ENDROOT
BRANCH   1   2
ATOM      2  C   UNL     1       3.795   5.779  18.406  0.00  0.00    +0.000 A 
ATOM      3  C   UNL     1       3.662   6.849  17.501  0.00  0.00    +0.000 A 
ATOM      4  C   UNL     1       2.816   7.927  17.772  0.00  0.00    +0.000 A 
ATOM      5  C   UNL     1       2.097   7.961  18.964  0.00  0.00    +0.000 A 
ATOM      6  C   UNL     1       2.233   6.920  19.873  0.00  0.00    +0.000 A 
ATOM      7  F   UNL     1       1.544   6.956  21.021  0.00  0.00    +0.000 F 
ATOM      8  C   UNL     1       3.067   5.841  19.608  0.00  0.00    +0.000 A 
ENDBRANCH   1   2
BRANCH   1  12
ATOM      9  C   UNL     1       6.946   4.668  13.676  0.00  0.00    +0.000 C 
ATOM     10  C   UNL     1       6.657   4.915  15.102  0.00  0.00    +0.000 A 
ATOM     11  N   UNL     1       5.553   4.408  15.721  0.00  0.00    +0.000 NA
ATOM     12  C   UNL     1       5.659   4.826  16.975  0.00  0.00    +0.000 A 
ATOM     13  N   UNL     1       6.806   5.580  17.071  0.00  0.00    +0.000 N 
ATOM     14  N   UNL     1       7.439   5.662  15.882  0.00  0.00    +0.000 NA
BRANCH  13  15
ATOM     15  C   UNL     1       7.358   6.304  18.197  0.00  0.00    +0.000 C 
BRANCH  15  16
ATOM     16  C   UNL     1       8.172   5.392  19.105  0.00  0.00    +0.000 C 
BRANCH  16  17
ATOM     17  O   UNL     1       7.787   5.556  20.469  0.00  0.00    +0.000 OA
ATOM     18  H   UNL     1       7.182   4.821  20.688  0.00  0.00    +0.000 HD
ENDBRANCH  16  17
ENDBRANCH  15  16
ENDBRANCH  13  15
ENDBRANCH   1  12
BRANCH   1  19
ATOM     19  N   UNL     1       3.958   3.266  17.971  0.00  0.00    +0.000 NA
ATOM     20  C   UNL     1       3.913   2.513  19.228  0.00  0.00    +0.000 C 
ATOM     21  C   UNL     1       2.608   3.355  17.414  0.00  0.00    +0.000 C 
ENDBRANCH   1  19
TORSDOF 6
ENDMDL
MODEL 4
REMARK VINA RESULT:      -6.8      1.720      2.104
REMARK  Name = 
REMARK  9 active torsions:
REMARK  status: ('A' for Active; 'I' for Inactive)
REMARK    1  A    between atoms: C_1  and  C_2
REMARK    2  A    between atoms: C_4  and  C_5
REMARK    3  A    between atoms: C_5  and  C_6
REMARK    4  A    between atoms: C_5  and  N_13
REMARK    5  A    between atoms: N_13  and  C_14
REMARK    6  A    between atoms: N_13  and  C_15
REMARK    7  A    between atoms: N_16  and  C_17
REMARK    8  A    between atoms: C_17  and  C_18
REMARK    9  A    between atoms: C_18  and  O_19
REMARK                            x       y       z     vdW  Elec       q    Type
REMARK                         _______ _______ _______ _____ _____    ______ ____
ROOT
ATOM      1  C   UNL     1       3.356   4.264  18.528  0.00  0.00    +0.000 C 
ENDROOT
BRANCH   1   2
ATOM      2  C   UNL     1       2.772   5.634  18.887  0.00  0.00    +0.000 A 
ATOM      3  C   UNL     1       2.288   5.929  20.176  0.00  0.00    +0.000 A 
ATOM      4  C   UNL     1       1.801   7.200  20.494  0.00  0.00    +0.000 A 
ATOM      5  C   UNL     1       1.774   8.196  19.522  0.00  0.00    +0.000 A 
ATOM      6  C   UNL     1       2.232   7.912  18.242  0.00  0.00    +0.000 A 
ATOM      7  F   UNL     1       2.202   8.869  17.305  0.00  0.00    +0.000 F 
ATOM      8  C   UNL     1       2.725   6.653  17.919  0.00  0.00    +0.000 A 
ENDBRANCH   1   2
BRANCH   1  12
ATOM      9  C   UNL     1       6.494   4.212  14.660  0.00  0.00    +0.000 C 
ATOM     10  C   UNL     1       5.965   4.390  16.026  0.00  0.00    +0.000 A 
ATOM     11  N   UNL     1       4.669   4.119  16.348  0.00  0.00    +0.000 NA
ATOM     12  C   UNL     1       4.592   4.379  17.646  0.00  0.00    +0.000 A 
ATOM     13  N   UNL     1       5.830   4.808  18.063  0.00  0.00    +0.000 N 
ATOM     14  N   UNL     1       6.708   4.840  17.038  0.00  0.00    +0.000 NA
BRANCH  13  15
ATOM     15  C   UNL     1       6.275   5.262  19.364  0.00  0.00    +0.000 C 
BRANCH  15  16
ATOM     16  C   UNL     1       7.752   5.629  19.355  0.00  0.00    +0.000 C 
BRANCH  16  17
ATOM     17  O   UNL     1       8.349   5.372  20.625  0.00  0.00    +0.000 OA
ATOM     18  H   UNL     1       8.989   6.091  20.794  0.00  0.00    +0.000 HD
ENDBRANCH  16  17
ENDBRANCH  15  16
ENDBRANCH  13  15
ENDBRANCH   1  12
BRANCH   1  19
ATOM     19  N   UNL     1       2.373   3.260  18.030  0.00  0.00    +0.000 NA
ATOM     20  C   UNL     1       2.926   1.903  17.998  0.00  0.00    +0.000 C 
ATOM     21  C   UNL     1       1.087   3.241  18.728  0.00  0.00    +0.000 C 
ENDBRANCH   1  19
TORSDOF 6
ENDMDL
MODEL 5
REMARK VINA RESULT:      -6.8      2.295      3.519
REMARK  Name = 
REMARK  9 active torsions:
REMARK  status: ('A' for Active; 'I' for Inactive)
REMARK    1  A    between atoms: C_1  and  C_2
REMARK    2  A    between atoms: C_4  and  C_5
REMARK    3  A    between atoms: C_5  and  C_6
REMARK    4  A    between atoms: C_5  and  N_13
REMARK    5  A    between atoms: N_13  and  C_14
REMARK    6  A    between atoms: N_13  and  C_15
REMARK    7  A    between atoms: N_16  and  C_17
REMARK    8  A    between atoms: C_17  and  C_18
REMARK    9  A    between atoms: C_18  and  O_19
REMARK                            x       y       z     vdW  Elec       q    Type
REMARK                         _______ _______ _______ _____ _____    ______ ____
ROOT
ATOM      1  C   UNL     1       3.107   5.640  17.975  0.00  0.00    +0.000 C 
ENDROOT
BRANCH   1   2
ATOM      2  C   UNL     1       2.482   4.594  18.903  0.00  0.00    +0.000 A 
ATOM      3  C   UNL     1       2.759   4.553  20.282  0.00  0.00    +0.000 A 
ATOM      4  C   UNL     1       2.143   3.617  21.118  0.00  0.00    +0.000 A 
ATOM      5  C   UNL     1       1.247   2.694  20.584  0.00  0.00    +0.000 A 
ATOM      6  C   UNL     1       0.979   2.714  19.222  0.00  0.00    +0.000 A 
ATOM      7  F   UNL     1       0.120   1.823  18.708  0.00  0.00    +0.000 F 
ATOM      8  C   UNL     1       1.582   3.645  18.385  0.00  0.00    +0.000 A 
ENDBRANCH   1   2
BRANCH   1  12
ATOM      9  C   UNL     1       6.356   3.894  14.627  0.00  0.00    +0.000 C 
ATOM     10  C   UNL     1       5.792   4.395  15.895  0.00  0.00    +0.000 A 
ATOM     11  N   UNL     1       4.483   4.755  16.021  0.00  0.00    +0.000 NA
ATOM     12  C   UNL     1       4.364   5.124  17.289  0.00  0.00    +0.000 A 
ATOM     13  N   UNL     1       5.598   4.991  17.883  0.00  0.00    +0.000 N 
ATOM     14  N   UNL     1       6.521   4.549  17.002  0.00  0.00    +0.000 NA
BRANCH  13  15
ATOM     15  C   UNL     1       6.027   5.303  19.230  0.00  0.00    +0.000 C 
BRANCH  15  16
ATOM     16  C   UNL     1       7.505   5.665  19.278  0.00  0.00    +0.000 C 
BRANCH  16  17
ATOM     17  O   UNL     1       8.038   5.457  20.585  0.00  0.00    +0.000 OA
ATOM     18  H   UNL     1       8.942   5.103  20.475  0.00  0.00    +0.000 HD
ENDBRANCH  16  17
ENDBRANCH  15  16
ENDBRANCH  13  15
ENDBRANCH   1  12
BRANCH   1  19
ATOM     19  N   UNL     1       3.279   6.998  18.564  0.00  0.00    +0.000 NA
ATOM     20  C   UNL     1       3.637   8.004  17.560  0.00  0.00    +0.000 C 
ATOM     21  C   UNL     1       2.147   7.487  19.354  0.00  0.00    +0.000 C 
ENDBRANCH   1  19
TORSDOF 6
ENDMDL
MODEL 6
REMARK VINA RESULT:      -6.7      2.088      3.396
REMARK  Name = 
REMARK  9 active torsions:
REMARK  status: ('A' for Active; 'I' for Inactive)
REMARK    1  A    between atoms: C_1  and  C_2
REMARK    2  A    between atoms: C_4  and  C_5
REMARK    3  A    between atoms: C_5  and  C_6
REMARK    4  A    between atoms: C_5  and  N_13
REMARK    5  A    between atoms: N_13  and  C_14
REMARK    6  A    between atoms: N_13  and  C_15
REMARK    7  A    between atoms: N_16  and  C_17
REMARK    8  A    between atoms: C_17  and  C_18
REMARK    9  A    between atoms: C_18  and  O_19
REMARK                            x       y       z     vdW  Elec       q    Type
REMARK                         _______ _______ _______ _____ _____    ______ ____
ROOT
ATOM      1  C   UNL     1       3.106   5.505  17.932  0.00  0.00    +0.000 C 
ENDROOT
BRANCH   1   2
ATOM      2  C   UNL     1       2.455   4.373  18.733  0.00  0.00    +0.000 A 
ATOM      3  C   UNL     1       1.372   3.626  18.233  0.00  0.00    +0.000 A 
ATOM      4  C   UNL     1       0.823   2.569  18.962  0.00  0.00    +0.000 A 
ATOM      5  C   UNL     1       1.339   2.249  20.215  0.00  0.00    +0.000 A 
ATOM      6  C   UNL     1       2.396   2.989  20.727  0.00  0.00    +0.000 A 
ATOM      7  F   UNL     1       2.890   2.684  21.934  0.00  0.00    +0.000 F 
ATOM      8  C   UNL     1       2.953   4.038  20.005  0.00  0.00    +0.000 A 
ENDBRANCH   1   2
BRANCH   1  12
ATOM      9  C   UNL     1       6.485   3.922  14.632  0.00  0.00    +0.000 C 
ATOM     10  C   UNL     1       5.883   4.411  15.887  0.00  0.00    +0.000 A 
ATOM     11  N   UNL     1       4.550   4.676  16.002  0.00  0.00    +0.000 NA
ATOM     12  C   UNL     1       4.400   5.066  17.261  0.00  0.00    +0.000 A 
ATOM     13  N   UNL     1       5.639   5.038  17.860  0.00  0.00    +0.000 N 
ATOM     14  N   UNL     1       6.594   4.643  16.991  0.00  0.00    +0.000 NA
BRANCH  13  15
ATOM     15  C   UNL     1       6.039   5.412  19.200  0.00  0.00    +0.000 C 
BRANCH  15  16
ATOM     16  C   UNL     1       7.531   5.707  19.277  0.00  0.00    +0.000 C 
BRANCH  16  17
ATOM     17  O   UNL     1       8.044   5.400  20.573  0.00  0.00    +0.000 OA
ATOM     18  H   UNL     1       8.132   6.245  21.056  0.00  0.00    +0.000 HD
ENDBRANCH  16  17
ENDBRANCH  15  16
ENDBRANCH  13  15
ENDBRANCH   1  12
BRANCH   1  19
ATOM     19  N   UNL     1       3.232   6.806  18.648  0.00  0.00    +0.000 NA
ATOM     20  C   UNL     1       3.282   7.948  17.731  0.00  0.00    +0.000 C 
ATOM     21  C   UNL     1       2.220   7.057  19.675  0.00  0.00    +0.000 C 
ENDBRANCH   1  19
TORSDOF 6
ENDMDL
MODEL 7
REMARK VINA RESULT:      -6.7      1.381      1.776
REMARK  Name = 
REMARK  9 active torsions:
REMARK  status: ('A' for Active; 'I' for Inactive)
REMARK    1  A    between atoms: C_1  and  C_2
REMARK    2  A    between atoms: C_4  and  C_5
REMARK    3  A    between atoms: C_5  and  C_6
REMARK    4  A    between atoms: C_5  and  N_13
REMARK    5  A    between atoms: N_13  and  C_14
REMARK    6  A    between atoms: N_13  and  C_15
REMARK    7  A    between atoms: N_16  and  C_17
REMARK    8  A    between atoms: C_17  and  C_18
REMARK    9  A    between atoms: C_18  and  O_19
REMARK                            x       y       z     vdW  Elec       q    Type
REMARK                         _______ _______ _______ _____ _____    ______ ____
ROOT
ATOM      1  C   UNL     1       4.674   4.321  18.243  0.00  0.00    +0.000 C 
ENDROOT
BRANCH   1   2
ATOM      2  C   UNL     1       3.746   5.484  18.605  0.00  0.00    +0.000 A 
ATOM      3  C   UNL     1       3.109   5.575  19.857  0.00  0.00    +0.000 A 
ATOM      4  C   UNL     1       2.302   6.668  20.182  0.00  0.00    +0.000 A 
ATOM      5  C   UNL     1       2.104   7.685  19.251  0.00  0.00    +0.000 A 
ATOM      6  C   UNL     1       2.713   7.598  18.006  0.00  0.00    +0.000 A 
ATOM      7  F   UNL     1       2.519   8.575  17.110  0.00  0.00    +0.000 F 
ATOM      8  C   UNL     1       3.523   6.518  17.677  0.00  0.00    +0.000 A 
ENDBRANCH   1   2
BRANCH   1  12
ATOM      9  C   UNL     1       6.716   4.462  13.702  0.00  0.00    +0.000 C 
ATOM     10  C   UNL     1       6.458   4.751  15.125  0.00  0.00    +0.000 A 
ATOM     11  N   UNL     1       5.458   4.143  15.824  0.00  0.00    +0.000 NA
ATOM     12  C   UNL     1       5.562   4.642  17.048  0.00  0.00    +0.000 A 
ATOM     13  N   UNL     1       6.604   5.540  17.049  0.00  0.00    +0.000 N 
ATOM     14  N   UNL     1       7.170   5.635  15.827  0.00  0.00    +0.000 NA
BRANCH  13  15
ATOM     15  C   UNL     1       7.106   6.392  18.107  0.00  0.00    +0.000 C 
BRANCH  15  16
ATOM     16  C   UNL     1       8.053   5.639  19.031  0.00  0.00    +0.000 C 
BRANCH  16  17
ATOM     17  O   UNL     1       7.419   5.334  20.272  0.00  0.00    +0.000 OA
ATOM     18  H   UNL     1       6.479   5.151  20.079  0.00  0.00    +0.000 HD
ENDBRANCH  16  17
ENDBRANCH  15  16
ENDBRANCH  13  15
ENDBRANCH   1  12
BRANCH   1  19
ATOM     19  N   UNL     1       4.019   2.986  18.142  0.00  0.00    +0.000 NA
ATOM     20  C   UNL     1       4.041   2.253  19.411  0.00  0.00    +0.000 C 
ATOM     21  C   UNL     1       2.654   2.996  17.614  0.00  0.00    +0.000 C 
ENDBRANCH   1  19
TORSDOF 6
ENDMDL
MODEL 8
REMARK VINA RESULT:      -6.7      1.129      1.343
REMARK  Name = 
REMARK  9 active torsions:
REMARK  status: ('A' for Active; 'I' for Inactive)
REMARK    1  A    between atoms: C_1  and  C_2
REMARK    2  A    between atoms: C_4  and  C_5
REMARK    3  A    between atoms: C_5  and  C_6
REMARK    4  A    between atoms: C_5  and  N_13
REMARK    5  A    between atoms: N_13  and  C_14
REMARK    6  A    between atoms: N_13  and  C_15
REMARK    7  A    between atoms: N_16  and  C_17
REMARK    8  A    between atoms: C_17  and  C_18
REMARK    9  A    between atoms: C_18  and  O_19
REMARK                            x       y       z     vdW  Elec       q    Type
REMARK                         _______ _______ _______ _____ _____    ______ ____
ROOT
ATOM      1  C   UNL     1       4.642   4.441  18.551  0.00  0.00    +0.000 C 
ENDROOT
BRANCH   1   2
ATOM      2  C   UNL     1       3.808   5.723  18.641  0.00  0.00    +0.000 A 
ATOM      3  C   UNL     1       3.869   6.730  17.659  0.00  0.00    +0.000 A 
ATOM      4  C   UNL     1       3.066   7.871  17.739  0.00  0.00    +0.000 A 
ATOM      5  C   UNL     1       2.197   8.033  18.814  0.00  0.00    +0.000 A 
ATOM      6  C   UNL     1       2.140   7.055  19.799  0.00  0.00    +0.000 A 
ATOM      7  F   UNL     1       1.307   7.214  20.836  0.00  0.00    +0.000 F 
ATOM      8  C   UNL     1       2.930   5.914  19.723  0.00  0.00    +0.000 A 
ENDBRANCH   1   2
BRANCH   1  12
ATOM      9  C   UNL     1       5.921   4.091  13.749  0.00  0.00    +0.000 C 
ATOM     10  C   UNL     1       6.025   4.227  15.215  0.00  0.00    +0.000 A 
ATOM     11  N   UNL     1       4.929   4.243  16.026  0.00  0.00    +0.000 NA
ATOM     12  C   UNL     1       5.428   4.356  17.249  0.00  0.00    +0.000 A 
ATOM     13  N   UNL     1       6.798   4.418  17.141  0.00  0.00    +0.000 N 
ATOM     14  N   UNL     1       7.191   4.358  15.851  0.00  0.00    +0.000 NA
BRANCH  13  15
ATOM     15  C   UNL     1       7.811   4.590  18.161  0.00  0.00    +0.000 C 
BRANCH  15  16
ATOM     16  C   UNL     1       7.566   5.845  18.988  0.00  0.00    +0.000 C 
BRANCH  16  17
ATOM     17  O   UNL     1       7.845   5.609  20.367  0.00  0.00    +0.000 OA
ATOM     18  H   UNL     1       7.057   5.178  20.751  0.00  0.00    +0.000 HD
ENDBRANCH  16  17
ENDBRANCH  15  16
ENDBRANCH  13  15
ENDBRANCH   1  12
BRANCH   1  19
ATOM     19  N   UNL     1       3.917   3.181  18.879  0.00  0.00    +0.000 NA
ATOM     20  C   UNL     1       3.702   2.335  17.702  0.00  0.00    +0.000 C 
ATOM     21  C   UNL     1       4.509   2.378  19.949  0.00  0.00    +0.000 C 
ENDBRANCH   1  19
TORSDOF 6
ENDMDL
MODEL 9
REMARK VINA RESULT:      -6.6      2.134      3.535
REMARK  Name = 
REMARK  9 active torsions:
REMARK  status: ('A' for Active; 'I' for Inactive)
REMARK    1  A    between atoms: C_1  and  C_2
REMARK    2  A    between atoms: C_4  and  C_5
REMARK    3  A    between atoms: C_5  and  C_6
REMARK    4  A    between atoms: C_5  and  N_13
REMARK    5  A    between atoms: N_13  and  C_14
REMARK    6  A    between atoms: N_13  and  C_15
REMARK    7  A    between atoms: N_16  and  C_17
REMARK    8  A    between atoms: C_17  and  C_18
REMARK    9  A    between atoms: C_18  and  O_19
REMARK                            x       y       z     vdW  Elec       q    Type
REMARK                         _______ _______ _______ _____ _____    ______ ____
ROOT
ATOM      1  C   UNL     1       3.545   5.509  17.447  0.00  0.00    +0.000 C 
ENDROOT
BRANCH   1   2
ATOM      2  C   UNL     1       2.932   4.184  17.911  0.00  0.00    +0.000 A 
ATOM      3  C   UNL     1       1.557   4.046  18.183  0.00  0.00    +0.000 A 
ATOM      4  C   UNL     1       1.013   2.817  18.562  0.00  0.00    +0.000 A 
ATOM      5  C   UNL     1       1.838   1.703  18.692  0.00  0.00    +0.000 A 
ATOM      6  C   UNL     1       3.199   1.830  18.445  0.00  0.00    +0.000 A 
ATOM      7  F   UNL     1       3.993   0.759  18.575  0.00  0.00    +0.000 F 
ATOM      8  C   UNL     1       3.748   3.047  18.060  0.00  0.00    +0.000 A 
ENDBRANCH   1   2
BRANCH   1  12
ATOM      9  C   UNL     1       7.283   4.834  14.225  0.00  0.00    +0.000 C 
ATOM     10  C   UNL     1       6.551   5.051  15.488  0.00  0.00    +0.000 A 
ATOM     11  N   UNL     1       5.193   5.154  15.535  0.00  0.00    +0.000 NA
ATOM     12  C   UNL     1       4.920   5.319  16.822  0.00  0.00    +0.000 A 
ATOM     13  N   UNL     1       6.114   5.325  17.507  0.00  0.00    +0.000 N 
ATOM     14  N   UNL     1       7.161   5.176  16.668  0.00  0.00    +0.000 NA
BRANCH  13  15
ATOM     15  C   UNL     1       6.384   5.519  18.916  0.00  0.00    +0.000 C 
BRANCH  15  16
ATOM     16  C   UNL     1       7.875   5.666  19.186  0.00  0.00    +0.000 C 
BRANCH  16  17
ATOM     17  O   UNL     1       8.313   6.997  18.917  0.00  0.00    +0.000 OA
ATOM     18  H   UNL     1       9.074   7.174  19.503  0.00  0.00    +0.000 HD
ENDBRANCH  16  17
ENDBRANCH  15  16
ENDBRANCH  13  15
ENDBRANCH   1  12
BRANCH   1  19
ATOM     19  N   UNL     1       3.503   6.617  18.442  0.00  0.00    +0.000 NA
ATOM     20  C   UNL     1       2.928   7.847  17.888  0.00  0.00    +0.000 C 
ATOM     21  C   UNL     1       2.835   6.301  19.706  0.00  0.00    +0.000 C 
ENDBRANCH   1  19
TORSDOF 6
ENDMDL
