MODEL 1
REMARK VINA RESULT:      -8.4      0.000      0.000
REMARK  Name = 
REMARK  8 active torsions:
REMARK  status: ('A' for Active; 'I' for Inactive)
REMARK    1  A    between atoms: C_1  and  C_2
REMARK    2  A    between atoms: C_2  and  O_3
REMARK    3  A    between atoms: O_3  and  C_4
REMARK    4  A    between atoms: C_4  and  C_6
REMARK    5  A    between atoms: C_8  and  N_9
REMARK    6  A    between atoms: N_12  and  C_13
REMARK    7  A    between atoms: C_20  and  C_21
REMARK    8  A    between atoms: C_23  and  C_24
REMARK                            x       y       z     vdW  Elec       q    Type
REMARK                         _______ _______ _______ _____ _____    ______ ____
ROOT
ATOM      1  C   UNL     1       5.859   5.092  17.809  0.00  0.00    +0.000 A 
ATOM      2  C   UNL     1       5.083   5.604  18.856  0.00  0.00    +0.000 A 
ATOM      3  C   UNL     1       3.702   5.370  18.923  0.00  0.00    +0.000 A 
ATOM      4  C   UNL     1       3.153   4.595  17.890  0.00  0.00    +0.000 A 
ATOM      5  C   UNL     1       1.724   4.148  17.831  0.00  0.00    +0.000 C 
ATOM      6  N   UNL     1       3.890   4.136  16.841  0.00  0.00    +0.000 NA
ATOM      7  C   UNL     1       5.228   4.378  16.804  0.00  0.00    +0.000 A 
ATOM      8  C   UNL     1       5.957   3.795  15.634  0.00  0.00    +0.000 C 
ENDROOT
BRANCH   3   9
ATOM      9  N   UNL     1       2.905   5.897  19.986  0.00  0.00    +0.000 N 
ATOM     10  C   UNL     1       2.292   7.135  19.976  0.00  0.00    +0.000 C 
ATOM     11  O   UNL     1       2.395   7.954  19.064  0.00  0.00    +0.000 OA
ATOM     12  N   UNL     1       1.569   7.413  21.131  0.00  0.00    +0.000 N 
ATOM     13  H   UNL     1       2.797   5.331  20.816  0.00  0.00    +0.000 HD
ATOM     14  H   UNL     1       1.999   7.072  21.977  0.00  0.00    +0.000 HD
BRANCH  12  15
ATOM     15  C   UNL     1       0.917   8.672  21.231  0.00  0.00    +0.000 A 
ATOM     16  C   UNL     1       0.551   9.200  22.478  0.00  0.00    +0.000 A 
ATOM     17  C   UNL     1      -0.221  10.362  22.560  0.00  0.00    +0.000 A 
ATOM     18  C   UNL     1      -0.633  10.994  21.390  0.00  0.00    +0.000 A 
ATOM     19 BR   UNL     1      -1.758  12.509  21.488  0.00  0.00    +0.000 Br
ATOM     20  C   UNL     1      -0.239  10.500  20.145  0.00  0.00    +0.000 A 
ATOM     21  C   UNL     1       0.560   9.353  20.066  0.00  0.00    +0.000 A 
ENDBRANCH  12  15
ENDBRANCH   3   9
BRANCH   1  22
ATOM     22  C   UNL     1       7.328   5.256  17.808  0.00  0.00    +0.000 C 
ATOM     23  O   UNL     1       8.121   4.360  17.579  0.00  0.00    +0.000 OA
BRANCH  22  24
ATOM     24  O   UNL     1       7.635   6.490  18.279  0.00  0.00    +0.000 OA
BRANCH  24  26
ATOM     25  C   UNL     1       8.151   8.790  17.965  0.00  0.00    +0.000 C 
ATOM     26  C   UNL     1       7.628   7.531  17.290  0.00  0.00    +0.000 C 
ENDBRANCH  24  26
ENDBRANCH  22  24
ENDBRANCH   1  22
TORSDOF 5
ENDMDL
MODEL 2
REMARK VINA RESULT:      -8.3      0.522      1.061
REMARK  Name = 
REMARK  8 active torsions:
REMARK  status: ('A' for Active; 'I' for Inactive)
REMARK    1  A    between atoms: C_1  and  C_2
REMARK    2  A    between atoms: C_2  and  O_3
REMARK    3  A    between atoms: O_3  and  C_4
REMARK    4  A    between atoms: C_4  and  C_6
REMARK    5  A    between atoms: C_8  and  N_9
REMARK    6  A    between atoms: N_12  and  C_13
REMARK    7  A    between atoms: C_20  and  C_21
REMARK    8  A    between atoms: C_23  and  C_24
REMARK                            x       y       z     vdW  Elec       q    Type
REMARK                         _______ _______ _______ _____ _____    ______ ____
ROOT
ATOM      1  C   UNL     1       5.757   5.043  17.823  0.00  0.00    +0.000 A 
ATOM      2  C   UNL     1       5.011   5.561  18.888  0.00  0.00    +0.000 A 
ATOM      3  C   UNL     1       3.626   5.362  18.975  0.00  0.00    +0.000 A 
ATOM      4  C   UNL     1       3.041   4.613  17.943  0.00  0.00    +0.000 A 
ATOM      5  C   UNL     1       1.600   4.202  17.901  0.00  0.00    +0.000 C 
ATOM      6  N   UNL     1       3.749   4.147  16.877  0.00  0.00    +0.000 NA
ATOM      7  C   UNL     1       5.092   4.356  16.820  0.00  0.00    +0.000 A 
ATOM      8  C   UNL     1       5.788   3.768  15.633  0.00  0.00    +0.000 C 
ENDROOT
BRANCH   3   9
ATOM      9  N   UNL     1       2.860   5.896  20.057  0.00  0.00    +0.000 N 
ATOM     10  C   UNL     1       2.193   7.106  20.032  0.00  0.00    +0.000 C 
ATOM     11  O   UNL     1       2.216   7.892  19.087  0.00  0.00    +0.000 OA
ATOM     12  N   UNL     1       1.516   7.399  21.211  0.00  0.00    +0.000 N 
ATOM     13  H   UNL     1       2.817   5.359  20.912  0.00  0.00    +0.000 HD
ATOM     14  H   UNL     1       2.001   7.109  22.046  0.00  0.00    +0.000 HD
BRANCH  12  15
ATOM     15  C   UNL     1       0.816   8.633  21.297  0.00  0.00    +0.000 A 
ATOM     16  C   UNL     1       0.999   9.637  20.335  0.00  0.00    +0.000 A 
ATOM     17  C   UNL     1       0.426  10.900  20.507  0.00  0.00    +0.000 A 
ATOM     18  C   UNL     1      -0.328  11.159  21.648  0.00  0.00    +0.000 A 
ATOM     19 BR   UNL     1      -1.026  12.892  21.936  0.00  0.00    +0.000 Br
ATOM     20  C   UNL     1      -0.551  10.155  22.590  0.00  0.00    +0.000 A 
ATOM     21  C   UNL     1      -0.001   8.881  22.401  0.00  0.00    +0.000 A 
ENDBRANCH  12  15
ENDBRANCH   3   9
BRANCH   1  22
ATOM     22  C   UNL     1       7.230   5.169  17.800  0.00  0.00    +0.000 C 
ATOM     23  O   UNL     1       7.984   4.586  18.559  0.00  0.00    +0.000 OA
BRANCH  22  24
ATOM     24  O   UNL     1       7.574   6.161  16.942  0.00  0.00    +0.000 OA
BRANCH  24  26
ATOM     25  C   UNL     1       8.145   8.225  17.974  0.00  0.00    +0.000 C 
ATOM     26  C   UNL     1       7.041   7.453  17.269  0.00  0.00    +0.000 C 
ENDBRANCH  24  26
ENDBRANCH  22  24
ENDBRANCH   1  22
TORSDOF 5
ENDMDL
MODEL 3
REMARK VINA RESULT:      -7.7      1.314      1.483
REMARK  Name = 
REMARK  8 active torsions:
REMARK  status: ('A' for Active; 'I' for Inactive)
REMARK    1  A    between atoms: C_1  and  C_2
REMARK    2  A    between atoms: C_2  and  O_3
REMARK    3  A    between atoms: O_3  and  C_4
REMARK    4  A    between atoms: C_4  and  C_6
REMARK    5  A    between atoms: C_8  and  N_9
REMARK    6  A    between atoms: N_12  and  C_13
REMARK    7  A    between atoms: C_20  and  C_21
REMARK    8  A    between atoms: C_23  and  C_24
REMARK                            x       y       z     vdW  Elec       q    Type
REMARK                         _______ _______ _______ _____ _____    ______ ____
ROOT
ATOM      1  C   UNL     1       4.851   5.637  17.052  0.00  0.00    +0.000 A 
ATOM      2  C   UNL     1       4.164   6.209  18.130  0.00  0.00    +0.000 A 
ATOM      3  C   UNL     1       3.503   5.416  19.079  0.00  0.00    +0.000 A 
ATOM      4  C   UNL     1       3.578   4.029  18.888  0.00  0.00    +0.000 A 
ATOM      5  C   UNL     1       3.030   3.008  19.839  0.00  0.00    +0.000 C 
ATOM      6  N   UNL     1       4.201   3.463  17.816  0.00  0.00    +0.000 NA
ATOM      7  C   UNL     1       4.834   4.259  16.912  0.00  0.00    +0.000 A 
ATOM      8  C   UNL     1       5.526   3.543  15.795  0.00  0.00    +0.000 C 
ENDROOT
BRANCH   3   9
ATOM      9  N   UNL     1       2.795   5.997  20.176  0.00  0.00    +0.000 N 
ATOM     10  C   UNL     1       2.127   7.206  20.133  0.00  0.00    +0.000 C 
ATOM     11  O   UNL     1       2.099   7.951  19.155  0.00  0.00    +0.000 OA
ATOM     12  N   UNL     1       1.512   7.550  21.332  0.00  0.00    +0.000 N 
ATOM     13  H   UNL     1       2.798   5.498  21.054  0.00  0.00    +0.000 HD
ATOM     14  H   UNL     1       2.041   7.297  22.153  0.00  0.00    +0.000 HD
BRANCH  12  15
ATOM     15  C   UNL     1       0.817   8.788  21.402  0.00  0.00    +0.000 A 
ATOM     16  C   UNL     1       0.428   9.331  22.635  0.00  0.00    +0.000 A 
ATOM     17  C   UNL     1      -0.385  10.466  22.689  0.00  0.00    +0.000 A 
ATOM     18  C   UNL     1      -0.814  11.057  21.503  0.00  0.00    +0.000 A 
ATOM     19 BR   UNL     1      -1.992  12.533  21.564  0.00  0.00    +0.000 Br
ATOM     20  C   UNL     1      -0.399  10.549  20.271  0.00  0.00    +0.000 A 
ATOM     21  C   UNL     1       0.441   9.429  20.221  0.00  0.00    +0.000 A 
ENDBRANCH  12  15
ENDBRANCH   3   9
BRANCH   1  22
ATOM     22  C   UNL     1       5.632   6.479  16.121  0.00  0.00    +0.000 C 
ATOM     23  O   UNL     1       5.173   7.018  15.130  0.00  0.00    +0.000 OA
BRANCH  22  24
ATOM     24  O   UNL     1       6.946   6.394  16.445  0.00  0.00    +0.000 OA
BRANCH  24  26
ATOM     25  C   UNL     1       7.952   6.636  18.586  0.00  0.00    +0.000 C 
ATOM     26  C   UNL     1       7.401   7.383  17.381  0.00  0.00    +0.000 C 
ENDBRANCH  24  26
ENDBRANCH  22  24
ENDBRANCH   1  22
TORSDOF 5
ENDMDL
MODEL 4
REMARK VINA RESULT:      -7.7      3.174      4.594
REMARK  Name = 
REMARK  8 active torsions:
REMARK  status: ('A' for Active; 'I' for Inactive)
REMARK    1  A    between atoms: C_1  and  C_2
REMARK    2  A    between atoms: C_2  and  O_3
REMARK    3  A    between atoms: O_3  and  C_4
REMARK    4  A    between atoms: C_4  and  C_6
REMARK    5  A    between atoms: C_8  and  N_9
REMARK    6  A    between atoms: N_12  and  C_13
REMARK    7  A    between atoms: C_20  and  C_21
REMARK    8  A    between atoms: C_23  and  C_24
REMARK                            x       y       z     vdW  Elec       q    Type
REMARK                         _______ _______ _______ _____ _____    ______ ____
ROOT
ATOM      1  C   UNL     1       2.413   4.512  18.584  0.00  0.00    +0.000 A 
ATOM      2  C   UNL     1       2.074   5.830  18.257  0.00  0.00    +0.000 A 
ATOM      3  C   UNL     1       3.042   6.748  17.826  0.00  0.00    +0.000 A 
ATOM      4  C   UNL     1       4.357   6.268  17.738  0.00  0.00    +0.000 A 
ATOM      5  C   UNL     1       5.517   7.054  17.206  0.00  0.00    +0.000 C 
ATOM      6  N   UNL     1       4.707   5.003  18.103  0.00  0.00    +0.000 NA
ATOM      7  C   UNL     1       3.745   4.134  18.516  0.00  0.00    +0.000 A 
ATOM      8  C   UNL     1       4.221   2.755  18.852  0.00  0.00    +0.000 C 
ENDROOT
BRANCH   3   9
ATOM      9  N   UNL     1       2.700   8.097  17.498  0.00  0.00    +0.000 N 
ATOM     10  C   UNL     1       2.021   8.965  18.331  0.00  0.00    +0.000 C 
ATOM     11  O   UNL     1       1.588   8.665  19.442  0.00  0.00    +0.000 OA
ATOM     12  N   UNL     1       1.813  10.224  17.780  0.00  0.00    +0.000 N 
ATOM     13  H   UNL     1       2.957   8.436  16.582  0.00  0.00    +0.000 HD
ATOM     14  H   UNL     1       1.609  10.213  16.792  0.00  0.00    +0.000 HD
BRANCH  12  15
ATOM     15  C   UNL     1       1.102  11.187  18.547  0.00  0.00    +0.000 A 
ATOM     16  C   UNL     1      -0.297  11.140  18.649  0.00  0.00    +0.000 A 
ATOM     17  C   UNL     1      -0.998  12.172  19.278  0.00  0.00    +0.000 A 
ATOM     18  C   UNL     1      -0.299  13.256  19.801  0.00  0.00    +0.000 A 
ATOM     19 BR   UNL     1      -1.245  14.703  20.566  0.00  0.00    +0.000 Br
ATOM     20  C   UNL     1       1.095  13.292  19.741  0.00  0.00    +0.000 A 
ATOM     21  C   UNL     1       1.798  12.242  19.138  0.00  0.00    +0.000 A 
ENDBRANCH  12  15
ENDBRANCH   3   9
BRANCH   1  22
ATOM     22  C   UNL     1       1.368   3.527  18.934  0.00  0.00    +0.000 C 
ATOM     23  O   UNL     1       1.005   2.619  18.206  0.00  0.00    +0.000 OA
BRANCH  22  24
ATOM     24  O   UNL     1       0.768   3.911  20.088  0.00  0.00    +0.000 OA
BRANCH  24  26
ATOM     25  C   UNL     1       1.728   2.439  21.689  0.00  0.00    +0.000 C 
ATOM     26  C   UNL     1       1.618   3.889  21.245  0.00  0.00    +0.000 C 
ENDBRANCH  24  26
ENDBRANCH  22  24
ENDBRANCH   1  22
TORSDOF 5
ENDMDL
MODEL 5
REMARK VINA RESULT:      -7.7      3.111      4.495
REMARK  Name = 
REMARK  8 active torsions:
REMARK  status: ('A' for Active; 'I' for Inactive)
REMARK    1  A    between atoms: C_1  and  C_2
REMARK    2  A    between atoms: C_2  and  O_3
REMARK    3  A    between atoms: O_3  and  C_4
REMARK    4  A    between atoms: C_4  and  C_6
REMARK    5  A    between atoms: C_8  and  N_9
REMARK    6  A    between atoms: N_12  and  C_13
REMARK    7  A    between atoms: C_20  and  C_21
REMARK    8  A    between atoms: C_23  and  C_24
REMARK                            x       y       z     vdW  Elec       q    Type
REMARK                         _______ _______ _______ _____ _____    ______ ____
ROOT
ATOM      1  C   UNL     1       2.395   4.530  18.565  0.00  0.00    +0.000 A 
ATOM      2  C   UNL     1       2.049   5.852  18.259  0.00  0.00    +0.000 A 
ATOM      3  C   UNL     1       3.009   6.776  17.823  0.00  0.00    +0.000 A 
ATOM      4  C   UNL     1       4.322   6.298  17.706  0.00  0.00    +0.000 A 
ATOM      5  C   UNL     1       5.472   7.092  17.163  0.00  0.00    +0.000 C 
ATOM      6  N   UNL     1       4.679   5.029  18.049  0.00  0.00    +0.000 NA
ATOM      7  C   UNL     1       3.725   4.154  18.469  0.00  0.00    +0.000 A 
ATOM      8  C   UNL     1       4.207   2.772  18.780  0.00  0.00    +0.000 C 
ENDROOT
BRANCH   3   9
ATOM      9  N   UNL     1       2.660   8.128  17.517  0.00  0.00    +0.000 N 
ATOM     10  C   UNL     1       1.982   8.981  18.366  0.00  0.00    +0.000 C 
ATOM     11  O   UNL     1       1.556   8.663  19.475  0.00  0.00    +0.000 OA
ATOM     12  N   UNL     1       1.766  10.248  17.835  0.00  0.00    +0.000 N 
ATOM     13  H   UNL     1       2.911   8.483  16.605  0.00  0.00    +0.000 HD
ATOM     14  H   UNL     1       1.558  10.251  16.848  0.00  0.00    +0.000 HD
BRANCH  12  15
ATOM     15  C   UNL     1       1.056  11.196  18.621  0.00  0.00    +0.000 A 
ATOM     16  C   UNL     1       1.735  12.144  19.401  0.00  0.00    +0.000 A 
ATOM     17  C   UNL     1       1.036  12.971  20.284  0.00  0.00    +0.000 A 
ATOM     18  C   UNL     1      -0.346  12.845  20.391  0.00  0.00    +0.000 A 
ATOM     19 BR   UNL     1      -1.288  13.890  21.653  0.00  0.00    +0.000 Br
ATOM     20  C   UNL     1      -1.036  11.934  19.590  0.00  0.00    +0.000 A 
ATOM     21  C   UNL     1      -0.336  11.127  18.683  0.00  0.00    +0.000 A 
ENDBRANCH  12  15
ENDBRANCH   3   9
BRANCH   1  22
ATOM     22  C   UNL     1       1.356   3.540  18.920  0.00  0.00    +0.000 C 
ATOM     23  O   UNL     1       0.980   2.642  18.188  0.00  0.00    +0.000 OA
BRANCH  22  24
ATOM     24  O   UNL     1       0.777   3.909  20.090  0.00  0.00    +0.000 OA
BRANCH  24  26
ATOM     25  C   UNL     1       1.772   2.473  21.703  0.00  0.00    +0.000 C 
ATOM     26  C   UNL     1       1.658   3.912  21.223  0.00  0.00    +0.000 C 
ENDBRANCH  24  26
ENDBRANCH  22  24
ENDBRANCH   1  22
TORSDOF 5
ENDMDL
MODEL 6
REMARK VINA RESULT:      -7.6      1.630      2.261
REMARK  Name = 
REMARK  8 active torsions:
REMARK  status: ('A' for Active; 'I' for Inactive)
REMARK    1  A    between atoms: C_1  and  C_2
REMARK    2  A    between atoms: C_2  and  O_3
REMARK    3  A    between atoms: O_3  and  C_4
REMARK    4  A    between atoms: C_4  and  C_6
REMARK    5  A    between atoms: C_8  and  N_9
REMARK    6  A    between atoms: N_12  and  C_13
REMARK    7  A    between atoms: C_20  and  C_21
REMARK    8  A    between atoms: C_23  and  C_24
REMARK                            x       y       z     vdW  Elec       q    Type
REMARK                         _______ _______ _______ _____ _____    ______ ____
ROOT
ATOM      1  C   UNL     1       3.923   5.320  17.817  0.00  0.00    +0.000 A 
ATOM      2  C   UNL     1       3.627   6.179  18.883  0.00  0.00    +0.000 A 
ATOM      3  C   UNL     1       2.586   5.900  19.779  0.00  0.00    +0.000 A 
ATOM      4  C   UNL     1       1.869   4.716  19.548  0.00  0.00    +0.000 A 
ATOM      5  C   UNL     1       0.791   4.186  20.443  0.00  0.00    +0.000 C 
ATOM      6  N   UNL     1       2.115   3.900  18.485  0.00  0.00    +0.000 NA
ATOM      7  C   UNL     1       3.133   4.197  17.633  0.00  0.00    +0.000 A 
ATOM      8  C   UNL     1       3.352   3.217  16.523  0.00  0.00    +0.000 C 
ENDROOT
BRANCH   3   9
ATOM      9  N   UNL     1       2.277   6.778  20.864  0.00  0.00    +0.000 N 
ATOM     10  C   UNL     1       1.486   7.906  20.766  0.00  0.00    +0.000 C 
ATOM     11  O   UNL     1       0.986   8.316  19.720  0.00  0.00    +0.000 OA
ATOM     12  N   UNL     1       1.334   8.591  21.967  0.00  0.00    +0.000 N 
ATOM     13  H   UNL     1       2.682   6.570  21.765  0.00  0.00    +0.000 HD
ATOM     14  H   UNL     1       2.165   8.607  22.539  0.00  0.00    +0.000 HD
BRANCH  12  15
ATOM     15  C   UNL     1       0.556   9.780  21.971  0.00  0.00    +0.000 A 
ATOM     16  C   UNL     1       0.897  10.870  21.157  0.00  0.00    +0.000 A 
ATOM     17  C   UNL     1       0.220  12.087  21.276  0.00  0.00    +0.000 A 
ATOM     18  C   UNL     1      -0.798  12.214  22.217  0.00  0.00    +0.000 A 
ATOM     19 BR   UNL     1      -1.653  13.883  22.453  0.00  0.00    +0.000 Br
ATOM     20  C   UNL     1      -1.173  11.124  23.003  0.00  0.00    +0.000 A 
ATOM     21  C   UNL     1      -0.513   9.896  22.860  0.00  0.00    +0.000 A 
ENDBRANCH  12  15
ENDBRANCH   3   9
BRANCH   1  22
ATOM     22  C   UNL     1       5.090   5.572  16.945  0.00  0.00    +0.000 C 
ATOM     23  O   UNL     1       5.037   6.146  15.872  0.00  0.00    +0.000 OA
BRANCH  22  24
ATOM     24  O   UNL     1       6.162   4.906  17.440  0.00  0.00    +0.000 OA
BRANCH  24  26
ATOM     25  C   UNL     1       7.578   6.005  19.002  0.00  0.00    +0.000 C 
ATOM     26  C   UNL     1       7.365   5.683  17.531  0.00  0.00    +0.000 C 
ENDBRANCH  24  26
ENDBRANCH  22  24
ENDBRANCH   1  22
TORSDOF 5
ENDMDL
MODEL 7
REMARK VINA RESULT:      -7.5      1.854      2.363
REMARK  Name = 
REMARK  8 active torsions:
REMARK  status: ('A' for Active; 'I' for Inactive)
REMARK    1  A    between atoms: C_1  and  C_2
REMARK    2  A    between atoms: C_2  and  O_3
REMARK    3  A    between atoms: O_3  and  C_4
REMARK    4  A    between atoms: C_4  and  C_6
REMARK    5  A    between atoms: C_8  and  N_9
REMARK    6  A    between atoms: N_12  and  C_13
REMARK    7  A    between atoms: C_20  and  C_21
REMARK    8  A    between atoms: C_23  and  C_24
REMARK                            x       y       z     vdW  Elec       q    Type
REMARK                         _______ _______ _______ _____ _____    ______ ____
ROOT
ATOM      1  C   UNL     1       4.527   4.641  18.551  0.00  0.00    +0.000 A 
ATOM      2  C   UNL     1       3.992   5.686  19.313  0.00  0.00    +0.000 A 
ATOM      3  C   UNL     1       2.733   5.578  19.919  0.00  0.00    +0.000 A 
ATOM      4  C   UNL     1       2.052   4.368  19.723  0.00  0.00    +0.000 A 
ATOM      5  C   UNL     1       0.745   4.013  20.365  0.00  0.00    +0.000 C 
ATOM      6  N   UNL     1       2.541   3.364  18.942  0.00  0.00    +0.000 NA
ATOM      7  C   UNL     1       3.766   3.498  18.367  0.00  0.00    +0.000 A 
ATOM      8  C   UNL     1       4.235   2.324  17.565  0.00  0.00    +0.000 C 
ENDROOT
BRANCH   3   9
ATOM      9  N   UNL     1       2.181   6.646  20.692  0.00  0.00    +0.000 N 
ATOM     10  C   UNL     1       1.726   7.843  20.173  0.00  0.00    +0.000 C 
ATOM     11  O   UNL     1       1.782   8.152  18.984  0.00  0.00    +0.000 OA
ATOM     12  N   UNL     1       1.231   8.719  21.133  0.00  0.00    +0.000 N 
ATOM     13  H   UNL     1       2.137   6.527  21.693  0.00  0.00    +0.000 HD
ATOM     14  H   UNL     1       1.743   8.710  22.001  0.00  0.00    +0.000 HD
BRANCH  12  15
ATOM     15  C   UNL     1       0.758   9.990  20.706  0.00  0.00    +0.000 A 
ATOM     16  C   UNL     1       1.528  11.147  20.889  0.00  0.00    +0.000 A 
ATOM     17  C   UNL     1       0.997  12.408  20.606  0.00  0.00    +0.000 A 
ATOM     18  C   UNL     1      -0.312  12.511  20.143  0.00  0.00    +0.000 A 
ATOM     19 BR   UNL     1      -1.072  14.216  19.850  0.00  0.00    +0.000 Br
ATOM     20  C   UNL     1      -1.074  11.363  19.918  0.00  0.00    +0.000 A 
ATOM     21  C   UNL     1      -0.528  10.098  20.173  0.00  0.00    +0.000 A 
ENDBRANCH  12  15
ENDBRANCH   3   9
BRANCH   1  22
ATOM     22  C   UNL     1       5.899   4.727  18.007  0.00  0.00    +0.000 C 
ATOM     23  O   UNL     1       6.906   4.424  18.624  0.00  0.00    +0.000 OA
BRANCH  22  24
ATOM     24  O   UNL     1       5.860   5.361  16.809  0.00  0.00    +0.000 OA
BRANCH  24  26
ATOM     25  C   UNL     1       5.933   4.149  14.765  0.00  0.00    +0.000 C 
ATOM     26  C   UNL     1       6.770   4.847  15.825  0.00  0.00    +0.000 C 
ENDBRANCH  24  26
ENDBRANCH  22  24
ENDBRANCH   1  22
TORSDOF 5
ENDMDL
MODEL 8
REMARK VINA RESULT:      -7.4      1.829      2.293
REMARK  Name = 
REMARK  8 active torsions:
REMARK  status: ('A' for Active; 'I' for Inactive)
REMARK    1  A    between atoms: C_1  and  C_2
REMARK    2  A    between atoms: C_2  and  O_3
REMARK    3  A    between atoms: O_3  and  C_4
REMARK    4  A    between atoms: C_4  and  C_6
REMARK    5  A    between atoms: C_8  and  N_9
REMARK    6  A    between atoms: N_12  and  C_13
REMARK    7  A    between atoms: C_20  and  C_21
REMARK    8  A    between atoms: C_23  and  C_24
REMARK                            x       y       z     vdW  Elec       q    Type
REMARK                         _______ _______ _______ _____ _____    ______ ____
ROOT
ATOM      1  C   UNL     1       4.129   5.874  17.538  0.00  0.00    +0.000 A 
ATOM      2  C   UNL     1       3.613   6.819  18.433  0.00  0.00    +0.000 A 
ATOM      3  C   UNL     1       2.650   6.469  19.390  0.00  0.00    +0.000 A 
ATOM      4  C   UNL     1       2.244   5.126  19.400  0.00  0.00    +0.000 A 
ATOM      5  C   UNL     1       1.305   4.528  20.404  0.00  0.00    +0.000 C 
ATOM      6  N   UNL     1       2.702   4.211  18.501  0.00  0.00    +0.000 NA
ATOM      7  C   UNL     1       3.636   4.580  17.585  0.00  0.00    +0.000 A 
ATOM      8  C   UNL     1       4.109   3.493  16.670  0.00  0.00    +0.000 C 
ENDROOT
BRANCH   3   9
ATOM      9  N   UNL     1       2.116   7.433  20.301  0.00  0.00    +0.000 N 
ATOM     10  C   UNL     1       1.541   8.634  19.932  0.00  0.00    +0.000 C 
ATOM     11  O   UNL     1       1.459   9.039  18.774  0.00  0.00    +0.000 OA
ATOM     12  N   UNL     1       1.094   9.395  21.007  0.00  0.00    +0.000 N 
ATOM     13  H   UNL     1       2.180   7.231  21.288  0.00  0.00    +0.000 HD
ATOM     14  H   UNL     1       1.691   9.352  21.819  0.00  0.00    +0.000 HD
BRANCH  12  15
ATOM     15  C   UNL     1       0.506  10.661  20.737  0.00  0.00    +0.000 A 
ATOM     16  C   UNL     1       1.277  11.833  20.743  0.00  0.00    +0.000 A 
ATOM     17  C   UNL     1       0.669  13.085  20.627  0.00  0.00    +0.000 A 
ATOM     18  C   UNL     1      -0.716  13.166  20.512  0.00  0.00    +0.000 A 
ATOM     19 BR   UNL     1      -1.556  14.858  20.453  0.00  0.00    +0.000 Br
ATOM     20  C   UNL     1      -1.489  12.004  20.463  0.00  0.00    +0.000 A 
ATOM     21  C   UNL     1      -0.874  10.749  20.548  0.00  0.00    +0.000 A 
ENDBRANCH  12  15
ENDBRANCH   3   9
BRANCH   1  22
ATOM     22  C   UNL     1       5.220   6.232  16.607  0.00  0.00    +0.000 C 
ATOM     23  O   UNL     1       5.060   6.817  15.550  0.00  0.00    +0.000 OA
BRANCH  22  24
ATOM     24  O   UNL     1       6.368   5.647  17.028  0.00  0.00    +0.000 OA
BRANCH  24  26
ATOM     25  C   UNL     1       7.656   7.576  17.551  0.00  0.00    +0.000 C 
ATOM     26  C   UNL     1       7.021   6.315  18.117  0.00  0.00    +0.000 C 
ENDBRANCH  24  26
ENDBRANCH  22  24
ENDBRANCH   1  22
TORSDOF 5
ENDMDL
MODEL 9
REMARK VINA RESULT:      -7.4      3.644      8.495
REMARK  Name = 
REMARK  8 active torsions:
REMARK  status: ('A' for Active; 'I' for Inactive)
REMARK    1  A    between atoms: C_1  and  C_2
REMARK    2  A    between atoms: C_2  and  O_3
REMARK    3  A    between atoms: O_3  and  C_4
REMARK    4  A    between atoms: C_4  and  C_6
REMARK    5  A    between atoms: C_8  and  N_9
REMARK    6  A    between atoms: N_12  and  C_13
REMARK    7  A    between atoms: C_20  and  C_21
REMARK    8  A    between atoms: C_23  and  C_24
REMARK                            x       y       z     vdW  Elec       q    Type
REMARK                         _______ _______ _______ _____ _____    ______ ____
ROOT
ATOM      1  C   UNL     1      -0.423  11.260  19.956  0.00  0.00    +0.000 A 
ATOM      2  C   UNL     1       0.104   9.963  19.941  0.00  0.00    +0.000 A 
ATOM      3  C   UNL     1       0.419   9.288  21.128  0.00  0.00    +0.000 A 
ATOM      4  C   UNL     1       0.169   9.982  22.321  0.00  0.00    +0.000 A 
ATOM      5  C   UNL     1       0.338   9.404  23.693  0.00  0.00    +0.000 C 
ATOM      6  N   UNL     1      -0.297  11.262  22.347  0.00  0.00    +0.000 NA
ATOM      7  C   UNL     1      -0.594  11.891  21.178  0.00  0.00    +0.000 A 
ATOM      8  C   UNL     1      -1.141  13.278  21.311  0.00  0.00    +0.000 C 
ENDROOT
BRANCH   3   9
ATOM      9  N   UNL     1       0.965   7.967  21.115  0.00  0.00    +0.000 N 
ATOM     10  C   UNL     1       1.793   7.464  20.131  0.00  0.00    +0.000 C 
ATOM     11  O   UNL     1       2.126   8.081  19.120  0.00  0.00    +0.000 OA
ATOM     12  N   UNL     1       2.193   6.150  20.350  0.00  0.00    +0.000 N 
ATOM     13  H   UNL     1       0.712   7.347  21.872  0.00  0.00    +0.000 HD
ATOM     14  H   UNL     1       1.478   5.564  20.753  0.00  0.00    +0.000 HD
BRANCH  12  15
ATOM     15  C   UNL     1       3.030   5.530  19.383  0.00  0.00    +0.000 A 
ATOM     16  C   UNL     1       4.425   5.670  19.437  0.00  0.00    +0.000 A 
ATOM     17  C   UNL     1       5.229   5.186  18.402  0.00  0.00    +0.000 A 
ATOM     18  C   UNL     1       4.634   4.565  17.307  0.00  0.00    +0.000 A 
ATOM     19 BR   UNL     1       5.705   3.995  15.857  0.00  0.00    +0.000 Br
ATOM     20  C   UNL     1       3.251   4.384  17.262  0.00  0.00    +0.000 A 
ATOM     21  C   UNL     1       2.450   4.843  18.316  0.00  0.00    +0.000 A 
ENDBRANCH  12  15
ENDBRANCH   3   9
BRANCH   1  22
ATOM     22  C   UNL     1      -0.849  11.918  18.703  0.00  0.00    +0.000 C 
ATOM     23  O   UNL     1      -0.230  12.806  18.146  0.00  0.00    +0.000 OA
BRANCH  22  24
ATOM     24  O   UNL     1      -2.104  11.507  18.393  0.00  0.00    +0.000 OA
BRANCH  24  26
ATOM     25  C   UNL     1      -2.368   9.820  16.738  0.00  0.00    +0.000 C 
ATOM     26  C   UNL     1      -2.348  11.320  16.991  0.00  0.00    +0.000 C 
ENDBRANCH  24  26
ENDBRANCH  22  24
ENDBRANCH   1  22
TORSDOF 5
ENDMDL
