MODEL 1
REMARK VINA RESULT:      -7.9      0.000      0.000
REMARK  Name = 
REMARK  8 active torsions:
REMARK  status: ('A' for Active; 'I' for Inactive)
REMARK    1  A    between atoms: C_1  and  C_2
REMARK    2  A    between atoms: C_6  and  N_7
REMARK    3  A    between atoms: C_11  and  C_13
REMARK    4  A    between atoms: C_13  and  C_14
REMARK    5  A    between atoms: C_14  and  C_15
REMARK    6  A    between atoms: C_15  and  O_16
REMARK    7  A    between atoms: O_16  and  C_17
REMARK    8  A    between atoms: C_25  and  C_26
REMARK                            x       y       z     vdW  Elec       q    Type
REMARK                         _______ _______ _______ _____ _____    ______ ____
ROOT
ATOM      1  N   UNL     1       4.378   5.182  18.437  0.00  0.00    +0.000 N 
ATOM      2  C   UNL     1       5.630   4.915  19.192  0.00  0.00    +0.000 C 
ATOM      3  C   UNL     1       6.840   5.180  18.288  0.00  0.00    +0.000 C 
ATOM      4  N   UNL     1       6.829   6.567  17.815  0.00  0.00    +0.000 N 
ATOM      5  C   UNL     1       7.845   7.414  18.215  0.00  0.00    +0.000 C 
ATOM      6  O   UNL     1       8.701   7.059  19.024  0.00  0.00    +0.000 OA
ATOM      7  C   UNL     1       5.586   6.941  17.119  0.00  0.00    +0.000 C 
ATOM      8  C   UNL     1       4.322   6.589  17.950  0.00  0.00    +0.000 C 
ENDROOT
BRANCH   1  14
ATOM      9  C   UNL     1       0.543   1.935  18.691  0.00  0.00    +0.000 C 
ATOM     10  C   UNL     1       1.296   3.146  19.178  0.00  0.00    +0.000 A 
ATOM     11  C   UNL     1       0.741   3.896  20.221  0.00  0.00    +0.000 A 
ATOM     12  C   UNL     1       1.386   5.030  20.688  0.00  0.00    +0.000 A 
ATOM     13  C   UNL     1       2.576   5.447  20.091  0.00  0.00    +0.000 A 
ATOM     14  C   UNL     1       3.174   4.736  19.033  0.00  0.00    +0.000 A 
ATOM     15  C   UNL     1       2.541   3.534  18.611  0.00  0.00    +0.000 A 
ATOM     16  C   UNL     1       3.177   2.631  17.579  0.00  0.00    +0.000 C 
ENDBRANCH   1  14
BRANCH   5  17
ATOM     17  C   UNL     1       7.892   8.812  17.611  0.00  0.00    +0.000 C 
BRANCH  17  18
ATOM     18  C   UNL     1       8.760   9.764  18.442  0.00  0.00    +0.000 C 
BRANCH  18  19
ATOM     19  C   UNL     1       8.716  11.180  17.868  0.00  0.00    +0.000 C 
BRANCH  19  20
ATOM     20  O   UNL     1       9.357  12.091  18.762  0.00  0.00    +0.000 OA
BRANCH  20  21
ATOM     21  C   UNL     1      10.046  13.106  18.146  0.00  0.00    +0.000 A 
ATOM     22  C   UNL     1       9.498  14.382  18.299  0.00  0.00    +0.000 A 
ATOM     23  C   UNL     1      10.110  15.489  17.703  0.00  0.00    +0.000 A 
ATOM     24  C   UNL     1      11.280  15.328  16.968  0.00  0.00    +0.000 A 
ATOM     25  C   UNL     1      11.847  14.063  16.835  0.00  0.00    +0.000 A 
ATOM     26  C   UNL     1      11.234  12.956  17.425  0.00  0.00    +0.000 A 
ENDBRANCH  20  21
ENDBRANCH  19  20
ENDBRANCH  18  19
ENDBRANCH  17  18
ENDBRANCH   5  17
TORSDOF 6
ENDMDL
MODEL 2
REMARK VINA RESULT:      -7.5      1.363      1.691
REMARK  Name = 
REMARK  8 active torsions:
REMARK  status: ('A' for Active; 'I' for Inactive)
REMARK    1  A    between atoms: C_1  and  C_2
REMARK    2  A    between atoms: C_6  and  N_7
REMARK    3  A    between atoms: C_11  and  C_13
REMARK    4  A    between atoms: C_13  and  C_14
REMARK    5  A    between atoms: C_14  and  C_15
REMARK    6  A    between atoms: C_15  and  O_16
REMARK    7  A    between atoms: O_16  and  C_17
REMARK    8  A    between atoms: C_25  and  C_26
REMARK                            x       y       z     vdW  Elec       q    Type
REMARK                         _______ _______ _______ _____ _____    ______ ____
ROOT
ATOM      1  N   UNL     1       4.444   5.250  18.429  0.00  0.00    +0.000 N 
ATOM      2  C   UNL     1       5.696   5.043  19.203  0.00  0.00    +0.000 C 
ATOM      3  C   UNL     1       6.907   5.315  18.302  0.00  0.00    +0.000 C 
ATOM      4  N   UNL     1       6.860   6.687  17.787  0.00  0.00    +0.000 N 
ATOM      5  C   UNL     1       7.847   7.576  18.171  0.00  0.00    +0.000 C 
ATOM      6  O   UNL     1       8.706   7.270  18.997  0.00  0.00    +0.000 OA
ATOM      7  C   UNL     1       5.614   7.003  17.070  0.00  0.00    +0.000 C 
ATOM      8  C   UNL     1       4.352   6.640  17.900  0.00  0.00    +0.000 C 
ENDROOT
BRANCH   1  14
ATOM      9  C   UNL     1       0.605   2.005  18.632  0.00  0.00    +0.000 C 
ATOM     10  C   UNL     1       1.368   3.198  19.148  0.00  0.00    +0.000 A 
ATOM     11  C   UNL     1       0.831   3.914  20.224  0.00  0.00    +0.000 A 
ATOM     12  C   UNL     1       1.486   5.030  20.719  0.00  0.00    +0.000 A 
ATOM     13  C   UNL     1       2.668   5.464  20.118  0.00  0.00    +0.000 A 
ATOM     14  C   UNL     1       3.249   4.787  19.029  0.00  0.00    +0.000 A 
ATOM     15  C   UNL     1       2.606   3.602  18.576  0.00  0.00    +0.000 A 
ATOM     16  C   UNL     1       3.224   2.732  17.505  0.00  0.00    +0.000 C 
ENDBRANCH   1  14
BRANCH   5  17
ATOM     17  C   UNL     1       7.860   8.955  17.525  0.00  0.00    +0.000 C 
BRANCH  17  18
ATOM     18  C   UNL     1       9.058   9.792  17.988  0.00  0.00    +0.000 C 
BRANCH  18  19
ATOM     19  C   UNL     1       8.777  10.440  19.343  0.00  0.00    +0.000 C 
BRANCH  19  20
ATOM     20  O   UNL     1       9.994  10.588  20.077  0.00  0.00    +0.000 OA
BRANCH  20  21
ATOM     21  C   UNL     1      10.526  11.853  20.051  0.00  0.00    +0.000 A 
ATOM     22  C   UNL     1      11.696  11.997  19.303  0.00  0.00    +0.000 A 
ATOM     23  C   UNL     1      12.332  13.239  19.217  0.00  0.00    +0.000 A 
ATOM     24  C   UNL     1      11.790  14.346  19.862  0.00  0.00    +0.000 A 
ATOM     25  C   UNL     1      10.608  14.216  20.587  0.00  0.00    +0.000 A 
ATOM     26  C   UNL     1       9.976  12.975  20.678  0.00  0.00    +0.000 A 
ENDBRANCH  20  21
ENDBRANCH  19  20
ENDBRANCH  18  19
ENDBRANCH  17  18
ENDBRANCH   5  17
TORSDOF 6
ENDMDL
MODEL 3
REMARK VINA RESULT:      -7.5      5.669      9.290
REMARK  Name = 
REMARK  8 active torsions:
REMARK  status: ('A' for Active; 'I' for Inactive)
REMARK    1  A    between atoms: C_1  and  C_2
REMARK    2  A    between atoms: C_6  and  N_7
REMARK    3  A    between atoms: C_11  and  C_13
REMARK    4  A    between atoms: C_13  and  C_14
REMARK    5  A    between atoms: C_14  and  C_15
REMARK    6  A    between atoms: C_15  and  O_16
REMARK    7  A    between atoms: O_16  and  C_17
REMARK    8  A    between atoms: C_25  and  C_26
REMARK                            x       y       z     vdW  Elec       q    Type
REMARK                         _______ _______ _______ _____ _____    ______ ____
ROOT
ATOM      1  N   UNL     1       1.242   8.828  19.596  0.00  0.00    +0.000 N 
ATOM      2  C   UNL     1       1.993   7.989  20.566  0.00  0.00    +0.000 C 
ATOM      3  C   UNL     1       2.141   6.568  20.007  0.00  0.00    +0.000 C 
ATOM      4  N   UNL     1       2.846   6.598  18.722  0.00  0.00    +0.000 N 
ATOM      5  C   UNL     1       4.086   5.995  18.630  0.00  0.00    +0.000 C 
ATOM      6  O   UNL     1       4.647   5.517  19.614  0.00  0.00    +0.000 OA
ATOM      7  C   UNL     1       2.208   7.471  17.723  0.00  0.00    +0.000 C 
ATOM      8  C   UNL     1       1.934   8.895  18.279  0.00  0.00    +0.000 C 
ENDROOT
BRANCH   1  14
ATOM      9  C   UNL     1      -1.440  11.598  22.830  0.00  0.00    +0.000 C 
ATOM     10  C   UNL     1      -0.511  11.454  21.652  0.00  0.00    +0.000 A 
ATOM     11  C   UNL     1      -0.137  12.611  20.958  0.00  0.00    +0.000 A 
ATOM     12  C   UNL     1       0.698  12.526  19.855  0.00  0.00    +0.000 A 
ATOM     13  C   UNL     1       1.140  11.280  19.413  0.00  0.00    +0.000 A 
ATOM     14  C   UNL     1       0.789  10.084  20.068  0.00  0.00    +0.000 A 
ATOM     15  C   UNL     1      -0.010  10.189  21.240  0.00  0.00    +0.000 A 
ATOM     16  C   UNL     1      -0.324   8.977  22.089  0.00  0.00    +0.000 C 
ENDBRANCH   1  14
BRANCH   5  17
ATOM     17  C   UNL     1       4.745   5.918  17.258  0.00  0.00    +0.000 C 
BRANCH  17  18
ATOM     18  C   UNL     1       4.949   4.469  16.802  0.00  0.00    +0.000 C 
BRANCH  18  19
ATOM     19  C   UNL     1       3.642   3.682  16.892  0.00  0.00    +0.000 C 
BRANCH  19  20
ATOM     20  O   UNL     1       3.762   2.642  17.864  0.00  0.00    +0.000 OA
BRANCH  20  21
ATOM     21  C   UNL     1       2.886   2.740  18.916  0.00  0.00    +0.000 A 
ATOM     22  C   UNL     1       3.447   2.562  20.182  0.00  0.00    +0.000 A 
ATOM     23  C   UNL     1       2.645   2.628  21.326  0.00  0.00    +0.000 A 
ATOM     24  C   UNL     1       1.284   2.890  21.209  0.00  0.00    +0.000 A 
ATOM     25  C   UNL     1       0.723   3.096  19.952  0.00  0.00    +0.000 A 
ATOM     26  C   UNL     1       1.521   3.025  18.809  0.00  0.00    +0.000 A 
ENDBRANCH  20  21
ENDBRANCH  19  20
ENDBRANCH  18  19
ENDBRANCH  17  18
ENDBRANCH   5  17
TORSDOF 6
ENDMDL
MODEL 4
REMARK VINA RESULT:      -7.4      1.465      2.014
REMARK  Name = 
REMARK  8 active torsions:
REMARK  status: ('A' for Active; 'I' for Inactive)
REMARK    1  A    between atoms: C_1  and  C_2
REMARK    2  A    between atoms: C_6  and  N_7
REMARK    3  A    between atoms: C_11  and  C_13
REMARK    4  A    between atoms: C_13  and  C_14
REMARK    5  A    between atoms: C_14  and  C_15
REMARK    6  A    between atoms: C_15  and  O_16
REMARK    7  A    between atoms: O_16  and  C_17
REMARK    8  A    between atoms: C_25  and  C_26
REMARK                            x       y       z     vdW  Elec       q    Type
REMARK                         _______ _______ _______ _____ _____    ______ ____
ROOT
ATOM      1  N   UNL     1       4.401   5.247  18.427  0.00  0.00    +0.000 N 
ATOM      2  C   UNL     1       5.667   4.984  19.160  0.00  0.00    +0.000 C 
ATOM      3  C   UNL     1       6.861   5.276  18.244  0.00  0.00    +0.000 C 
ATOM      4  N   UNL     1       6.827   6.671  17.793  0.00  0.00    +0.000 N 
ATOM      5  C   UNL     1       7.838   7.524  18.193  0.00  0.00    +0.000 C 
ATOM      6  O   UNL     1       8.709   7.168  18.984  0.00  0.00    +0.000 OA
ATOM      7  C   UNL     1       5.570   7.040  17.120  0.00  0.00    +0.000 C 
ATOM      8  C   UNL     1       4.322   6.660  17.962  0.00  0.00    +0.000 C 
ENDROOT
BRANCH   1  14
ATOM      9  C   UNL     1       0.575   1.987  18.644  0.00  0.00    +0.000 C 
ATOM     10  C   UNL     1       1.338   3.180  19.159  0.00  0.00    +0.000 A 
ATOM     11  C   UNL     1       0.805   3.890  20.242  0.00  0.00    +0.000 A 
ATOM     12  C   UNL     1       1.460   5.007  20.736  0.00  0.00    +0.000 A 
ATOM     13  C   UNL     1       2.636   5.447  20.129  0.00  0.00    +0.000 A 
ATOM     14  C   UNL     1       3.212   4.777  19.033  0.00  0.00    +0.000 A 
ATOM     15  C   UNL     1       2.570   3.591  18.580  0.00  0.00    +0.000 A 
ATOM     16  C   UNL     1       3.183   2.727  17.501  0.00  0.00    +0.000 C 
ENDBRANCH   1  14
BRANCH   5  17
ATOM     17  C   UNL     1       7.860   8.931  17.610  0.00  0.00    +0.000 C 
BRANCH  17  18
ATOM     18  C   UNL     1       9.012   9.767  18.178  0.00  0.00    +0.000 C 
BRANCH  18  19
ATOM     19  C   UNL     1       8.685  11.258  18.114  0.00  0.00    +0.000 C 
BRANCH  19  20
ATOM     20  O   UNL     1       9.797  12.025  18.580  0.00  0.00    +0.000 OA
BRANCH  20  21
ATOM     21  C   UNL     1       9.608  12.621  19.802  0.00  0.00    +0.000 A 
ATOM     22  C   UNL     1       9.542  14.016  19.785  0.00  0.00    +0.000 A 
ATOM     23  C   UNL     1       9.364  14.729  20.974  0.00  0.00    +0.000 A 
ATOM     24  C   UNL     1       9.234  14.051  22.181  0.00  0.00    +0.000 A 
ATOM     25  C   UNL     1       9.271  12.659  22.202  0.00  0.00    +0.000 A 
ATOM     26  C   UNL     1       9.454  11.946  21.016  0.00  0.00    +0.000 A 
ENDBRANCH  20  21
ENDBRANCH  19  20
ENDBRANCH  18  19
ENDBRANCH  17  18
ENDBRANCH   5  17
TORSDOF 6
ENDMDL
MODEL 5
REMARK VINA RESULT:      -7.3      5.390      7.679
REMARK  Name = 
REMARK  8 active torsions:
REMARK  status: ('A' for Active; 'I' for Inactive)
REMARK    1  A    between atoms: C_1  and  C_2
REMARK    2  A    between atoms: C_6  and  N_7
REMARK    3  A    between atoms: C_11  and  C_13
REMARK    4  A    between atoms: C_13  and  C_14
REMARK    5  A    between atoms: C_14  and  C_15
REMARK    6  A    between atoms: C_15  and  O_16
REMARK    7  A    between atoms: O_16  and  C_17
REMARK    8  A    between atoms: C_25  and  C_26
REMARK                            x       y       z     vdW  Elec       q    Type
REMARK                         _______ _______ _______ _____ _____    ______ ____
ROOT
ATOM      1  N   UNL     1       1.336   8.049  19.819  0.00  0.00    +0.000 N 
ATOM      2  C   UNL     1       1.873   6.863  20.537  0.00  0.00    +0.000 C 
ATOM      3  C   UNL     1       2.287   5.792  19.521  0.00  0.00    +0.000 C 
ATOM      4  N   UNL     1       3.302   6.323  18.607  0.00  0.00    +0.000 N 
ATOM      5  C   UNL     1       4.570   5.773  18.630  0.00  0.00    +0.000 C 
ATOM      6  O   UNL     1       4.889   4.917  19.453  0.00  0.00    +0.000 OA
ATOM      7  C   UNL     1       2.880   7.548  17.908  0.00  0.00    +0.000 C 
ATOM      8  C   UNL     1       2.345   8.627  18.888  0.00  0.00    +0.000 C 
ENDROOT
BRANCH   1  14
ATOM      9  C   UNL     1      -1.428  12.232  20.231  0.00  0.00    +0.000 C 
ATOM     10  C   UNL     1      -0.697  11.056  20.825  0.00  0.00    +0.000 A 
ATOM     11  C   UNL     1      -0.623  10.958  22.220  0.00  0.00    +0.000 A 
ATOM     12  C   UNL     1       0.058   9.906  22.812  0.00  0.00    +0.000 A 
ATOM     13  C   UNL     1       0.702   8.960  22.015  0.00  0.00    +0.000 A 
ATOM     14  C   UNL     1       0.667   9.014  20.608  0.00  0.00    +0.000 A 
ATOM     15  C   UNL     1      -0.094  10.058  20.012  0.00  0.00    +0.000 A 
ATOM     16  C   UNL     1      -0.305  10.121  18.516  0.00  0.00    +0.000 C 
ENDBRANCH   1  14
BRANCH   5  17
ATOM     17  C   UNL     1       5.575   6.244  17.585  0.00  0.00    +0.000 C 
BRANCH  17  18
ATOM     18  C   UNL     1       6.964   5.641  17.816  0.00  0.00    +0.000 C 
BRANCH  18  19
ATOM     19  C   UNL     1       7.412   4.826  16.604  0.00  0.00    +0.000 C 
BRANCH  19  20
ATOM     20  O   UNL     1       7.339   5.624  15.422  0.00  0.00    +0.000 OA
BRANCH  20  21
ATOM     21  C   UNL     1       6.956   4.941  14.294  0.00  0.00    +0.000 A 
ATOM     22  C   UNL     1       5.731   4.276  14.383  0.00  0.00    +0.000 A 
ATOM     23  C   UNL     1       5.248   3.537  13.298  0.00  0.00    +0.000 A 
ATOM     24  C   UNL     1       5.978   3.476  12.116  0.00  0.00    +0.000 A 
ATOM     25  C   UNL     1       7.186   4.161  12.011  0.00  0.00    +0.000 A 
ATOM     26  C   UNL     1       7.672   4.894  13.095  0.00  0.00    +0.000 A 
ENDBRANCH  20  21
ENDBRANCH  19  20
ENDBRANCH  18  19
ENDBRANCH  17  18
ENDBRANCH   5  17
TORSDOF 6
ENDMDL
MODEL 6
REMARK VINA RESULT:      -7.3      1.275      1.544
REMARK  Name = 
REMARK  8 active torsions:
REMARK  status: ('A' for Active; 'I' for Inactive)
REMARK    1  A    between atoms: C_1  and  C_2
REMARK    2  A    between atoms: C_6  and  N_7
REMARK    3  A    between atoms: C_11  and  C_13
REMARK    4  A    between atoms: C_13  and  C_14
REMARK    5  A    between atoms: C_14  and  C_15
REMARK    6  A    between atoms: C_15  and  O_16
REMARK    7  A    between atoms: O_16  and  C_17
REMARK    8  A    between atoms: C_25  and  C_26
REMARK                            x       y       z     vdW  Elec       q    Type
REMARK                         _______ _______ _______ _____ _____    ______ ____
ROOT
ATOM      1  N   UNL     1       4.574   5.281  18.461  0.00  0.00    +0.000 N 
ATOM      2  C   UNL     1       5.786   5.157  19.312  0.00  0.00    +0.000 C 
ATOM      3  C   UNL     1       7.039   5.368  18.453  0.00  0.00    +0.000 C 
ATOM      4  N   UNL     1       7.006   6.690  17.821  0.00  0.00    +0.000 N 
ATOM      5  C   UNL     1       7.964   7.621  18.177  0.00  0.00    +0.000 C 
ATOM      6  O   UNL     1       8.782   7.398  19.068  0.00  0.00    +0.000 OA
ATOM      7  C   UNL     1       5.796   6.928  17.018  0.00  0.00    +0.000 C 
ATOM      8  C   UNL     1       4.496   6.619  17.811  0.00  0.00    +0.000 C 
ENDROOT
BRANCH   1  14
ATOM      9  C   UNL     1       0.700   2.077  18.670  0.00  0.00    +0.000 C 
ATOM     10  C   UNL     1       1.455   3.286  19.159  0.00  0.00    +0.000 A 
ATOM     11  C   UNL     1       0.886   4.054  20.182  0.00  0.00    +0.000 A 
ATOM     12  C   UNL     1       1.534   5.186  20.650  0.00  0.00    +0.000 A 
ATOM     13  C   UNL     1       2.740   5.584  20.074  0.00  0.00    +0.000 A 
ATOM     14  C   UNL     1       3.353   4.854  19.037  0.00  0.00    +0.000 A 
ATOM     15  C   UNL     1       2.716   3.654  18.615  0.00  0.00    +0.000 A 
ATOM     16  C   UNL     1       3.364   2.732  17.607  0.00  0.00    +0.000 C 
ENDBRANCH   1  14
BRANCH   5  17
ATOM     17  C   UNL     1       7.998   8.941  17.418  0.00  0.00    +0.000 C 
BRANCH  17  18
ATOM     18  C   UNL     1       8.269  10.129  18.348  0.00  0.00    +0.000 C 
BRANCH  18  19
ATOM     19  C   UNL     1       9.690  10.656  18.156  0.00  0.00    +0.000 C 
BRANCH  19  20
ATOM     20  O   UNL     1       9.655  11.967  17.591  0.00  0.00    +0.000 OA
BRANCH  20  21
ATOM     21  C   UNL     1       9.228  12.948  18.451  0.00  0.00    +0.000 A 
ATOM     22  C   UNL     1       8.125  13.687  18.019  0.00  0.00    +0.000 A 
ATOM     23  C   UNL     1       7.613  14.720  18.809  0.00  0.00    +0.000 A 
ATOM     24  C   UNL     1       8.190  15.007  20.042  0.00  0.00    +0.000 A 
ATOM     25  C   UNL     1       9.273  14.256  20.492  0.00  0.00    +0.000 A 
ATOM     26  C   UNL     1       9.788  13.228  19.701  0.00  0.00    +0.000 A 
ENDBRANCH  20  21
ENDBRANCH  19  20
ENDBRANCH  18  19
ENDBRANCH  17  18
ENDBRANCH   5  17
TORSDOF 6
ENDMDL
MODEL 7
REMARK VINA RESULT:      -7.3      1.056      1.993
REMARK  Name = 
REMARK  8 active torsions:
REMARK  status: ('A' for Active; 'I' for Inactive)
REMARK    1  A    between atoms: C_1  and  C_2
REMARK    2  A    between atoms: C_6  and  N_7
REMARK    3  A    between atoms: C_11  and  C_13
REMARK    4  A    between atoms: C_13  and  C_14
REMARK    5  A    between atoms: C_14  and  C_15
REMARK    6  A    between atoms: C_15  and  O_16
REMARK    7  A    between atoms: O_16  and  C_17
REMARK    8  A    between atoms: C_25  and  C_26
REMARK                            x       y       z     vdW  Elec       q    Type
REMARK                         _______ _______ _______ _____ _____    ______ ____
ROOT
ATOM      1  N   UNL     1       4.759   4.645  17.747  0.00  0.00    +0.000 N 
ATOM      2  C   UNL     1       5.892   4.476  18.693  0.00  0.00    +0.000 C 
ATOM      3  C   UNL     1       7.187   4.969  18.036  0.00  0.00    +0.000 C 
ATOM      4  N   UNL     1       7.060   6.379  17.656  0.00  0.00    +0.000 N 
ATOM      5  C   UNL     1       7.866   7.311  18.282  0.00  0.00    +0.000 C 
ATOM      6  O   UNL     1       8.616   7.001  19.205  0.00  0.00    +0.000 OA
ATOM      7  C   UNL     1       5.911   6.649  16.776  0.00  0.00    +0.000 C 
ATOM      8  C   UNL     1       4.588   6.069  17.346  0.00  0.00    +0.000 C 
ENDROOT
BRANCH   1  14
ATOM      9  C   UNL     1       0.688   4.221  20.673  0.00  0.00    +0.000 C 
ATOM     10  C   UNL     1       1.542   3.787  19.510  0.00  0.00    +0.000 A 
ATOM     11  C   UNL     1       1.150   2.654  18.787  0.00  0.00    +0.000 A 
ATOM     12  C   UNL     1       1.916   2.204  17.723  0.00  0.00    +0.000 A 
ATOM     13  C   UNL     1       3.101   2.861  17.394  0.00  0.00    +0.000 A 
ATOM     14  C   UNL     1       3.548   3.999  18.092  0.00  0.00    +0.000 A 
ATOM     15  C   UNL     1       2.717   4.494  19.136  0.00  0.00    +0.000 A 
ATOM     16  C   UNL     1       3.040   5.787  19.851  0.00  0.00    +0.000 C 
ENDBRANCH   1  14
BRANCH   5  17
ATOM     17  C   UNL     1       7.817   8.751  17.784  0.00  0.00    +0.000 C 
BRANCH  17  18
ATOM     18  C   UNL     1       8.708   9.675  18.620  0.00  0.00    +0.000 C 
BRANCH  18  19
ATOM     19  C   UNL     1       8.940  11.003  17.902  0.00  0.00    +0.000 C 
BRANCH  19  20
ATOM     20  O   UNL     1      10.313  11.124  17.526  0.00  0.00    +0.000 OA
BRANCH  20  21
ATOM     21  C   UNL     1      10.960  12.207  18.067  0.00  0.00    +0.000 A 
ATOM     22  C   UNL     1      11.512  13.099  17.145  0.00  0.00    +0.000 A 
ATOM     23  C   UNL     1      12.205  14.231  17.585  0.00  0.00    +0.000 A 
ATOM     24  C   UNL     1      12.333  14.485  18.947  0.00  0.00    +0.000 A 
ATOM     25  C   UNL     1      11.761  13.615  19.871  0.00  0.00    +0.000 A 
ATOM     26  C   UNL     1      11.073  12.481  19.433  0.00  0.00    +0.000 A 
ENDBRANCH  20  21
ENDBRANCH  19  20
ENDBRANCH  18  19
ENDBRANCH  17  18
ENDBRANCH   5  17
TORSDOF 6
ENDMDL
MODEL 8
REMARK VINA RESULT:      -7.2      5.896      8.768
REMARK  Name = 
REMARK  8 active torsions:
REMARK  status: ('A' for Active; 'I' for Inactive)
REMARK    1  A    between atoms: C_1  and  C_2
REMARK    2  A    between atoms: C_6  and  N_7
REMARK    3  A    between atoms: C_11  and  C_13
REMARK    4  A    between atoms: C_13  and  C_14
REMARK    5  A    between atoms: C_14  and  C_15
REMARK    6  A    between atoms: C_15  and  O_16
REMARK    7  A    between atoms: O_16  and  C_17
REMARK    8  A    between atoms: C_25  and  C_26
REMARK                            x       y       z     vdW  Elec       q    Type
REMARK                         _______ _______ _______ _____ _____    ______ ____
ROOT
ATOM      1  N   UNL     1       2.328   7.015  18.809  0.00  0.00    +0.000 N 
ATOM      2  C   UNL     1       2.634   8.079  17.818  0.00  0.00    +0.000 C 
ATOM      3  C   UNL     1       1.471   9.077  17.761  0.00  0.00    +0.000 C 
ATOM      4  N   UNL     1       1.248   9.675  19.081  0.00  0.00    +0.000 N 
ATOM      5  C   UNL     1       1.465  11.030  19.243  0.00  0.00    +0.000 C 
ATOM      6  O   UNL     1       1.922  11.724  18.336  0.00  0.00    +0.000 OA
ATOM      7  C   UNL     1       1.012   8.682  20.143  0.00  0.00    +0.000 C 
ATOM      8  C   UNL     1       2.108   7.582  20.170  0.00  0.00    +0.000 C 
ENDROOT
BRANCH   1  14
ATOM      9  C   UNL     1       3.081   2.121  17.919  0.00  0.00    +0.000 C 
ATOM     10  C   UNL     1       3.557   3.484  18.351  0.00  0.00    +0.000 A 
ATOM     11  C   UNL     1       4.870   3.609  18.819  0.00  0.00    +0.000 A 
ATOM     12  C   UNL     1       5.346   4.838  19.248  0.00  0.00    +0.000 A 
ATOM     13  C   UNL     1       4.501   5.948  19.246  0.00  0.00    +0.000 A 
ATOM     14  C   UNL     1       3.170   5.878  18.794  0.00  0.00    +0.000 A 
ATOM     15  C   UNL     1       2.715   4.628  18.289  0.00  0.00    +0.000 A 
ATOM     16  C   UNL     1       1.349   4.486  17.656  0.00  0.00    +0.000 C 
ENDBRANCH   1  14
BRANCH   5  17
ATOM     17  C   UNL     1       1.103  11.659  20.583  0.00  0.00    +0.000 C 
BRANCH  17  18
ATOM     18  C   UNL     1      -0.413  11.708  20.800  0.00  0.00    +0.000 C 
BRANCH  18  19
ATOM     19  C   UNL     1      -1.144  11.951  19.481  0.00  0.00    +0.000 C 
BRANCH  19  20
ATOM     20  O   UNL     1      -2.259  11.065  19.367  0.00  0.00    +0.000 OA
BRANCH  20  21
ATOM     21  C   UNL     1      -2.755  10.933  18.094  0.00  0.00    +0.000 A 
ATOM     22  C   UNL     1      -2.009  10.119  17.239  0.00  0.00    +0.000 A 
ATOM     23  C   UNL     1      -2.415   9.924  15.916  0.00  0.00    +0.000 A 
ATOM     24  C   UNL     1      -3.578  10.527  15.447  0.00  0.00    +0.000 A 
ATOM     25  C   UNL     1      -4.342  11.318  16.301  0.00  0.00    +0.000 A 
ATOM     26  C   UNL     1      -3.934  11.517  17.621  0.00  0.00    +0.000 A 
ENDBRANCH  20  21
ENDBRANCH  19  20
ENDBRANCH  18  19
ENDBRANCH  17  18
ENDBRANCH   5  17
TORSDOF 6
ENDMDL
MODEL 9
REMARK VINA RESULT:      -7.2      7.023     10.299
REMARK  Name = 
REMARK  8 active torsions:
REMARK  status: ('A' for Active; 'I' for Inactive)
REMARK    1  A    between atoms: C_1  and  C_2
REMARK    2  A    between atoms: C_6  and  N_7
REMARK    3  A    between atoms: C_11  and  C_13
REMARK    4  A    between atoms: C_13  and  C_14
REMARK    5  A    between atoms: C_14  and  C_15
REMARK    6  A    between atoms: C_15  and  O_16
REMARK    7  A    between atoms: O_16  and  C_17
REMARK    8  A    between atoms: C_25  and  C_26
REMARK                            x       y       z     vdW  Elec       q    Type
REMARK                         _______ _______ _______ _____ _____    ______ ____
ROOT
ATOM      1  N   UNL     1       2.607   7.111  18.627  0.00  0.00    +0.000 N 
ATOM      2  C   UNL     1       1.846   7.095  19.904  0.00  0.00    +0.000 C 
ATOM      3  C   UNL     1       1.792   8.512  20.487  0.00  0.00    +0.000 C 
ATOM      4  N   UNL     1       1.153   9.428  19.537  0.00  0.00    +0.000 N 
ATOM      5  C   UNL     1      -0.052  10.010  19.883  0.00  0.00    +0.000 C 
ATOM      6  O   UNL     1      -0.641   9.710  20.920  0.00  0.00    +0.000 OA
ATOM      7  C   UNL     1       1.800   9.449  18.215  0.00  0.00    +0.000 C 
ATOM      8  C   UNL     1       1.981   8.022  17.629  0.00  0.00    +0.000 C 
ENDROOT
BRANCH   1  14
ATOM      9  C   UNL     1       5.752   4.216  15.973  0.00  0.00    +0.000 C 
ATOM     10  C   UNL     1       4.516   4.419  16.810  0.00  0.00    +0.000 A 
ATOM     11  C   UNL     1       3.666   3.325  17.013  0.00  0.00    +0.000 A 
ATOM     12  C   UNL     1       2.506   3.468  17.757  0.00  0.00    +0.000 A 
ATOM     13  C   UNL     1       2.165   4.716  18.277  0.00  0.00    +0.000 A 
ATOM     14  C   UNL     1       2.978   5.852  18.098  0.00  0.00    +0.000 A 
ATOM     15  C   UNL     1       4.201   5.677  17.394  0.00  0.00    +0.000 A 
ATOM     16  C   UNL     1       5.204   6.801  17.268  0.00  0.00    +0.000 C 
ENDBRANCH   1  14
BRANCH   5  17
ATOM     17  C   UNL     1      -0.637  11.059  18.945  0.00  0.00    +0.000 C 
BRANCH  17  18
ATOM     18  C   UNL     1      -1.735  10.477  18.049  0.00  0.00    +0.000 C 
BRANCH  18  19
ATOM     19  C   UNL     1      -2.931  11.424  17.969  0.00  0.00    +0.000 C 
BRANCH  19  20
ATOM     20  O   UNL     1      -4.148  10.691  18.116  0.00  0.00    +0.000 OA
BRANCH  20  21
ATOM     21  C   UNL     1      -5.285  11.460  18.086  0.00  0.00    +0.000 A 
ATOM     22  C   UNL     1      -6.141  11.310  19.179  0.00  0.00    +0.000 A 
ATOM     23  C   UNL     1      -7.335  12.034  19.247  0.00  0.00    +0.000 A 
ATOM     24  C   UNL     1      -7.668  12.925  18.232  0.00  0.00    +0.000 A 
ATOM     25  C   UNL     1      -6.806  13.101  17.153  0.00  0.00    +0.000 A 
ATOM     26  C   UNL     1      -5.616  12.374  17.081  0.00  0.00    +0.000 A 
ENDBRANCH  20  21
ENDBRANCH  19  20
ENDBRANCH  18  19
ENDBRANCH  17  18
ENDBRANCH   5  17
TORSDOF 6
ENDMDL
