MODEL 1
REMARK VINA RESULT:      -8.6      0.000      0.000
REMARK  Name = 
REMARK  7 active torsions:
REMARK  status: ('A' for Active; 'I' for Inactive)
REMARK    1  A    between atoms: C_2  and  C_3
REMARK    2  A    between atoms: C_4  and  C_5
REMARK    3  A    between atoms: N_11  and  C_12
REMARK    4  A    between atoms: C_12  and  C_13
REMARK    5  A    between atoms: N_15  and  C_16
REMARK    6  A    between atoms: C_16  and  C_17
REMARK    7  A    between atoms: C_17  and  C_18
REMARK                            x       y       z     vdW  Elec       q    Type
REMARK                         _______ _______ _______ _____ _____    ______ ____
ROOT
ATOM      1  C   UNL     1       6.362   5.863  18.392  0.00  0.00    +0.000 C 
ATOM      2  O   UNL     1       5.690   5.121  19.115  0.00  0.00    +0.000 OA
ATOM      3  N   UNL     1       5.839   6.524  17.304  0.00  0.00    +0.000 N 
ATOM      4  H   UNL     1       6.509   6.934  16.666  0.00  0.00    +0.000 HD
ENDROOT
BRANCH   1   5
ATOM      5  C   UNL     1       7.888   5.984  18.545  0.00  0.00    +0.000 C 
BRANCH   5   8
ATOM      6  O   UNL     1       7.860   8.516  17.177  0.00  0.00    +0.000 OA
ATOM      7  C   UNL     1       8.390   8.400  18.277  0.00  0.00    +0.000 C 
ATOM      8  N   UNL     1       8.379   7.267  19.039  0.00  0.00    +0.000 N 
ATOM      9  H   UNL     1       8.774   7.272  19.968  0.00  0.00    +0.000 HD
BRANCH   7  10
ATOM     10  C   UNL     1       9.114   9.533  18.946  0.00  0.00    +0.000 C 
ATOM     11  C   UNL     1       9.186  10.747  18.367  0.00  0.00    +0.000 C 
BRANCH  11  12
ATOM     12  C   UNL     1       9.898  11.907  18.940  0.00  0.00    +0.000 A 
ATOM     13  C   UNL     1      10.713  12.690  18.108  0.00  0.00    +0.000 A 
ATOM     14  C   UNL     1      11.394  13.804  18.606  0.00  0.00    +0.000 A 
ATOM     15  C   UNL     1      11.251  14.150  19.950  0.00  0.00    +0.000 A 
ATOM     16  C   UNL     1      10.437  13.406  20.780  0.00  0.00    +0.000 A 
ATOM     17  C   UNL     1       9.759  12.299  20.285  0.00  0.00    +0.000 A 
ENDBRANCH  11  12
ENDBRANCH   7  10
ENDBRANCH   5   8
ENDBRANCH   1   5
BRANCH   3  18
ATOM     18  C   UNL     1       4.485   6.338  16.833  0.00  0.00    +0.000 C 
BRANCH  18  19
ATOM     19  C   UNL     1       3.405   7.051  17.622  0.00  0.00    +0.000 C 
BRANCH  19  20
ATOM     20  C   UNL     1       2.615   6.321  18.667  0.00  0.00    +0.000 A 
ATOM     21  C   UNL     1       2.212   6.974  19.822  0.00  0.00    +0.000 A 
ATOM     22  N   UNL     1       2.242   5.993  20.765  0.00  0.00    +0.000 N 
ATOM     23  C   UNL     1       1.759   4.854  20.183  0.00  0.00    +0.000 A 
ATOM     24  C   UNL     1       1.158   3.737  20.756  0.00  0.00    +0.000 A 
ATOM     25  C   UNL     1       0.797   2.709  19.893  0.00  0.00    +0.000 A 
ATOM     26  C   UNL     1       1.164   2.758  18.547  0.00  0.00    +0.000 A 
ATOM     27  C   UNL     1       1.865   3.859  18.009  0.00  0.00    +0.000 A 
ATOM     28  C   UNL     1       2.103   4.982  18.823  0.00  0.00    +0.000 A 
ATOM     29  H   UNL     1       2.677   6.058  21.673  0.00  0.00    +0.000 HD
ENDBRANCH  19  20
ENDBRANCH  18  19
ENDBRANCH   3  18
TORSDOF 7
ENDMDL
MODEL 2
REMARK VINA RESULT:      -8.5      0.976      1.012
REMARK  Name = 
REMARK  7 active torsions:
REMARK  status: ('A' for Active; 'I' for Inactive)
REMARK    1  A    between atoms: C_2  and  C_3
REMARK    2  A    between atoms: C_4  and  C_5
REMARK    3  A    between atoms: N_11  and  C_12
REMARK    4  A    between atoms: C_12  and  C_13
REMARK    5  A    between atoms: N_15  and  C_16
REMARK    6  A    between atoms: C_16  and  C_17
REMARK    7  A    between atoms: C_17  and  C_18
REMARK                            x       y       z     vdW  Elec       q    Type
REMARK                         _______ _______ _______ _____ _____    ______ ____
ROOT
ATOM      1  C   UNL     1       5.970   5.527  17.170  0.00  0.00    +0.000 C 
ATOM      2  O   UNL     1       5.807   5.071  16.034  0.00  0.00    +0.000 OA
ATOM      3  N   UNL     1       5.074   6.379  17.771  0.00  0.00    +0.000 N 
ATOM      4  H   UNL     1       5.398   6.852  18.605  0.00  0.00    +0.000 HD
ENDROOT
BRANCH   1   5
ATOM      5  C   UNL     1       7.278   5.312  17.951  0.00  0.00    +0.000 C 
BRANCH   5   8
ATOM      6  O   UNL     1       7.413   7.970  16.856  0.00  0.00    +0.000 OA
ATOM      7  C   UNL     1       7.935   7.705  17.933  0.00  0.00    +0.000 C 
ATOM      8  N   UNL     1       7.851   6.502  18.573  0.00  0.00    +0.000 N 
ATOM      9  H   UNL     1       8.246   6.384  19.494  0.00  0.00    +0.000 HD
BRANCH   7  10
ATOM     10  C   UNL     1       8.731   8.714  18.712  0.00  0.00    +0.000 C 
ATOM     11  C   UNL     1       8.899   9.968  18.252  0.00  0.00    +0.000 C 
BRANCH  11  12
ATOM     12  C   UNL     1       9.686  11.013  18.938  0.00  0.00    +0.000 A 
ATOM     13  C   UNL     1      10.512  11.856  18.179  0.00  0.00    +0.000 A 
ATOM     14  C   UNL     1      11.264  12.867  18.786  0.00  0.00    +0.000 A 
ATOM     15  C   UNL     1      11.182  13.046  20.167  0.00  0.00    +0.000 A 
ATOM     16  C   UNL     1      10.360  12.240  20.928  0.00  0.00    +0.000 A 
ATOM     17  C   UNL     1       9.611  11.238  20.325  0.00  0.00    +0.000 A 
ENDBRANCH  11  12
ENDBRANCH   7  10
ENDBRANCH   5   8
ENDBRANCH   1   5
BRANCH   3  18
ATOM     18  C   UNL     1       3.908   6.914  17.104  0.00  0.00    +0.000 C 
BRANCH  18  19
ATOM     19  C   UNL     1       2.750   7.300  18.000  0.00  0.00    +0.000 C 
BRANCH  19  20
ATOM     20  C   UNL     1       2.238   6.348  19.040  0.00  0.00    +0.000 A 
ATOM     21  C   UNL     1       1.986   6.790  20.329  0.00  0.00    +0.000 A 
ATOM     22  N   UNL     1       2.283   5.706  21.098  0.00  0.00    +0.000 N 
ATOM     23  C   UNL     1       1.821   4.601  20.439  0.00  0.00    +0.000 A 
ATOM     24  C   UNL     1       1.448   3.353  20.930  0.00  0.00    +0.000 A 
ATOM     25  C   UNL     1       1.043   2.408  19.993  0.00  0.00    +0.000 A 
ATOM     26  C   UNL     1       1.156   2.677  18.628  0.00  0.00    +0.000 A 
ATOM     27  C   UNL     1       1.634   3.917  18.153  0.00  0.00    +0.000 A 
ATOM     28  C   UNL     1       1.900   4.946  19.076  0.00  0.00    +0.000 A 
ATOM     29  H   UNL     1       2.865   5.706  21.921  0.00  0.00    +0.000 HD
ENDBRANCH  19  20
ENDBRANCH  18  19
ENDBRANCH   3  18
TORSDOF 7
ENDMDL
MODEL 3
REMARK VINA RESULT:      -8.5      1.397      1.943
REMARK  Name = 
REMARK  7 active torsions:
REMARK  status: ('A' for Active; 'I' for Inactive)
REMARK    1  A    between atoms: C_2  and  C_3
REMARK    2  A    between atoms: C_4  and  C_5
REMARK    3  A    between atoms: N_11  and  C_12
REMARK    4  A    between atoms: C_12  and  C_13
REMARK    5  A    between atoms: N_15  and  C_16
REMARK    6  A    between atoms: C_16  and  C_17
REMARK    7  A    between atoms: C_17  and  C_18
REMARK                            x       y       z     vdW  Elec       q    Type
REMARK                         _______ _______ _______ _____ _____    ______ ____
ROOT
ATOM      1  C   UNL     1       7.368   5.178  17.330  0.00  0.00    +0.000 C 
ATOM      2  O   UNL     1       7.714   5.668  16.250  0.00  0.00    +0.000 OA
ATOM      3  N   UNL     1       6.422   4.184  17.433  0.00  0.00    +0.000 N 
ATOM      4  H   UNL     1       6.065   4.003  18.362  0.00  0.00    +0.000 HD
ENDROOT
BRANCH   1   5
ATOM      5  C   UNL     1       7.844   5.755  18.674  0.00  0.00    +0.000 C 
BRANCH   5   8
ATOM      6  O   UNL     1       6.511   8.047  17.553  0.00  0.00    +0.000 OA
ATOM      7  C   UNL     1       7.644   8.140  18.013  0.00  0.00    +0.000 C 
ATOM      8  N   UNL     1       8.323   7.135  18.641  0.00  0.00    +0.000 N 
ATOM      9  H   UNL     1       9.223   7.310  19.060  0.00  0.00    +0.000 HD
BRANCH   7  10
ATOM     10  C   UNL     1       8.433   9.417  17.960  0.00  0.00    +0.000 C 
ATOM     11  C   UNL     1       9.213   9.793  18.992  0.00  0.00    +0.000 C 
BRANCH  11  12
ATOM     12  C   UNL     1      10.000  11.042  19.035  0.00  0.00    +0.000 A 
ATOM     13  C   UNL     1      10.242  11.656  20.274  0.00  0.00    +0.000 A 
ATOM     14  C   UNL     1      10.993  12.831  20.362  0.00  0.00    +0.000 A 
ATOM     15  C   UNL     1      11.519  13.396  19.200  0.00  0.00    +0.000 A 
ATOM     16  C   UNL     1      11.310  12.797  17.975  0.00  0.00    +0.000 A 
ATOM     17  C   UNL     1      10.565  11.628  17.887  0.00  0.00    +0.000 A 
ENDBRANCH  11  12
ENDBRANCH   7  10
ENDBRANCH   5   8
ENDBRANCH   1   5
BRANCH   3  18
ATOM     18  C   UNL     1       5.662   3.686  16.309  0.00  0.00    +0.000 C 
BRANCH  18  19
ATOM     19  C   UNL     1       4.259   4.238  16.160  0.00  0.00    +0.000 C 
BRANCH  19  20
ATOM     20  C   UNL     1       3.495   4.713  17.360  0.00  0.00    +0.000 A 
ATOM     21  C   UNL     1       3.589   6.034  17.772  0.00  0.00    +0.000 A 
ATOM     22  N   UNL     1       3.466   5.952  19.125  0.00  0.00    +0.000 N 
ATOM     23  C   UNL     1       2.509   5.012  19.391  0.00  0.00    +0.000 A 
ATOM     24  C   UNL     1       1.686   4.857  20.503  0.00  0.00    +0.000 A 
ATOM     25  C   UNL     1       0.822   3.768  20.494  0.00  0.00    +0.000 A 
ATOM     26  C   UNL     1       0.901   2.814  19.478  0.00  0.00    +0.000 A 
ATOM     27  C   UNL     1       1.817   2.941  18.411  0.00  0.00    +0.000 A 
ATOM     28  C   UNL     1       2.591   4.112  18.311  0.00  0.00    +0.000 A 
ATOM     29  H   UNL     1       4.071   6.391  19.802  0.00  0.00    +0.000 HD
ENDBRANCH  19  20
ENDBRANCH  18  19
ENDBRANCH   3  18
TORSDOF 7
ENDMDL
MODEL 4
REMARK VINA RESULT:      -8.2      1.221      1.616
REMARK  Name = 
REMARK  7 active torsions:
REMARK  status: ('A' for Active; 'I' for Inactive)
REMARK    1  A    between atoms: C_2  and  C_3
REMARK    2  A    between atoms: C_4  and  C_5
REMARK    3  A    between atoms: N_11  and  C_12
REMARK    4  A    between atoms: C_12  and  C_13
REMARK    5  A    between atoms: N_15  and  C_16
REMARK    6  A    between atoms: C_16  and  C_17
REMARK    7  A    between atoms: C_17  and  C_18
REMARK                            x       y       z     vdW  Elec       q    Type
REMARK                         _______ _______ _______ _____ _____    ______ ____
ROOT
ATOM      1  C   UNL     1       6.771   5.164  18.724  0.00  0.00    +0.000 C 
ATOM      2  O   UNL     1       5.778   5.112  19.455  0.00  0.00    +0.000 OA
ATOM      3  N   UNL     1       6.798   4.629  17.456  0.00  0.00    +0.000 N 
ATOM      4  H   UNL     1       7.711   4.542  17.028  0.00  0.00    +0.000 HD
ENDROOT
BRANCH   1   5
ATOM      5  C   UNL     1       8.126   5.687  19.230  0.00  0.00    +0.000 C 
BRANCH   5   8
ATOM      6  O   UNL     1       6.952   7.384  17.224  0.00  0.00    +0.000 OA
ATOM      7  C   UNL     1       7.833   7.804  17.967  0.00  0.00    +0.000 C 
ATOM      8  N   UNL     1       8.388   7.106  19.001  0.00  0.00    +0.000 N 
ATOM      9  H   UNL     1       9.056   7.547  19.615  0.00  0.00    +0.000 HD
BRANCH   7  10
ATOM     10  C   UNL     1       8.404   9.187  17.838  0.00  0.00    +0.000 C 
ATOM     11  C   UNL     1       9.001   9.791  18.883  0.00  0.00    +0.000 C 
BRANCH  11  12
ATOM     12  C   UNL     1       9.565  11.155  18.853  0.00  0.00    +0.000 A 
ATOM     13  C   UNL     1      10.746  11.424  19.562  0.00  0.00    +0.000 A 
ATOM     14  C   UNL     1      11.321  12.698  19.549  0.00  0.00    +0.000 A 
ATOM     15  C   UNL     1      10.717  13.714  18.809  0.00  0.00    +0.000 A 
ATOM     16  C   UNL     1       9.567  13.466  18.088  0.00  0.00    +0.000 A 
ATOM     17  C   UNL     1       8.997  12.199  18.099  0.00  0.00    +0.000 A 
ENDBRANCH  11  12
ENDBRANCH   7  10
ENDBRANCH   5   8
ENDBRANCH   1   5
BRANCH   3  18
ATOM     18  C   UNL     1       5.712   3.863  16.890  0.00  0.00    +0.000 C 
BRANCH  18  19
ATOM     19  C   UNL     1       4.447   4.636  16.578  0.00  0.00    +0.000 C 
BRANCH  19  20
ATOM     20  C   UNL     1       3.401   4.846  17.632  0.00  0.00    +0.000 A 
ATOM     21  C   UNL     1       2.914   6.118  17.891  0.00  0.00    +0.000 A 
ATOM     22  N   UNL     1       2.648   6.088  19.226  0.00  0.00    +0.000 N 
ATOM     23  C   UNL     1       2.107   4.863  19.505  0.00  0.00    +0.000 A 
ATOM     24  C   UNL     1       1.265   4.469  20.541  0.00  0.00    +0.000 A 
ATOM     25  C   UNL     1       0.904   3.126  20.576  0.00  0.00    +0.000 A 
ATOM     26  C   UNL     1       1.488   2.217  19.693  0.00  0.00    +0.000 A 
ATOM     27  C   UNL     1       2.420   2.626  18.714  0.00  0.00    +0.000 A 
ATOM     28  C   UNL     1       2.681   3.999  18.553  0.00  0.00    +0.000 A 
ATOM     29  H   UNL     1       2.934   6.779  19.902  0.00  0.00    +0.000 HD
ENDBRANCH  19  20
ENDBRANCH  18  19
ENDBRANCH   3  18
TORSDOF 7
ENDMDL
MODEL 5
REMARK VINA RESULT:      -8.2      1.568      2.745
REMARK  Name = 
REMARK  7 active torsions:
REMARK  status: ('A' for Active; 'I' for Inactive)
REMARK    1  A    between atoms: C_2  and  C_3
REMARK    2  A    between atoms: C_4  and  C_5
REMARK    3  A    between atoms: N_11  and  C_12
REMARK    4  A    between atoms: C_12  and  C_13
REMARK    5  A    between atoms: N_15  and  C_16
REMARK    6  A    between atoms: C_16  and  C_17
REMARK    7  A    between atoms: C_17  and  C_18
REMARK                            x       y       z     vdW  Elec       q    Type
REMARK                         _______ _______ _______ _____ _____    ______ ____
ROOT
ATOM      1  C   UNL     1       6.699   5.376  18.801  0.00  0.00    +0.000 C 
ATOM      2  O   UNL     1       6.342   5.098  19.949  0.00  0.00    +0.000 OA
ATOM      3  N   UNL     1       5.934   5.104  17.690  0.00  0.00    +0.000 N 
ATOM      4  H   UNL     1       6.401   5.180  16.796  0.00  0.00    +0.000 HD
ENDROOT
BRANCH   1   5
ATOM      5  C   UNL     1       8.112   5.903  18.495  0.00  0.00    +0.000 C 
BRANCH   5   8
ATOM      6  O   UNL     1       7.490   8.308  17.041  0.00  0.00    +0.000 OA
ATOM      7  C   UNL     1       8.113   8.353  18.096  0.00  0.00    +0.000 C 
ATOM      8  N   UNL     1       8.380   7.281  18.898  0.00  0.00    +0.000 N 
ATOM      9  H   UNL     1       8.834   7.410  19.790  0.00  0.00    +0.000 HD
BRANCH   7  10
ATOM     10  C   UNL     1       8.650   9.638  18.660  0.00  0.00    +0.000 C 
ATOM     11  C   UNL     1       9.475  10.420  17.937  0.00  0.00    +0.000 C 
BRANCH  11  12
ATOM     12  C   UNL     1      10.069  11.683  18.421  0.00  0.00    +0.000 A 
ATOM     13  C   UNL     1      11.061  11.636  19.412  0.00  0.00    +0.000 A 
ATOM     14  C   UNL     1      11.660  12.806  19.889  0.00  0.00    +0.000 A 
ATOM     15  C   UNL     1      11.271  14.038  19.362  0.00  0.00    +0.000 A 
ATOM     16  C   UNL     1      10.312  14.103  18.372  0.00  0.00    +0.000 A 
ATOM     17  C   UNL     1       9.718  12.941  17.897  0.00  0.00    +0.000 A 
ENDBRANCH  11  12
ENDBRANCH   7  10
ENDBRANCH   5   8
ENDBRANCH   1   5
BRANCH   3  18
ATOM     18  C   UNL     1       4.687   4.374  17.740  0.00  0.00    +0.000 C 
BRANCH  18  19
ATOM     19  C   UNL     1       3.430   5.196  17.541  0.00  0.00    +0.000 C 
BRANCH  19  20
ATOM     20  C   UNL     1       2.962   6.145  18.603  0.00  0.00    +0.000 A 
ATOM     21  C   UNL     1       3.098   5.818  19.944  0.00  0.00    +0.000 A 
ATOM     22  N   UNL     1       2.014   6.402  20.524  0.00  0.00    +0.000 N 
ATOM     23  C   UNL     1       1.842   7.621  19.927  0.00  0.00    +0.000 A 
ATOM     24  C   UNL     1       1.226   8.775  20.403  0.00  0.00    +0.000 A 
ATOM     25  C   UNL     1       1.180   9.862  19.537  0.00  0.00    +0.000 A 
ATOM     26  C   UNL     1       1.606   9.727  18.215  0.00  0.00    +0.000 A 
ATOM     27  C   UNL     1       2.134   8.512  17.725  0.00  0.00    +0.000 A 
ATOM     28  C   UNL     1       2.339   7.447  18.621  0.00  0.00    +0.000 A 
ATOM     29  H   UNL     1       1.373   5.959  21.163  0.00  0.00    +0.000 HD
ENDBRANCH  19  20
ENDBRANCH  18  19
ENDBRANCH   3  18
TORSDOF 7
ENDMDL
MODEL 6
REMARK VINA RESULT:      -8.2      1.741      3.261
REMARK  Name = 
REMARK  7 active torsions:
REMARK  status: ('A' for Active; 'I' for Inactive)
REMARK    1  A    between atoms: C_2  and  C_3
REMARK    2  A    between atoms: C_4  and  C_5
REMARK    3  A    between atoms: N_11  and  C_12
REMARK    4  A    between atoms: C_12  and  C_13
REMARK    5  A    between atoms: N_15  and  C_16
REMARK    6  A    between atoms: C_16  and  C_17
REMARK    7  A    between atoms: C_17  and  C_18
REMARK                            x       y       z     vdW  Elec       q    Type
REMARK                         _______ _______ _______ _____ _____    ______ ____
ROOT
ATOM      1  C   UNL     1       6.067   4.570  18.262  0.00  0.00    +0.000 C 
ATOM      2  O   UNL     1       5.474   4.849  17.215  0.00  0.00    +0.000 OA
ATOM      3  N   UNL     1       5.472   3.897  19.304  0.00  0.00    +0.000 N 
ATOM      4  H   UNL     1       5.973   3.904  20.183  0.00  0.00    +0.000 HD
ENDROOT
BRANCH   1   5
ATOM      5  C   UNL     1       7.480   5.100  18.561  0.00  0.00    +0.000 C 
BRANCH   5   8
ATOM      6  O   UNL     1       7.542   6.860  16.284  0.00  0.00    +0.000 OA
ATOM      7  C   UNL     1       7.723   7.290  17.418  0.00  0.00    +0.000 C 
ATOM      8  N   UNL     1       7.628   6.553  18.563  0.00  0.00    +0.000 N 
ATOM      9  H   UNL     1       7.718   6.996  19.465  0.00  0.00    +0.000 HD
BRANCH   7  10
ATOM     10  C   UNL     1       8.058   8.729  17.689  0.00  0.00    +0.000 C 
ATOM     11  C   UNL     1       8.820   9.076  18.744  0.00  0.00    +0.000 C 
BRANCH  11  12
ATOM     12  C   UNL     1       9.176  10.465  19.099  0.00  0.00    +0.000 A 
ATOM     13  C   UNL     1       9.507  10.768  20.429  0.00  0.00    +0.000 A 
ATOM     14  C   UNL     1       9.863  12.066  20.806  0.00  0.00    +0.000 A 
ATOM     15  C   UNL     1       9.899  13.073  19.842  0.00  0.00    +0.000 A 
ATOM     16  C   UNL     1       9.597  12.792  18.525  0.00  0.00    +0.000 A 
ATOM     17  C   UNL     1       9.245  11.501  18.150  0.00  0.00    +0.000 A 
ENDBRANCH  11  12
ENDBRANCH   7  10
ENDBRANCH   5   8
ENDBRANCH   1   5
BRANCH   3  18
ATOM     18  C   UNL     1       4.071   3.542  19.328  0.00  0.00    +0.000 C 
BRANCH  18  19
ATOM     19  C   UNL     1       3.152   4.515  20.037  0.00  0.00    +0.000 C 
BRANCH  19  20
ATOM     20  C   UNL     1       2.661   5.748  19.338  0.00  0.00    +0.000 A 
ATOM     21  C   UNL     1       2.688   5.826  17.954  0.00  0.00    +0.000 A 
ATOM     22  N   UNL     1       2.922   7.146  17.716  0.00  0.00    +0.000 N 
ATOM     23  C   UNL     1       2.189   7.859  18.625  0.00  0.00    +0.000 A 
ATOM     24  C   UNL     1       1.700   9.160  18.561  0.00  0.00    +0.000 A 
ATOM     25  C   UNL     1       1.007   9.623  19.674  0.00  0.00    +0.000 A 
ATOM     26  C   UNL     1       0.947   8.852  20.837  0.00  0.00    +0.000 A 
ATOM     27  C   UNL     1       1.540   7.573  20.911  0.00  0.00    +0.000 A 
ATOM     28  C   UNL     1       2.110   7.016  19.751  0.00  0.00    +0.000 A 
ATOM     29  H   UNL     1       3.617   7.520  17.090  0.00  0.00    +0.000 HD
ENDBRANCH  19  20
ENDBRANCH  18  19
ENDBRANCH   3  18
TORSDOF 7
ENDMDL
MODEL 7
REMARK VINA RESULT:      -8.2      2.935      4.235
REMARK  Name = 
REMARK  7 active torsions:
REMARK  status: ('A' for Active; 'I' for Inactive)
REMARK    1  A    between atoms: C_2  and  C_3
REMARK    2  A    between atoms: C_4  and  C_5
REMARK    3  A    between atoms: N_11  and  C_12
REMARK    4  A    between atoms: C_12  and  C_13
REMARK    5  A    between atoms: N_15  and  C_16
REMARK    6  A    between atoms: C_16  and  C_17
REMARK    7  A    between atoms: C_17  and  C_18
REMARK                            x       y       z     vdW  Elec       q    Type
REMARK                         _______ _______ _______ _____ _____    ______ ____
ROOT
ATOM      1  C   UNL     1       4.285   6.293  17.680  0.00  0.00    +0.000 C 
ATOM      2  O   UNL     1       3.806   5.276  18.189  0.00  0.00    +0.000 OA
ATOM      3  N   UNL     1       3.697   7.532  17.784  0.00  0.00    +0.000 N 
ATOM      4  H   UNL     1       4.054   8.249  17.165  0.00  0.00    +0.000 HD
ENDROOT
BRANCH   1   5
ATOM      5  C   UNL     1       5.501   6.235  16.739  0.00  0.00    +0.000 C 
BRANCH   5   8
ATOM      6  O   UNL     1       7.830   6.470  18.415  0.00  0.00    +0.000 OA
ATOM      7  C   UNL     1       7.462   7.405  17.712  0.00  0.00    +0.000 C 
ATOM      8  N   UNL     1       6.426   7.361  16.823  0.00  0.00    +0.000 N 
ATOM      9  H   UNL     1       6.232   8.151  16.225  0.00  0.00    +0.000 HD
BRANCH   7  10
ATOM     10  C   UNL     1       8.146   8.743  17.728  0.00  0.00    +0.000 C 
ATOM     11  C   UNL     1       8.705   9.221  18.856  0.00  0.00    +0.000 C 
BRANCH  11  12
ATOM     12  C   UNL     1       9.373  10.534  18.968  0.00  0.00    +0.000 A 
ATOM     13  C   UNL     1      10.001  10.881  20.174  0.00  0.00    +0.000 A 
ATOM     14  C   UNL     1      10.656  12.108  20.319  0.00  0.00    +0.000 A 
ATOM     15  C   UNL     1      10.695  12.994  19.243  0.00  0.00    +0.000 A 
ATOM     16  C   UNL     1      10.101  12.663  18.043  0.00  0.00    +0.000 A 
ATOM     17  C   UNL     1       9.451  11.444  17.898  0.00  0.00    +0.000 A 
ENDBRANCH  11  12
ENDBRANCH   7  10
ENDBRANCH   5   8
ENDBRANCH   1   5
BRANCH   3  18
ATOM     18  C   UNL     1       2.411   7.756  18.404  0.00  0.00    +0.000 C 
BRANCH  18  19
ATOM     19  C   UNL     1       1.707   9.043  18.025  0.00  0.00    +0.000 C 
BRANCH  19  20
ATOM     20  C   UNL     1       0.714   9.673  18.955  0.00  0.00    +0.000 A 
ATOM     21  C   UNL     1      -0.336  10.426  18.452  0.00  0.00    +0.000 A 
ATOM     22  N   UNL     1      -0.529  11.377  19.406  0.00  0.00    +0.000 N 
ATOM     23  C   UNL     1      -0.385  10.768  20.622  0.00  0.00    +0.000 A 
ATOM     24  C   UNL     1      -0.901  11.115  21.867  0.00  0.00    +0.000 A 
ATOM     25  C   UNL     1      -0.545  10.304  22.939  0.00  0.00    +0.000 A 
ATOM     26  C   UNL     1       0.398   9.289  22.772  0.00  0.00    +0.000 A 
ATOM     27  C   UNL     1       0.985   9.021  21.516  0.00  0.00    +0.000 A 
ATOM     28  C   UNL     1       0.527   9.720  20.385  0.00  0.00    +0.000 A 
ATOM     29  H   UNL     1      -0.612  12.369  19.245  0.00  0.00    +0.000 HD
ENDBRANCH  19  20
ENDBRANCH  18  19
ENDBRANCH   3  18
TORSDOF 7
ENDMDL
MODEL 8
REMARK VINA RESULT:      -8.2      1.574      2.844
REMARK  Name = 
REMARK  7 active torsions:
REMARK  status: ('A' for Active; 'I' for Inactive)
REMARK    1  A    between atoms: C_2  and  C_3
REMARK    2  A    between atoms: C_4  and  C_5
REMARK    3  A    between atoms: N_11  and  C_12
REMARK    4  A    between atoms: C_12  and  C_13
REMARK    5  A    between atoms: N_15  and  C_16
REMARK    6  A    between atoms: C_16  and  C_17
REMARK    7  A    between atoms: C_17  and  C_18
REMARK                            x       y       z     vdW  Elec       q    Type
REMARK                         _______ _______ _______ _____ _____    ______ ____
ROOT
ATOM      1  C   UNL     1       6.119   4.710  18.602  0.00  0.00    +0.000 C 
ATOM      2  O   UNL     1       5.767   3.599  19.009  0.00  0.00    +0.000 OA
ATOM      3  N   UNL     1       5.384   5.446  17.702  0.00  0.00    +0.000 N 
ATOM      4  H   UNL     1       5.856   6.237  17.281  0.00  0.00    +0.000 HD
ENDROOT
BRANCH   1   5
ATOM      5  C   UNL     1       7.500   5.299  18.940  0.00  0.00    +0.000 C 
BRANCH   5   8
ATOM      6  O   UNL     1       7.667   6.809  16.495  0.00  0.00    +0.000 OA
ATOM      7  C   UNL     1       7.778   7.360  17.585  0.00  0.00    +0.000 C 
ATOM      8  N   UNL     1       7.628   6.746  18.796  0.00  0.00    +0.000 N 
ATOM      9  H   UNL     1       7.660   7.284  19.649  0.00  0.00    +0.000 HD
BRANCH   7  10
ATOM     10  C   UNL     1       8.077   8.826  17.720  0.00  0.00    +0.000 C 
ATOM     11  C   UNL     1       8.851   9.287  18.721  0.00  0.00    +0.000 C 
BRANCH  11  12
ATOM     12  C   UNL     1       9.174  10.711  18.943  0.00  0.00    +0.000 A 
ATOM     13  C   UNL     1       8.901  11.641  17.928  0.00  0.00    +0.000 A 
ATOM     14  C   UNL     1       9.178  13.000  18.102  0.00  0.00    +0.000 A 
ATOM     15  C   UNL     1       9.724  13.438  19.308  0.00  0.00    +0.000 A 
ATOM     16  C   UNL     1       9.981  12.543  20.326  0.00  0.00    +0.000 A 
ATOM     17  C   UNL     1       9.704  11.193  20.154  0.00  0.00    +0.000 A 
ENDBRANCH  11  12
ENDBRANCH   7  10
ENDBRANCH   5   8
ENDBRANCH   1   5
BRANCH   3  18
ATOM     18  C   UNL     1       4.185   4.957  17.060  0.00  0.00    +0.000 C 
BRANCH  18  19
ATOM     19  C   UNL     1       2.946   4.895  17.930  0.00  0.00    +0.000 C 
BRANCH  19  20
ATOM     20  C   UNL     1       2.619   6.014  18.873  0.00  0.00    +0.000 A 
ATOM     21  C   UNL     1       2.730   5.830  20.242  0.00  0.00    +0.000 A 
ATOM     22  N   UNL     1       1.738   6.613  20.748  0.00  0.00    +0.000 N 
ATOM     23  C   UNL     1       1.716   7.766  20.012  0.00  0.00    +0.000 A 
ATOM     24  C   UNL     1       1.260   9.038  20.349  0.00  0.00    +0.000 A 
ATOM     25  C   UNL     1       1.342  10.013  19.361  0.00  0.00    +0.000 A 
ATOM     26  C   UNL     1       1.729   9.671  18.065  0.00  0.00    +0.000 A 
ATOM     27  C   UNL     1       2.090   8.350  17.722  0.00  0.00    +0.000 A 
ATOM     28  C   UNL     1       2.169   7.378  18.737  0.00  0.00    +0.000 A 
ATOM     29  H   UNL     1       1.054   6.334  21.434  0.00  0.00    +0.000 HD
ENDBRANCH  19  20
ENDBRANCH  18  19
ENDBRANCH   3  18
TORSDOF 7
ENDMDL
MODEL 9
REMARK VINA RESULT:      -8.1      5.444      8.117
REMARK  Name = 
REMARK  7 active torsions:
REMARK  status: ('A' for Active; 'I' for Inactive)
REMARK    1  A    between atoms: C_2  and  C_3
REMARK    2  A    between atoms: C_4  and  C_5
REMARK    3  A    between atoms: N_11  and  C_12
REMARK    4  A    between atoms: C_12  and  C_13
REMARK    5  A    between atoms: N_15  and  C_16
REMARK    6  A    between atoms: C_16  and  C_17
REMARK    7  A    between atoms: C_17  and  C_18
REMARK                            x       y       z     vdW  Elec       q    Type
REMARK                         _______ _______ _______ _____ _____    ______ ____
ROOT
ATOM      1  C   UNL     1       2.600   4.168  19.442  0.00  0.00    +0.000 C 
ATOM      2  O   UNL     1       1.714   3.649  18.756  0.00  0.00    +0.000 OA
ATOM      3  N   UNL     1       3.935   4.107  19.114  0.00  0.00    +0.000 N 
ATOM      4  H   UNL     1       4.586   4.380  19.839  0.00  0.00    +0.000 HD
ENDROOT
BRANCH   1   5
ATOM      5  C   UNL     1       2.304   4.788  20.818  0.00  0.00    +0.000 C 
BRANCH   5   8
ATOM      6  O   UNL     1       2.943   6.985  19.072  0.00  0.00    +0.000 OA
ATOM      7  C   UNL     1       2.129   7.118  19.979  0.00  0.00    +0.000 C 
ATOM      8  N   UNL     1       1.697   6.117  20.801  0.00  0.00    +0.000 N 
ATOM      9  H   UNL     1       0.968   6.289  21.477  0.00  0.00    +0.000 HD
BRANCH   7  10
ATOM     10  C   UNL     1       1.472   8.433  20.285  0.00  0.00    +0.000 C 
ATOM     11  C   UNL     1       0.823   8.630  21.449  0.00  0.00    +0.000 C 
BRANCH  11  12
ATOM     12  C   UNL     1       0.129   9.879  21.820  0.00  0.00    +0.000 A 
ATOM     13  C   UNL     1       0.253  11.004  20.990  0.00  0.00    +0.000 A 
ATOM     14  C   UNL     1      -0.397  12.203  21.297  0.00  0.00    +0.000 A 
ATOM     15  C   UNL     1      -1.193  12.276  22.441  0.00  0.00    +0.000 A 
ATOM     16  C   UNL     1      -1.345  11.176  23.259  0.00  0.00    +0.000 A 
ATOM     17  C   UNL     1      -0.700   9.984  22.953  0.00  0.00    +0.000 A 
ENDBRANCH  11  12
ENDBRANCH   7  10
ENDBRANCH   5   8
ENDBRANCH   1   5
BRANCH   3  18
ATOM     18  C   UNL     1       4.448   3.346  17.998  0.00  0.00    +0.000 C 
BRANCH  18  19
ATOM     19  C   UNL     1       4.323   3.998  16.636  0.00  0.00    +0.000 C 
BRANCH  19  20
ATOM     20  C   UNL     1       5.543   4.298  15.818  0.00  0.00    +0.000 A 
ATOM     21  C   UNL     1       6.677   4.823  16.418  0.00  0.00    +0.000 A 
ATOM     22  N   UNL     1       7.207   5.619  15.449  0.00  0.00    +0.000 N 
ATOM     23  C   UNL     1       7.064   4.961  14.259  0.00  0.00    +0.000 A 
ATOM     24  C   UNL     1       7.793   5.072  13.078  0.00  0.00    +0.000 A 
ATOM     25  C   UNL     1       7.381   4.280  12.012  0.00  0.00    +0.000 A 
ATOM     26  C   UNL     1       6.206   3.532  12.104  0.00  0.00    +0.000 A 
ATOM     27  C   UNL     1       5.427   3.515  13.281  0.00  0.00    +0.000 A 
ATOM     28  C   UNL     1       5.904   4.180  14.425  0.00  0.00    +0.000 A 
ATOM     29  H   UNL     1       7.509   6.574  15.567  0.00  0.00    +0.000 HD
ENDBRANCH  19  20
ENDBRANCH  18  19
ENDBRANCH   3  18
TORSDOF 7
ENDMDL
