MODEL 1
REMARK VINA RESULT:      -7.3      0.000      0.000
REMARK  Name = 
REMARK  6 active torsions:
REMARK  status: ('A' for Active; 'I' for Inactive)
REMARK    1  A    between atoms: C_1  and  S_2
REMARK    2  A    between atoms: S_2  and  C_3
REMARK    3  A    between atoms: C_6  and  C_7
REMARK    4  A    between atoms: C_10  and  C_11
REMARK    5  A    between atoms: N_16  and  C_17
REMARK    6  A    between atoms: C_17  and  N_18
REMARK                            x       y       z     vdW  Elec       q    Type
REMARK                         _______ _______ _______ _____ _____    ______ ____
ROOT
ATOM      1  C   UNL     1       2.260   5.997  19.983  0.00  0.00    +0.000 C 
ATOM      2  N   UNL     1       1.700   7.105  20.350  0.00  0.00    +0.000 NA
ATOM      3  C   UNL     1       1.945   7.990  19.315  0.00  0.00    +0.000 C 
ATOM      4  C   UNL     1       1.473   9.239  19.187  0.00  0.00    +0.000 C 
ATOM      5  C   UNL     1       2.780   7.366  18.264  0.00  0.00    +0.000 C 
ATOM      6  O   UNL     1       3.255   7.788  17.235  0.00  0.00    +0.000 OA
ATOM      7  N   UNL     1       2.907   6.053  18.733  0.00  0.00    +0.000 N 
ENDROOT
BRANCH   4   8
ATOM      8  C   UNL     1       0.572   9.809  20.183  0.00  0.00    +0.000 A 
ATOM      9  C   UNL     1      -0.433  10.703  19.804  0.00  0.00    +0.000 A 
ATOM     10  C   UNL     1      -1.204  11.341  20.778  0.00  0.00    +0.000 A 
ATOM     11  C   UNL     1      -0.978  11.090  22.137  0.00  0.00    +0.000 A 
ATOM     12  C   UNL     1      -1.742  11.828  23.196  0.00  0.00    +0.000 C 
ATOM     13  C   UNL     1      -0.001  10.159  22.508  0.00  0.00    +0.000 A 
ATOM     14  C   UNL     1       0.770   9.522  21.536  0.00  0.00    +0.000 A 
ENDBRANCH   4   8
BRANCH   1  16
ATOM     15  C   UNL     1       0.880   3.679  20.201  0.00  0.00    +0.000 C 
ATOM     16  S   UNL     1       2.290   4.549  20.911  0.00  0.00    +0.000 S 
ENDBRANCH   1  16
BRANCH   7  17
ATOM     17  C   UNL     1       3.594   5.006  18.040  0.00  0.00    +0.000 C 
BRANCH  17  18
ATOM     18  N   UNL     1       4.972   5.428  17.763  0.00  0.00    +0.000 NA
ATOM     19  C   UNL     1       5.791   5.364  18.984  0.00  0.00    +0.000 C 
ATOM     20  C   UNL     1       7.298   5.490  18.758  0.00  0.00    +0.000 C 
ATOM     21  C   UNL     1       7.783   4.501  17.713  0.00  0.00    +0.000 C 
ATOM     22  C   UNL     1       7.006   4.720  16.427  0.00  0.00    +0.000 C 
ATOM     23  C   UNL     1       5.500   4.604  16.658  0.00  0.00    +0.000 C 
ENDBRANCH  17  18
ENDBRANCH   7  17
TORSDOF 4
ENDMDL
MODEL 2
REMARK VINA RESULT:      -7.2      0.841      1.355
REMARK  Name = 
REMARK  6 active torsions:
REMARK  status: ('A' for Active; 'I' for Inactive)
REMARK    1  A    between atoms: C_1  and  S_2
REMARK    2  A    between atoms: S_2  and  C_3
REMARK    3  A    between atoms: C_6  and  C_7
REMARK    4  A    between atoms: C_10  and  C_11
REMARK    5  A    between atoms: N_16  and  C_17
REMARK    6  A    between atoms: C_17  and  N_18
REMARK                            x       y       z     vdW  Elec       q    Type
REMARK                         _______ _______ _______ _____ _____    ______ ____
ROOT
ATOM      1  C   UNL     1       2.448   5.150  19.842  0.00  0.00    +0.000 C 
ATOM      2  N   UNL     1       1.959   6.280  20.241  0.00  0.00    +0.000 NA
ATOM      3  C   UNL     1       2.321   7.192  19.266  0.00  0.00    +0.000 C 
ATOM      4  C   UNL     1       1.954   8.479  19.183  0.00  0.00    +0.000 C 
ATOM      5  C   UNL     1       3.156   6.555  18.223  0.00  0.00    +0.000 C 
ATOM      6  O   UNL     1       3.713   6.988  17.240  0.00  0.00    +0.000 OA
ATOM      7  N   UNL     1       3.159   5.215  18.627  0.00  0.00    +0.000 N 
ENDROOT
BRANCH   4   8
ATOM      8  C   UNL     1       1.052   9.070  20.166  0.00  0.00    +0.000 A 
ATOM      9  C   UNL     1       0.058   9.968  19.769  0.00  0.00    +0.000 A 
ATOM     10  C   UNL     1      -0.714  10.625  20.730  0.00  0.00    +0.000 A 
ATOM     11  C   UNL     1      -0.499  10.389  22.094  0.00  0.00    +0.000 A 
ATOM     12  C   UNL     1      -1.263  11.147  23.138  0.00  0.00    +0.000 C 
ATOM     13  C   UNL     1       0.467   9.454  22.483  0.00  0.00    +0.000 A 
ATOM     14  C   UNL     1       1.239   8.797  21.524  0.00  0.00    +0.000 A 
ENDBRANCH   4   8
BRANCH   1  16
ATOM     15  C   UNL     1       0.906   2.925  19.851  0.00  0.00    +0.000 C 
ATOM     16  S   UNL     1       2.321   3.660  20.693  0.00  0.00    +0.000 S 
ENDBRANCH   1  16
BRANCH   7  17
ATOM     17  C   UNL     1       3.796   4.152  17.911  0.00  0.00    +0.000 C 
BRANCH  17  18
ATOM     18  N   UNL     1       5.234   4.162  18.204  0.00  0.00    +0.000 NA
ATOM     19  C   UNL     1       6.012   4.409  16.979  0.00  0.00    +0.000 C 
ATOM     20  C   UNL     1       7.487   4.738  17.207  0.00  0.00    +0.000 C 
ATOM     21  C   UNL     1       7.652   5.869  18.206  0.00  0.00    +0.000 C 
ATOM     22  C   UNL     1       6.960   5.488  19.503  0.00  0.00    +0.000 C 
ATOM     23  C   UNL     1       5.487   5.150  19.270  0.00  0.00    +0.000 C 
ENDBRANCH  17  18
ENDBRANCH   7  17
TORSDOF 4
ENDMDL
MODEL 3
REMARK VINA RESULT:      -7.2      0.398      1.077
REMARK  Name = 
REMARK  6 active torsions:
REMARK  status: ('A' for Active; 'I' for Inactive)
REMARK    1  A    between atoms: C_1  and  S_2
REMARK    2  A    between atoms: S_2  and  C_3
REMARK    3  A    between atoms: C_6  and  C_7
REMARK    4  A    between atoms: C_10  and  C_11
REMARK    5  A    between atoms: N_16  and  C_17
REMARK    6  A    between atoms: C_17  and  N_18
REMARK                            x       y       z     vdW  Elec       q    Type
REMARK                         _______ _______ _______ _____ _____    ______ ____
ROOT
ATOM      1  C   UNL     1       2.231   6.377  19.921  0.00  0.00    +0.000 C 
ATOM      2  N   UNL     1       1.717   7.488  20.340  0.00  0.00    +0.000 NA
ATOM      3  C   UNL     1       1.867   8.372  19.286  0.00  0.00    +0.000 C 
ATOM      4  C   UNL     1       1.393   9.624  19.203  0.00  0.00    +0.000 C 
ATOM      5  C   UNL     1       2.593   7.742  18.160  0.00  0.00    +0.000 C 
ATOM      6  O   UNL     1       2.971   8.161  17.090  0.00  0.00    +0.000 OA
ATOM      7  N   UNL     1       2.756   6.429  18.615  0.00  0.00    +0.000 N 
ENDROOT
BRANCH   4   8
ATOM      8  C   UNL     1       0.595  10.199  20.280  0.00  0.00    +0.000 A 
ATOM      9  C   UNL     1       0.683   9.694  21.580  0.00  0.00    +0.000 A 
ATOM     10  C   UNL     1      -0.179  10.165  22.573  0.00  0.00    +0.000 A 
ATOM     11  C   UNL     1      -1.134  11.144  22.276  0.00  0.00    +0.000 A 
ATOM     12  C   UNL     1      -2.120  11.600  23.310  0.00  0.00    +0.000 C 
ATOM     13  C   UNL     1      -1.187  11.679  20.983  0.00  0.00    +0.000 A 
ATOM     14  C   UNL     1      -0.327  11.209  19.990  0.00  0.00    +0.000 A 
ENDBRANCH   4   8
BRANCH   1  16
ATOM     15  C   UNL     1       0.888   4.048  20.239  0.00  0.00    +0.000 C 
ATOM     16  S   UNL     1       2.341   4.928  20.843  0.00  0.00    +0.000 S 
ENDBRANCH   1  16
BRANCH   7  17
ATOM     17  C   UNL     1       3.367   5.377  17.860  0.00  0.00    +0.000 C 
BRANCH  17  18
ATOM     18  N   UNL     1       4.778   5.706  17.620  0.00  0.00    +0.000 NA
ATOM     19  C   UNL     1       5.591   5.404  18.809  0.00  0.00    +0.000 C 
ATOM     20  C   UNL     1       7.102   5.421  18.578  0.00  0.00    +0.000 C 
ATOM     21  C   UNL     1       7.491   4.543  17.403  0.00  0.00    +0.000 C 
ATOM     22  C   UNL     1       6.733   5.002  16.170  0.00  0.00    +0.000 C 
ATOM     23  C   UNL     1       5.223   4.994  16.407  0.00  0.00    +0.000 C 
ENDBRANCH  17  18
ENDBRANCH   7  17
TORSDOF 4
ENDMDL
MODEL 4
REMARK VINA RESULT:      -7.1      2.707      4.372
REMARK  Name = 
REMARK  6 active torsions:
REMARK  status: ('A' for Active; 'I' for Inactive)
REMARK    1  A    between atoms: C_1  and  S_2
REMARK    2  A    between atoms: S_2  and  C_3
REMARK    3  A    between atoms: C_6  and  C_7
REMARK    4  A    between atoms: C_10  and  C_11
REMARK    5  A    between atoms: N_16  and  C_17
REMARK    6  A    between atoms: C_17  and  N_18
REMARK                            x       y       z     vdW  Elec       q    Type
REMARK                         _______ _______ _______ _____ _____    ______ ____
ROOT
ATOM      1  C   UNL     1       5.670   6.584  17.263  0.00  0.00    +0.000 C 
ATOM      2  N   UNL     1       4.638   7.093  17.856  0.00  0.00    +0.000 NA
ATOM      3  C   UNL     1       3.650   6.130  17.744  0.00  0.00    +0.000 C 
ATOM      4  C   UNL     1       2.429   6.153  18.296  0.00  0.00    +0.000 C 
ATOM      5  C   UNL     1       4.123   4.969  16.957  0.00  0.00    +0.000 C 
ATOM      6  O   UNL     1       3.581   3.953  16.588  0.00  0.00    +0.000 OA
ATOM      7  N   UNL     1       5.461   5.302  16.718  0.00  0.00    +0.000 N 
ENDROOT
BRANCH   4   8
ATOM      8  C   UNL     1       2.009   7.260  19.151  0.00  0.00    +0.000 A 
ATOM      9  C   UNL     1       1.803   7.064  20.519  0.00  0.00    +0.000 A 
ATOM     10  C   UNL     1       1.278   8.095  21.300  0.00  0.00    +0.000 A 
ATOM     11  C   UNL     1       0.956   9.329  20.722  0.00  0.00    +0.000 A 
ATOM     12  C   UNL     1       0.316  10.418  21.532  0.00  0.00    +0.000 C 
ATOM     13  C   UNL     1       1.209   9.534  19.361  0.00  0.00    +0.000 A 
ATOM     14  C   UNL     1       1.733   8.505  18.579  0.00  0.00    +0.000 A 
ENDBRANCH   4   8
BRANCH   1  16
ATOM     15  C   UNL     1       8.033   6.801  18.566  0.00  0.00    +0.000 C 
ATOM     16  S   UNL     1       7.191   7.368  17.077  0.00  0.00    +0.000 S 
ENDBRANCH   1  16
BRANCH   7  17
ATOM     17  C   UNL     1       6.395   4.467  16.027  0.00  0.00    +0.000 C 
BRANCH  17  18
ATOM     18  N   UNL     1       6.269   4.689  14.581  0.00  0.00    +0.000 NA
ATOM     19  C   UNL     1       7.546   5.152  14.013  0.00  0.00    +0.000 C 
ATOM     20  C   UNL     1       7.619   5.127  12.486  0.00  0.00    +0.000 C 
ATOM     21  C   UNL     1       7.229   3.767  11.937  0.00  0.00    +0.000 C 
ATOM     22  C   UNL     1       5.839   3.413  12.434  0.00  0.00    +0.000 C 
ATOM     23  C   UNL     1       5.766   3.448  13.960  0.00  0.00    +0.000 C 
ENDBRANCH  17  18
ENDBRANCH   7  17
TORSDOF 4
ENDMDL
MODEL 5
REMARK VINA RESULT:      -7.0      3.271      8.547
REMARK  Name = 
REMARK  6 active torsions:
REMARK  status: ('A' for Active; 'I' for Inactive)
REMARK    1  A    between atoms: C_1  and  S_2
REMARK    2  A    between atoms: S_2  and  C_3
REMARK    3  A    between atoms: C_6  and  C_7
REMARK    4  A    between atoms: C_10  and  C_11
REMARK    5  A    between atoms: N_16  and  C_17
REMARK    6  A    between atoms: C_17  and  N_18
REMARK                            x       y       z     vdW  Elec       q    Type
REMARK                         _______ _______ _______ _____ _____    ______ ____
ROOT
ATOM      1  C   UNL     1       0.481  10.181  19.667  0.00  0.00    +0.000 C 
ATOM      2  N   UNL     1       0.955   8.987  19.504  0.00  0.00    +0.000 NA
ATOM      3  C   UNL     1       1.258   8.544  20.779  0.00  0.00    +0.000 C 
ATOM      4  C   UNL     1       1.680   7.322  21.135  0.00  0.00    +0.000 C 
ATOM      5  C   UNL     1       0.995   9.597  21.787  0.00  0.00    +0.000 C 
ATOM      6  O   UNL     1       1.162   9.647  22.984  0.00  0.00    +0.000 OA
ATOM      7  N   UNL     1       0.442  10.618  21.006  0.00  0.00    +0.000 N 
ENDROOT
BRANCH   4   8
ATOM      8  C   UNL     1       1.843   6.264  20.143  0.00  0.00    +0.000 A 
ATOM      9  C   UNL     1       1.279   5.002  20.350  0.00  0.00    +0.000 A 
ATOM     10  C   UNL     1       1.549   3.962  19.459  0.00  0.00    +0.000 A 
ATOM     11  C   UNL     1       2.383   4.173  18.354  0.00  0.00    +0.000 A 
ATOM     12  C   UNL     1       2.748   3.046  17.435  0.00  0.00    +0.000 C 
ATOM     13  C   UNL     1       2.908   5.451  18.127  0.00  0.00    +0.000 A 
ATOM     14  C   UNL     1       2.639   6.492  19.017  0.00  0.00    +0.000 A 
ENDBRANCH   4   8
BRANCH   1  16
ATOM     15  C   UNL     1      -1.579  10.415  17.927  0.00  0.00    +0.000 C 
ATOM     16  S   UNL     1      -0.039  11.222  18.399  0.00  0.00    +0.000 S 
ENDBRANCH   1  16
BRANCH   7  17
ATOM     17  C   UNL     1      -0.042  11.863  21.521  0.00  0.00    +0.000 C 
BRANCH  17  18
ATOM     18  N   UNL     1      -1.476  11.744  21.815  0.00  0.00    +0.000 NA
ATOM     19  C   UNL     1      -1.733  11.966  23.247  0.00  0.00    +0.000 C 
ATOM     20  C   UNL     1      -3.203  12.164  23.615  0.00  0.00    +0.000 C 
ATOM     21  C   UNL     1      -3.845  13.243  22.762  0.00  0.00    +0.000 C 
ATOM     22  C   UNL     1      -3.682  12.879  21.297  0.00  0.00    +0.000 C 
ATOM     23  C   UNL     1      -2.211  12.672  20.935  0.00  0.00    +0.000 C 
ENDBRANCH  17  18
ENDBRANCH   7  17
TORSDOF 4
ENDMDL
MODEL 6
REMARK VINA RESULT:      -7.0      1.096      1.133
REMARK  Name = 
REMARK  6 active torsions:
REMARK  status: ('A' for Active; 'I' for Inactive)
REMARK    1  A    between atoms: C_1  and  S_2
REMARK    2  A    between atoms: S_2  and  C_3
REMARK    3  A    between atoms: C_6  and  C_7
REMARK    4  A    between atoms: C_10  and  C_11
REMARK    5  A    between atoms: N_16  and  C_17
REMARK    6  A    between atoms: C_17  and  N_18
REMARK                            x       y       z     vdW  Elec       q    Type
REMARK                         _______ _______ _______ _____ _____    ______ ____
ROOT
ATOM      1  C   UNL     1       2.296   6.485  19.673  0.00  0.00    +0.000 C 
ATOM      2  N   UNL     1       1.723   7.641  19.777  0.00  0.00    +0.000 NA
ATOM      3  C   UNL     1       2.065   8.316  18.618  0.00  0.00    +0.000 C 
ATOM      4  C   UNL     1       1.623   9.517  18.219  0.00  0.00    +0.000 C 
ATOM      5  C   UNL     1       2.976   7.506  17.778  0.00  0.00    +0.000 C 
ATOM      6  O   UNL     1       3.542   7.728  16.732  0.00  0.00    +0.000 OA
ATOM      7  N   UNL     1       3.046   6.306  18.494  0.00  0.00    +0.000 N 
ENDROOT
BRANCH   4   8
ATOM      8  C   UNL     1       0.650  10.263  19.010  0.00  0.00    +0.000 A 
ATOM      9  C   UNL     1      -0.696  10.297  18.634  0.00  0.00    +0.000 A 
ATOM     10  C   UNL     1      -1.592  11.117  19.323  0.00  0.00    +0.000 A 
ATOM     11  C   UNL     1      -1.152  11.908  20.391  0.00  0.00    +0.000 A 
ATOM     12  C   UNL     1      -2.084  12.854  21.087  0.00  0.00    +0.000 C 
ATOM     13  C   UNL     1       0.187  11.834  20.791  0.00  0.00    +0.000 A 
ATOM     14  C   UNL     1       1.084  11.016  20.104  0.00  0.00    +0.000 A 
ENDBRANCH   4   8
BRANCH   1  16
ATOM     15  C   UNL     1       0.934   4.196  20.157  0.00  0.00    +0.000 C 
ATOM     16  S   UNL     1       2.229   5.237  20.856  0.00  0.00    +0.000 S 
ENDBRANCH   1  16
BRANCH   7  17
ATOM     17  C   UNL     1       3.774   5.148  18.070  0.00  0.00    +0.000 C 
BRANCH  17  18
ATOM     18  N   UNL     1       5.171   5.519  17.813  0.00  0.00    +0.000 NA
ATOM     19  C   UNL     1       5.959   5.466  19.055  0.00  0.00    +0.000 C 
ATOM     20  C   UNL     1       7.474   5.538  18.861  0.00  0.00    +0.000 C 
ATOM     21  C   UNL     1       7.951   4.503  17.858  0.00  0.00    +0.000 C 
ATOM     22  C   UNL     1       7.211   4.707  16.548  0.00  0.00    +0.000 C 
ATOM     23  C   UNL     1       5.697   4.645  16.746  0.00  0.00    +0.000 C 
ENDBRANCH  17  18
ENDBRANCH   7  17
TORSDOF 4
ENDMDL
MODEL 7
REMARK VINA RESULT:      -7.0      3.235      8.456
REMARK  Name = 
REMARK  6 active torsions:
REMARK  status: ('A' for Active; 'I' for Inactive)
REMARK    1  A    between atoms: C_1  and  S_2
REMARK    2  A    between atoms: S_2  and  C_3
REMARK    3  A    between atoms: C_6  and  C_7
REMARK    4  A    between atoms: C_10  and  C_11
REMARK    5  A    between atoms: N_16  and  C_17
REMARK    6  A    between atoms: C_17  and  N_18
REMARK                            x       y       z     vdW  Elec       q    Type
REMARK                         _______ _______ _______ _____ _____    ______ ____
ROOT
ATOM      1  C   UNL     1       0.668  10.104  19.651  0.00  0.00    +0.000 C 
ATOM      2  N   UNL     1       1.151   8.907  19.553  0.00  0.00    +0.000 NA
ATOM      3  C   UNL     1       1.343   8.491  20.859  0.00  0.00    +0.000 C 
ATOM      4  C   UNL     1       1.731   7.276  21.274  0.00  0.00    +0.000 C 
ATOM      5  C   UNL     1       0.999   9.564  21.818  0.00  0.00    +0.000 C 
ATOM      6  O   UNL     1       1.065   9.640  23.023  0.00  0.00    +0.000 OA
ATOM      7  N   UNL     1       0.517  10.569  20.972  0.00  0.00    +0.000 N 
ENDROOT
BRANCH   4   8
ATOM      8  C   UNL     1       1.973   6.197  20.322  0.00  0.00    +0.000 A 
ATOM      9  C   UNL     1       2.814   6.392  19.224  0.00  0.00    +0.000 A 
ATOM     10  C   UNL     1       2.936   5.397  18.251  0.00  0.00    +0.000 A 
ATOM     11  C   UNL     1       2.219   4.200  18.369  0.00  0.00    +0.000 A 
ATOM     12  C   UNL     1       2.276   3.157  17.293  0.00  0.00    +0.000 C 
ATOM     13  C   UNL     1       1.414   3.992  19.495  0.00  0.00    +0.000 A 
ATOM     14  C   UNL     1       1.291   4.985  20.467  0.00  0.00    +0.000 A 
ENDBRANCH   4   8
BRANCH   1  16
ATOM     15  C   UNL     1      -1.328  10.413  17.849  0.00  0.00    +0.000 C 
ATOM     16  S   UNL     1       0.261  11.118  18.322  0.00  0.00    +0.000 S 
ENDBRANCH   1  16
BRANCH   7  17
ATOM     17  C   UNL     1      -0.005  11.826  21.418  0.00  0.00    +0.000 C 
BRANCH  17  18
ATOM     18  N   UNL     1      -1.432  11.677  21.728  0.00  0.00    +0.000 NA
ATOM     19  C   UNL     1      -1.681  11.918  23.159  0.00  0.00    +0.000 C 
ATOM     20  C   UNL     1      -3.152  12.086  23.539  0.00  0.00    +0.000 C 
ATOM     21  C   UNL     1      -3.828  13.135  22.675  0.00  0.00    +0.000 C 
ATOM     22  C   UNL     1      -3.670  12.750  21.214  0.00  0.00    +0.000 C 
ATOM     23  C   UNL     1      -2.199  12.572  20.840  0.00  0.00    +0.000 C 
ENDBRANCH  17  18
ENDBRANCH   7  17
TORSDOF 4
ENDMDL
MODEL 8
REMARK VINA RESULT:      -7.0      1.197      1.470
REMARK  Name = 
REMARK  6 active torsions:
REMARK  status: ('A' for Active; 'I' for Inactive)
REMARK    1  A    between atoms: C_1  and  S_2
REMARK    2  A    between atoms: S_2  and  C_3
REMARK    3  A    between atoms: C_6  and  C_7
REMARK    4  A    between atoms: C_10  and  C_11
REMARK    5  A    between atoms: N_16  and  C_17
REMARK    6  A    between atoms: C_17  and  N_18
REMARK                            x       y       z     vdW  Elec       q    Type
REMARK                         _______ _______ _______ _____ _____    ______ ____
ROOT
ATOM      1  C   UNL     1       2.327   6.620  19.616  0.00  0.00    +0.000 C 
ATOM      2  N   UNL     1       1.774   7.790  19.645  0.00  0.00    +0.000 NA
ATOM      3  C   UNL     1       2.151   8.393  18.457  0.00  0.00    +0.000 C 
ATOM      4  C   UNL     1       1.740   9.578  17.983  0.00  0.00    +0.000 C 
ATOM      5  C   UNL     1       3.062   7.521  17.681  0.00  0.00    +0.000 C 
ATOM      6  O   UNL     1       3.651   7.674  16.636  0.00  0.00    +0.000 OA
ATOM      7  N   UNL     1       3.095   6.362  18.464  0.00  0.00    +0.000 N 
ENDROOT
BRANCH   4   8
ATOM      8  C   UNL     1       0.766  10.384  18.713  0.00  0.00    +0.000 A 
ATOM      9  C   UNL     1       1.169  11.195  19.777  0.00  0.00    +0.000 A 
ATOM     10  C   UNL     1       0.213  11.859  20.549  0.00  0.00    +0.000 A 
ATOM     11  C   UNL     1      -1.151  11.719  20.264  0.00  0.00    +0.000 A 
ATOM     12  C   UNL     1      -2.191  12.360  21.132  0.00  0.00    +0.000 C 
ATOM     13  C   UNL     1      -1.545  10.942  19.168  0.00  0.00    +0.000 A 
ATOM     14  C   UNL     1      -0.591  10.278  18.396  0.00  0.00    +0.000 A 
ENDBRANCH   4   8
BRANCH   1  16
ATOM     15  C   UNL     1       0.971   4.341  20.161  0.00  0.00    +0.000 C 
ATOM     16  S   UNL     1       2.213   5.441  20.865  0.00  0.00    +0.000 S 
ENDBRANCH   1  16
BRANCH   7  17
ATOM     17  C   UNL     1       3.808   5.169  18.119  0.00  0.00    +0.000 C 
BRANCH  17  18
ATOM     18  N   UNL     1       5.203   5.508  17.810  0.00  0.00    +0.000 NA
ATOM     19  C   UNL     1       6.024   5.491  19.032  0.00  0.00    +0.000 C 
ATOM     20  C   UNL     1       7.534   5.532  18.795  0.00  0.00    +0.000 C 
ATOM     21  C   UNL     1       7.968   4.453  17.820  0.00  0.00    +0.000 C 
ATOM     22  C   UNL     1       7.196   4.618  16.523  0.00  0.00    +0.000 C 
ATOM     23  C   UNL     1       5.687   4.587  16.764  0.00  0.00    +0.000 C 
ENDBRANCH  17  18
ENDBRANCH   7  17
TORSDOF 4
ENDMDL
MODEL 9
REMARK VINA RESULT:      -7.0      4.598      9.394
REMARK  Name = 
REMARK  6 active torsions:
REMARK  status: ('A' for Active; 'I' for Inactive)
REMARK    1  A    between atoms: C_1  and  S_2
REMARK    2  A    between atoms: S_2  and  C_3
REMARK    3  A    between atoms: C_6  and  C_7
REMARK    4  A    between atoms: C_10  and  C_11
REMARK    5  A    between atoms: N_16  and  C_17
REMARK    6  A    between atoms: C_17  and  N_18
REMARK                            x       y       z     vdW  Elec       q    Type
REMARK                         _______ _______ _______ _____ _____    ______ ____
ROOT
ATOM      1  C   UNL     1      -2.505  10.323  17.566  0.00  0.00    +0.000 C 
ATOM      2  N   UNL     1      -1.311   9.884  17.802  0.00  0.00    +0.000 NA
ATOM      3  C   UNL     1      -0.820  10.701  18.805  0.00  0.00    +0.000 C 
ATOM      4  C   UNL     1       0.343  10.574  19.459  0.00  0.00    +0.000 C 
ATOM      5  C   UNL     1      -1.792  11.763  19.152  0.00  0.00    +0.000 C 
ATOM      6  O   UNL     1      -1.750  12.695  19.921  0.00  0.00    +0.000 OA
ATOM      7  N   UNL     1      -2.888  11.430  18.348  0.00  0.00    +0.000 N 
ENDROOT
BRANCH   4   8
ATOM      8  C   UNL     1       1.250   9.466  19.175  0.00  0.00    +0.000 A 
ATOM      9  C   UNL     1       1.905   9.381  17.943  0.00  0.00    +0.000 A 
ATOM     10  C   UNL     1       2.666   8.252  17.634  0.00  0.00    +0.000 A 
ATOM     11  C   UNL     1       2.779   7.200  18.552  0.00  0.00    +0.000 A 
ATOM     12  C   UNL     1       3.525   5.948  18.202  0.00  0.00    +0.000 C 
ATOM     13  C   UNL     1       2.158   7.312  19.801  0.00  0.00    +0.000 A 
ATOM     14  C   UNL     1       1.397   8.439  20.111  0.00  0.00    +0.000 A 
ENDBRANCH   4   8
BRANCH   1  16
ATOM     15  C   UNL     1      -3.097  10.668  14.947  0.00  0.00    +0.000 C 
ATOM     16  S   UNL     1      -3.577   9.686  16.380  0.00  0.00    +0.000 S 
ENDBRANCH   1  16
BRANCH   7  17
ATOM     17  C   UNL     1      -4.138  12.129  18.347  0.00  0.00    +0.000 C 
BRANCH  17  18
ATOM     18  N   UNL     1      -4.959  11.660  19.470  0.00  0.00    +0.000 NA
ATOM     19  C   UNL     1      -5.249  12.765  20.399  0.00  0.00    +0.000 C 
ATOM     20  C   UNL     1      -6.334  12.468  21.434  0.00  0.00    +0.000 C 
ATOM     21  C   UNL     1      -7.600  11.951  20.774  0.00  0.00    +0.000 C 
ATOM     22  C   UNL     1      -7.262  10.719  19.953  0.00  0.00    +0.000 C 
ATOM     23  C   UNL     1      -6.170  11.016  18.926  0.00  0.00    +0.000 C 
ENDBRANCH  17  18
ENDBRANCH   7  17
TORSDOF 4
ENDMDL
