MODEL 1
REMARK VINA RESULT:      -8.3      0.000      0.000
REMARK  Name = 
REMARK  5 active torsions:
REMARK  status: ('A' for Active; 'I' for Inactive)
REMARK    1  A    between atoms: C_5  and  C_6
REMARK    2  A    between atoms: C_6  and  N_7
REMARK    3  A    between atoms: C_12  and  C_13
REMARK    4  A    between atoms: C_15  and  N_16
REMARK    5  A    between atoms: N_16  and  C_17
REMARK                            x       y       z     vdW  Elec       q    Type
REMARK                         _______ _______ _______ _____ _____    ______ ____
ROOT
ATOM      1  N   UNL     1       2.653   7.261  18.079  0.00  0.00    +0.000 N 
ATOM      2  C   UNL     1       1.979   7.887  19.124  0.00  0.00    +0.000 A 
ATOM      3  C   UNL     1       1.968   7.373  20.416  0.00  0.00    +0.000 A 
ATOM      4  C   UNL     1       1.260   8.032  21.408  0.00  0.00    +0.000 A 
ATOM      5  C   UNL     1       0.614   9.220  21.099  0.00  0.00    +0.000 A 
ATOM      6  C   UNL     1       0.722   9.746  19.811  0.00  0.00    +0.000 A 
ATOM      7  N   UNL     1       1.372   9.061  18.825  0.00  0.00    +0.000 NA
ATOM      8  H   UNL     1       2.337   7.684  17.210  0.00  0.00    +0.000 HD
ENDROOT
BRANCH   6   9
ATOM      9  C   UNL     1       0.084  11.033  19.418  0.00  0.00    +0.000 A 
ATOM     10  C   UNL     1      -1.113  11.012  18.669  0.00  0.00    +0.000 A 
ATOM     11  C   UNL     1      -1.840  12.177  18.408  0.00  0.00    +0.000 A 
ATOM     12  N   UNL     1      -1.402  13.377  18.825  0.00  0.00    +0.000 NA
ATOM     13  C   UNL     1      -0.204  13.417  19.454  0.00  0.00    +0.000 A 
ATOM     14  C   UNL     1       0.566  12.302  19.770  0.00  0.00    +0.000 A 
ATOM     15 CL   UNL     1       2.091  12.593  20.534  0.00  0.00    +0.000 Cl
BRANCH  11  16
ATOM     16  N   UNL     1      -3.037  12.054  17.696  0.00  0.00    +0.000 N 
ATOM     17  H   UNL     1      -3.262  12.943  17.254  0.00  0.00    +0.000 HD
BRANCH  16  18
ATOM     18  C   UNL     1      -4.200  11.471  18.380  0.00  0.00    +0.000 C 
ATOM     19  C   UNL     1      -5.339  11.373  17.346  0.00  0.00    +0.000 C 
ATOM     20  C   UNL     1      -5.987  12.729  17.054  0.00  0.00    +0.000 C 
ATOM     21  C   UNL     1      -6.396  13.455  18.331  0.00  0.00    +0.000 C 
ATOM     22  N   UNL     1      -5.271  13.596  19.255  0.00  0.00    +0.000 NA
ATOM     23  C   UNL     1      -4.690  12.285  19.600  0.00  0.00    +0.000 C 
ATOM     24  H   UNL     1      -5.606  14.034  20.116  0.00  0.00    +0.000 HD
ENDBRANCH  16  18
ENDBRANCH  11  16
ENDBRANCH   6   9
BRANCH   1  25
ATOM     25  C   UNL     1       2.765   5.813  18.085  0.00  0.00    +0.000 C 
BRANCH  25  30
ATOM     26  F   UNL     1       8.204   4.312  17.639  0.00  0.00    +0.000 F 
ATOM     27  C   UNL     1       6.909   4.641  17.748  0.00  0.00    +0.000 A 
ATOM     28  C   UNL     1       6.048   4.390  16.686  0.00  0.00    +0.000 A 
ATOM     29  C   UNL     1       4.697   4.744  16.790  0.00  0.00    +0.000 A 
ATOM     30  C   UNL     1       4.196   5.331  17.965  0.00  0.00    +0.000 A 
ATOM     31  C   UNL     1       5.092   5.594  19.018  0.00  0.00    +0.000 A 
ATOM     32  C   UNL     1       6.436   5.244  18.905  0.00  0.00    +0.000 A 
ATOM     33  F   UNL     1       7.270   5.513  19.918  0.00  0.00    +0.000 F 
ENDBRANCH  25  30
ENDBRANCH   1  25
TORSDOF 5
ENDMDL
MODEL 2
REMARK VINA RESULT:      -8.2      5.023     10.717
REMARK  Name = 
REMARK  5 active torsions:
REMARK  status: ('A' for Active; 'I' for Inactive)
REMARK    1  A    between atoms: C_5  and  C_6
REMARK    2  A    between atoms: C_6  and  N_7
REMARK    3  A    between atoms: C_12  and  C_13
REMARK    4  A    between atoms: C_15  and  N_16
REMARK    5  A    between atoms: N_16  and  C_17
REMARK                            x       y       z     vdW  Elec       q    Type
REMARK                         _______ _______ _______ _____ _____    ______ ____
ROOT
ATOM      1  N   UNL     1       2.225   7.392  19.971  0.00  0.00    +0.000 N 
ATOM      2  C   UNL     1       2.525   6.072  19.647  0.00  0.00    +0.000 A 
ATOM      3  C   UNL     1       1.717   5.009  20.036  0.00  0.00    +0.000 A 
ATOM      4  C   UNL     1       2.082   3.714  19.700  0.00  0.00    +0.000 A 
ATOM      5  C   UNL     1       3.225   3.513  18.939  0.00  0.00    +0.000 A 
ATOM      6  C   UNL     1       3.960   4.613  18.497  0.00  0.00    +0.000 A 
ATOM      7  N   UNL     1       3.627   5.880  18.882  0.00  0.00    +0.000 NA
ATOM      8  H   UNL     1       3.053   7.952  19.784  0.00  0.00    +0.000 HD
ENDROOT
BRANCH   6   9
ATOM      9  C   UNL     1       5.176   4.472  17.650  0.00  0.00    +0.000 A 
ATOM     10  C   UNL     1       5.082   3.798  16.412  0.00  0.00    +0.000 A 
ATOM     11  C   UNL     1       6.145   3.772  15.504  0.00  0.00    +0.000 A 
ATOM     12  N   UNL     1       7.321   4.353  15.796  0.00  0.00    +0.000 NA
ATOM     13  C   UNL     1       7.452   4.911  17.021  0.00  0.00    +0.000 A 
ATOM     14  C   UNL     1       6.436   4.998  17.968  0.00  0.00    +0.000 A 
ATOM     15 CL   UNL     1       6.843   5.711  19.492  0.00  0.00    +0.000 Cl
BRANCH  11  16
ATOM     16  N   UNL     1       5.945   3.119  14.284  0.00  0.00    +0.000 N 
ATOM     17  H   UNL     1       6.547   2.298  14.236  0.00  0.00    +0.000 HD
BRANCH  16  18
ATOM     18  C   UNL     1       6.000   3.913  13.049  0.00  0.00    +0.000 C 
ATOM     19  C   UNL     1       4.861   3.420  12.135  0.00  0.00    +0.000 C 
ATOM     20  C   UNL     1       5.177   2.075  11.476  0.00  0.00    +0.000 C 
ATOM     21  C   UNL     1       6.539   2.079  10.790  0.00  0.00    +0.000 C 
ATOM     22  N   UNL     1       7.604   2.479  11.708  0.00  0.00    +0.000 NA
ATOM     23  C   UNL     1       7.343   3.809  12.289  0.00  0.00    +0.000 C 
ATOM     24  H   UNL     1       8.484   2.524  11.191  0.00  0.00    +0.000 HD
ENDBRANCH  16  18
ENDBRANCH  11  16
ENDBRANCH   6   9
BRANCH   1  25
ATOM     25  C   UNL     1       1.533   7.668  21.217  0.00  0.00    +0.000 C 
BRANCH  25  30
ATOM     26  F   UNL     1      -1.603  12.379  21.170  0.00  0.00    +0.000 F 
ATOM     27  C   UNL     1      -0.838  11.278  21.180  0.00  0.00    +0.000 A 
ATOM     28  C   UNL     1      -0.226  10.860  20.004  0.00  0.00    +0.000 A 
ATOM     29  C   UNL     1       0.564   9.704  20.006  0.00  0.00    +0.000 A 
ATOM     30  C   UNL     1       0.763   8.972  21.190  0.00  0.00    +0.000 A 
ATOM     31  C   UNL     1       0.117   9.404  22.362  0.00  0.00    +0.000 A 
ATOM     32  C   UNL     1      -0.672  10.552  22.350  0.00  0.00    +0.000 A 
ATOM     33  F   UNL     1      -1.285  10.937  23.478  0.00  0.00    +0.000 F 
ENDBRANCH  25  30
ENDBRANCH   1  25
TORSDOF 5
ENDMDL
MODEL 3
REMARK VINA RESULT:      -8.1      3.373      4.351
REMARK  Name = 
REMARK  5 active torsions:
REMARK  status: ('A' for Active; 'I' for Inactive)
REMARK    1  A    between atoms: C_5  and  C_6
REMARK    2  A    between atoms: C_6  and  N_7
REMARK    3  A    between atoms: C_12  and  C_13
REMARK    4  A    between atoms: C_15  and  N_16
REMARK    5  A    between atoms: N_16  and  C_17
REMARK                            x       y       z     vdW  Elec       q    Type
REMARK                         _______ _______ _______ _____ _____    ______ ____
ROOT
ATOM      1  N   UNL     1       1.662   7.277  20.583  0.00  0.00    +0.000 N 
ATOM      2  C   UNL     1       1.557   8.462  19.861  0.00  0.00    +0.000 A 
ATOM      3  C   UNL     1       1.924   8.554  18.523  0.00  0.00    +0.000 A 
ATOM      4  C   UNL     1       1.816   9.770  17.866  0.00  0.00    +0.000 A 
ATOM      5  C   UNL     1       1.296  10.860  18.548  0.00  0.00    +0.000 A 
ATOM      6  C   UNL     1       0.859  10.704  19.864  0.00  0.00    +0.000 A 
ATOM      7  N   UNL     1       1.024   9.519  20.522  0.00  0.00    +0.000 NA
ATOM      8  H   UNL     1       1.556   7.504  21.569  0.00  0.00    +0.000 HD
ENDROOT
BRANCH   6   9
ATOM      9  C   UNL     1       0.260  11.821  20.644  0.00  0.00    +0.000 A 
ATOM     10  C   UNL     1      -1.073  11.711  21.098  0.00  0.00    +0.000 A 
ATOM     11  C   UNL     1      -1.637  12.651  21.966  0.00  0.00    +0.000 A 
ATOM     12  N   UNL     1      -0.942  13.729  22.367  0.00  0.00    +0.000 NA
ATOM     13  C   UNL     1       0.299  13.895  21.854  0.00  0.00    +0.000 A 
ATOM     14  C   UNL     1       0.937  12.994  21.006  0.00  0.00    +0.000 A 
ATOM     15 CL   UNL     1       2.508  13.436  20.431  0.00  0.00    +0.000 Cl
BRANCH  11  16
ATOM     16  N   UNL     1      -2.948  12.436  22.399  0.00  0.00    +0.000 N 
ATOM     17  H   UNL     1      -3.458  11.912  21.690  0.00  0.00    +0.000 HD
BRANCH  16  18
ATOM     18  C   UNL     1      -3.719  13.585  22.893  0.00  0.00    +0.000 C 
ATOM     19  C   UNL     1      -3.813  13.450  24.425  0.00  0.00    +0.000 C 
ATOM     20  C   UNL     1      -4.820  12.383  24.861  0.00  0.00    +0.000 C 
ATOM     21  C   UNL     1      -6.177  12.567  24.189  0.00  0.00    +0.000 C 
ATOM     22  N   UNL     1      -6.055  12.614  22.733  0.00  0.00    +0.000 NA
ATOM     23  C   UNL     1      -5.145  13.691  22.303  0.00  0.00    +0.000 C 
ATOM     24  H   UNL     1      -6.978  12.796  22.332  0.00  0.00    +0.000 HD
ENDBRANCH  16  18
ENDBRANCH  11  16
ENDBRANCH   6   9
BRANCH   1  25
ATOM     25  C   UNL     1       2.726   6.346  20.251  0.00  0.00    +0.000 C 
BRANCH  25  30
ATOM     26  F   UNL     1       0.634   1.444  18.349  0.00  0.00    +0.000 F 
ATOM     27  C   UNL     1       1.146   2.591  18.816  0.00  0.00    +0.000 A 
ATOM     28  C   UNL     1       0.783   3.037  20.082  0.00  0.00    +0.000 A 
ATOM     29  C   UNL     1       1.305   4.241  20.569  0.00  0.00    +0.000 A 
ATOM     30  C   UNL     1       2.210   4.995  19.801  0.00  0.00    +0.000 A 
ATOM     31  C   UNL     1       2.546   4.533  18.516  0.00  0.00    +0.000 A 
ATOM     32  C   UNL     1       2.018   3.337  18.035  0.00  0.00    +0.000 A 
ATOM     33  F   UNL     1       2.346   2.923  16.804  0.00  0.00    +0.000 F 
ENDBRANCH  25  30
ENDBRANCH   1  25
TORSDOF 5
ENDMDL
MODEL 4
REMARK VINA RESULT:      -8.1      4.463      7.256
REMARK  Name = 
REMARK  5 active torsions:
REMARK  status: ('A' for Active; 'I' for Inactive)
REMARK    1  A    between atoms: C_5  and  C_6
REMARK    2  A    between atoms: C_6  and  N_7
REMARK    3  A    between atoms: C_12  and  C_13
REMARK    4  A    between atoms: C_15  and  N_16
REMARK    5  A    between atoms: N_16  and  C_17
REMARK                            x       y       z     vdW  Elec       q    Type
REMARK                         _______ _______ _______ _____ _____    ______ ____
ROOT
ATOM      1  N   UNL     1       5.733   5.790  15.227  0.00  0.00    +0.000 N 
ATOM      2  C   UNL     1       5.972   5.662  16.591  0.00  0.00    +0.000 A 
ATOM      3  C   UNL     1       7.238   5.827  17.144  0.00  0.00    +0.000 A 
ATOM      4  C   UNL     1       7.414   5.664  18.509  0.00  0.00    +0.000 A 
ATOM      5  C   UNL     1       6.311   5.385  19.303  0.00  0.00    +0.000 A 
ATOM      6  C   UNL     1       5.045   5.312  18.720  0.00  0.00    +0.000 A 
ATOM      7  N   UNL     1       4.889   5.416  17.368  0.00  0.00    +0.000 NA
ATOM      8  H   UNL     1       4.809   5.411  15.037  0.00  0.00    +0.000 HD
ENDROOT
BRANCH   6   9
ATOM      9  C   UNL     1       3.814   5.051  19.515  0.00  0.00    +0.000 A 
ATOM     10  C   UNL     1       2.979   6.133  19.872  0.00  0.00    +0.000 A 
ATOM     11  C   UNL     1       1.734   5.934  20.477  0.00  0.00    +0.000 A 
ATOM     12  N   UNL     1       1.302   4.701  20.787  0.00  0.00    +0.000 NA
ATOM     13  C   UNL     1       2.140   3.668  20.541  0.00  0.00    +0.000 A 
ATOM     14  C   UNL     1       3.382   3.781  19.922  0.00  0.00    +0.000 A 
ATOM     15 CL   UNL     1       4.310   2.331  19.755  0.00  0.00    +0.000 Cl
BRANCH  11  16
ATOM     16  N   UNL     1       0.956   7.063  20.754  0.00  0.00    +0.000 N 
ATOM     17  H   UNL     1       0.122   7.052  20.168  0.00  0.00    +0.000 HD
BRANCH  16  18
ATOM     18  C   UNL     1       1.608   8.378  20.756  0.00  0.00    +0.000 C 
ATOM     19  C   UNL     1       1.430   8.977  22.166  0.00  0.00    +0.000 C 
ATOM     20  C   UNL     1       0.012   9.501  22.407  0.00  0.00    +0.000 C 
ATOM     21  C   UNL     1      -0.450  10.435  21.294  0.00  0.00    +0.000 C 
ATOM     22  N   UNL     1      -0.337   9.806  19.980  0.00  0.00    +0.000 NA
ATOM     23  C   UNL     1       1.044   9.367  19.709  0.00  0.00    +0.000 C 
ATOM     24  H   UNL     1      -0.602  10.487  19.265  0.00  0.00    +0.000 HD
ENDBRANCH  16  18
ENDBRANCH  11  16
ENDBRANCH   6   9
BRANCH   1  25
ATOM     25  C   UNL     1       6.782   5.420  14.293  0.00  0.00    +0.000 C 
BRANCH  25  30
ATOM     26  F   UNL     1       5.347   1.411  10.566  0.00  0.00    +0.000 F 
ATOM     27  C   UNL     1       5.682   2.343  11.469  0.00  0.00    +0.000 A 
ATOM     28  C   UNL     1       4.687   2.956  12.220  0.00  0.00    +0.000 A 
ATOM     29  C   UNL     1       5.031   3.939  13.156  0.00  0.00    +0.000 A 
ATOM     30  C   UNL     1       6.375   4.298  13.360  0.00  0.00    +0.000 A 
ATOM     31  C   UNL     1       7.361   3.678  12.573  0.00  0.00    +0.000 A 
ATOM     32  C   UNL     1       7.011   2.704  11.640  0.00  0.00    +0.000 A 
ATOM     33  F   UNL     1       7.969   2.135  10.896  0.00  0.00    +0.000 F 
ENDBRANCH  25  30
ENDBRANCH   1  25
TORSDOF 5
ENDMDL
MODEL 5
REMARK VINA RESULT:      -7.9      2.930      4.387
REMARK  Name = 
REMARK  5 active torsions:
REMARK  status: ('A' for Active; 'I' for Inactive)
REMARK    1  A    between atoms: C_5  and  C_6
REMARK    2  A    between atoms: C_6  and  N_7
REMARK    3  A    between atoms: C_12  and  C_13
REMARK    4  A    between atoms: C_15  and  N_16
REMARK    5  A    between atoms: N_16  and  C_17
REMARK                            x       y       z     vdW  Elec       q    Type
REMARK                         _______ _______ _______ _____ _____    ______ ____
ROOT
ATOM      1  N   UNL     1       1.217   8.764  17.805  0.00  0.00    +0.000 N 
ATOM      2  C   UNL     1       0.736  10.017  18.168  0.00  0.00    +0.000 A 
ATOM      3  C   UNL     1       1.577  11.052  18.563  0.00  0.00    +0.000 A 
ATOM      4  C   UNL     1       1.033  12.272  18.934  0.00  0.00    +0.000 A 
ATOM      5  C   UNL     1      -0.341  12.448  18.856  0.00  0.00    +0.000 A 
ATOM      6  C   UNL     1      -1.141  11.412  18.374  0.00  0.00    +0.000 A 
ATOM      7  N   UNL     1      -0.604  10.196  18.067  0.00  0.00    +0.000 NA
ATOM      8  H   UNL     1       0.427   8.124  17.778  0.00  0.00    +0.000 HD
ENDROOT
BRANCH   6   9
ATOM      9  C   UNL     1      -2.617  11.544  18.232  0.00  0.00    +0.000 A 
ATOM     10  C   UNL     1      -3.394  11.873  19.365  0.00  0.00    +0.000 A 
ATOM     11  C   UNL     1      -4.758  12.166  19.264  0.00  0.00    +0.000 A 
ATOM     12  N   UNL     1      -5.396  12.100  18.084  0.00  0.00    +0.000 NA
ATOM     13  C   UNL     1      -4.681  11.686  17.012  0.00  0.00    +0.000 A 
ATOM     14  C   UNL     1      -3.319  11.400  17.027  0.00  0.00    +0.000 A 
ATOM     15 CL   UNL     1      -2.620  10.837  15.548  0.00  0.00    +0.000 Cl
BRANCH  11  16
ATOM     16  N   UNL     1      -5.436  12.525  20.433  0.00  0.00    +0.000 N 
ATOM     17  H   UNL     1      -5.121  11.937  21.203  0.00  0.00    +0.000 HD
BRANCH  16  18
ATOM     18  C   UNL     1      -6.900  12.631  20.386  0.00  0.00    +0.000 C 
ATOM     19  C   UNL     1      -7.285  13.976  21.034  0.00  0.00    +0.000 C 
ATOM     20  C   UNL     1      -7.174  13.946  22.560  0.00  0.00    +0.000 C 
ATOM     21  C   UNL     1      -7.911  12.756  23.165  0.00  0.00    +0.000 C 
ATOM     22  N   UNL     1      -7.467  11.492  22.579  0.00  0.00    +0.000 NA
ATOM     23  C   UNL     1      -7.641  11.486  21.115  0.00  0.00    +0.000 C 
ATOM     24  H   UNL     1      -8.028  10.733  22.971  0.00  0.00    +0.000 HD
ENDBRANCH  16  18
ENDBRANCH  11  16
ENDBRANCH   6   9
BRANCH   1  25
ATOM     25  C   UNL     1       2.424   8.265  18.441  0.00  0.00    +0.000 C 
BRANCH  25  30
ATOM     26  F   UNL     1       1.753   2.823  19.842  0.00  0.00    +0.000 F 
ATOM     27  C   UNL     1       1.937   4.112  19.522  0.00  0.00    +0.000 A 
ATOM     28  C   UNL     1       1.830   5.084  20.511  0.00  0.00    +0.000 A 
ATOM     29  C   UNL     1       2.008   6.432  20.179  0.00  0.00    +0.000 A 
ATOM     30  C   UNL     1       2.315   6.814  18.861  0.00  0.00    +0.000 A 
ATOM     31  C   UNL     1       2.397   5.814  17.875  0.00  0.00    +0.000 A 
ATOM     32  C   UNL     1       2.213   4.475  18.212  0.00  0.00    +0.000 A 
ATOM     33  F   UNL     1       2.288   3.542  17.253  0.00  0.00    +0.000 F 
ENDBRANCH  25  30
ENDBRANCH   1  25
TORSDOF 5
ENDMDL
MODEL 6
REMARK VINA RESULT:      -7.9      2.756      4.001
REMARK  Name = 
REMARK  5 active torsions:
REMARK  status: ('A' for Active; 'I' for Inactive)
REMARK    1  A    between atoms: C_5  and  C_6
REMARK    2  A    between atoms: C_6  and  N_7
REMARK    3  A    between atoms: C_12  and  C_13
REMARK    4  A    between atoms: C_15  and  N_16
REMARK    5  A    between atoms: N_16  and  C_17
REMARK                            x       y       z     vdW  Elec       q    Type
REMARK                         _______ _______ _______ _____ _____    ______ ____
ROOT
ATOM      1  N   UNL     1       1.309   8.748  17.778  0.00  0.00    +0.000 N 
ATOM      2  C   UNL     1       0.811  10.007  18.098  0.00  0.00    +0.000 A 
ATOM      3  C   UNL     1       1.640  11.072  18.438  0.00  0.00    +0.000 A 
ATOM      4  C   UNL     1       1.079  12.295  18.769  0.00  0.00    +0.000 A 
ATOM      5  C   UNL     1      -0.298  12.445  18.706  0.00  0.00    +0.000 A 
ATOM      6  C   UNL     1      -1.088  11.377  18.278  0.00  0.00    +0.000 A 
ATOM      7  N   UNL     1      -0.533  10.158  18.011  0.00  0.00    +0.000 NA
ATOM      8  H   UNL     1       0.530   8.095  17.788  0.00  0.00    +0.000 HD
ENDROOT
BRANCH   6   9
ATOM      9  C   UNL     1      -2.568  11.477  18.154  0.00  0.00    +0.000 A 
ATOM     10  C   UNL     1      -3.331  11.865  19.277  0.00  0.00    +0.000 A 
ATOM     11  C   UNL     1      -4.700  12.131  19.182  0.00  0.00    +0.000 A 
ATOM     12  N   UNL     1      -5.357  11.981  18.020  0.00  0.00    +0.000 NA
ATOM     13  C   UNL     1      -4.653  11.511  16.964  0.00  0.00    +0.000 A 
ATOM     14  C   UNL     1      -3.287  11.247  16.973  0.00  0.00    +0.000 A 
ATOM     15 CL   UNL     1      -2.603  10.602  15.520  0.00  0.00    +0.000 Cl
BRANCH  11  16
ATOM     16  N   UNL     1      -5.365  12.553  20.338  0.00  0.00    +0.000 N 
ATOM     17  H   UNL     1      -5.078  11.974  21.125  0.00  0.00    +0.000 HD
BRANCH  16  18
ATOM     18  C   UNL     1      -6.823  12.722  20.283  0.00  0.00    +0.000 C 
ATOM     19  C   UNL     1      -7.169  13.988  21.091  0.00  0.00    +0.000 C 
ATOM     20  C   UNL     1      -7.091  13.759  22.603  0.00  0.00    +0.000 C 
ATOM     21  C   UNL     1      -7.884  12.532  23.039  0.00  0.00    +0.000 C 
ATOM     22  N   UNL     1      -7.475  11.336  22.303  0.00  0.00    +0.000 NA
ATOM     23  C   UNL     1      -7.620  11.523  20.848  0.00  0.00    +0.000 C 
ATOM     24  H   UNL     1      -8.071  10.556  22.587  0.00  0.00    +0.000 HD
ENDBRANCH  16  18
ENDBRANCH  11  16
ENDBRANCH   6   9
BRANCH   1  25
ATOM     25  C   UNL     1       2.534   8.297  18.414  0.00  0.00    +0.000 C 
BRANCH  25  30
ATOM     26  F   UNL     1       4.171   3.079  16.954  0.00  0.00    +0.000 F 
ATOM     27  C   UNL     1       3.781   4.321  17.274  0.00  0.00    +0.000 A 
ATOM     28  C   UNL     1       4.661   5.382  17.093  0.00  0.00    +0.000 A 
ATOM     29  C   UNL     1       4.263   6.679  17.437  0.00  0.00    +0.000 A 
ATOM     30  C   UNL     1       2.974   6.925  17.943  0.00  0.00    +0.000 A 
ATOM     31  C   UNL     1       2.109   5.833  18.135  0.00  0.00    +0.000 A 
ATOM     32  C   UNL     1       2.515   4.544  17.796  0.00  0.00    +0.000 A 
ATOM     33  F   UNL     1       1.676   3.519  17.997  0.00  0.00    +0.000 F 
ENDBRANCH  25  30
ENDBRANCH   1  25
TORSDOF 5
ENDMDL
MODEL 7
REMARK VINA RESULT:      -7.9      2.398      4.715
REMARK  Name = 
REMARK  5 active torsions:
REMARK  status: ('A' for Active; 'I' for Inactive)
REMARK    1  A    between atoms: C_5  and  C_6
REMARK    2  A    between atoms: C_6  and  N_7
REMARK    3  A    between atoms: C_12  and  C_13
REMARK    4  A    between atoms: C_15  and  N_16
REMARK    5  A    between atoms: N_16  and  C_17
REMARK                            x       y       z     vdW  Elec       q    Type
REMARK                         _______ _______ _______ _____ _____    ______ ____
ROOT
ATOM      1  N   UNL     1       3.047   7.468  17.969  0.00  0.00    +0.000 N 
ATOM      2  C   UNL     1       2.206   7.976  18.955  0.00  0.00    +0.000 A 
ATOM      3  C   UNL     1       2.004   7.327  20.168  0.00  0.00    +0.000 A 
ATOM      4  C   UNL     1       1.135   7.875  21.099  0.00  0.00    +0.000 A 
ATOM      5  C   UNL     1       0.523   9.087  20.818  0.00  0.00    +0.000 A 
ATOM      6  C   UNL     1       0.819   9.748  19.625  0.00  0.00    +0.000 A 
ATOM      7  N   UNL     1       1.629   9.173  18.689  0.00  0.00    +0.000 NA
ATOM      8  H   UNL     1       2.862   7.979  17.110  0.00  0.00    +0.000 HD
ENDROOT
BRANCH   6   9
ATOM      9  C   UNL     1       0.225  11.067  19.274  0.00  0.00    +0.000 A 
ATOM     10  C   UNL     1       0.900  12.250  19.646  0.00  0.00    +0.000 A 
ATOM     11  C   UNL     1       0.477  13.509  19.209  0.00  0.00    +0.000 A 
ATOM     12  N   UNL     1      -0.623  13.647  18.451  0.00  0.00    +0.000 NA
ATOM     13  C   UNL     1      -1.333  12.528  18.176  0.00  0.00    +0.000 A 
ATOM     14  C   UNL     1      -0.965  11.240  18.554  0.00  0.00    +0.000 A 
ATOM     15 CL   UNL     1      -2.052   9.959  18.137  0.00  0.00    +0.000 Cl
BRANCH  11  16
ATOM     16  N   UNL     1       1.234  14.621  19.591  0.00  0.00    +0.000 N 
ATOM     17  H   UNL     1       0.987  15.417  19.004  0.00  0.00    +0.000 HD
BRANCH  16  18
ATOM     18  C   UNL     1       2.689  14.465  19.721  0.00  0.00    +0.000 C 
ATOM     19  C   UNL     1       3.245  15.790  20.278  0.00  0.00    +0.000 C 
ATOM     20  C   UNL     1       3.296  16.897  19.221  0.00  0.00    +0.000 C 
ATOM     21  C   UNL     1       3.997  16.439  17.946  0.00  0.00    +0.000 C 
ATOM     22  N   UNL     1       3.394  15.221  17.406  0.00  0.00    +0.000 NA
ATOM     23  C   UNL     1       3.410  14.128  18.395  0.00  0.00    +0.000 C 
ATOM     24  H   UNL     1       3.931  14.922  16.590  0.00  0.00    +0.000 HD
ENDBRANCH  16  18
ENDBRANCH  11  16
ENDBRANCH   6   9
BRANCH   1  25
ATOM     25  C   UNL     1       3.186   6.028  17.841  0.00  0.00    +0.000 C 
BRANCH  25  30
ATOM     26  F   UNL     1       8.483   4.041  17.674  0.00  0.00    +0.000 F 
ATOM     27  C   UNL     1       7.238   4.537  17.714  0.00  0.00    +0.000 A 
ATOM     28  C   UNL     1       6.751   5.067  18.903  0.00  0.00    +0.000 A 
ATOM     29  C   UNL     1       5.447   5.575  18.954  0.00  0.00    +0.000 A 
ATOM     30  C   UNL     1       4.631   5.574  17.808  0.00  0.00    +0.000 A 
ATOM     31  C   UNL     1       5.140   5.014  16.623  0.00  0.00    +0.000 A 
ATOM     32  C   UNL     1       6.437   4.506  16.582  0.00  0.00    +0.000 A 
ATOM     33  F   UNL     1       6.894   3.969  15.443  0.00  0.00    +0.000 F 
ENDBRANCH  25  30
ENDBRANCH   1  25
TORSDOF 5
ENDMDL
MODEL 8
REMARK VINA RESULT:      -7.9      3.445      4.213
REMARK  Name = 
REMARK  5 active torsions:
REMARK  status: ('A' for Active; 'I' for Inactive)
REMARK    1  A    between atoms: C_5  and  C_6
REMARK    2  A    between atoms: C_6  and  N_7
REMARK    3  A    between atoms: C_12  and  C_13
REMARK    4  A    between atoms: C_15  and  N_16
REMARK    5  A    between atoms: N_16  and  C_17
REMARK                            x       y       z     vdW  Elec       q    Type
REMARK                         _______ _______ _______ _____ _____    ______ ____
ROOT
ATOM      1  N   UNL     1       1.329   7.697  20.759  0.00  0.00    +0.000 N 
ATOM      2  C   UNL     1       1.097   8.910  20.118  0.00  0.00    +0.000 A 
ATOM      3  C   UNL     1       1.404   9.114  18.777  0.00  0.00    +0.000 A 
ATOM      4  C   UNL     1       1.169  10.354  18.203  0.00  0.00    +0.000 A 
ATOM      5  C   UNL     1       0.585  11.352  18.970  0.00  0.00    +0.000 A 
ATOM      6  C   UNL     1       0.214  11.078  20.287  0.00  0.00    +0.000 A 
ATOM      7  N   UNL     1       0.503   9.875  20.862  0.00  0.00    +0.000 NA
ATOM      8  H   UNL     1       1.241   7.853  21.760  0.00  0.00    +0.000 HD
ENDROOT
BRANCH   6   9
ATOM      9  C   UNL     1      -0.448  12.090  21.156  0.00  0.00    +0.000 A 
ATOM     10  C   UNL     1      -1.800  11.911  21.520  0.00  0.00    +0.000 A 
ATOM     11  C   UNL     1      -2.427  12.738  22.457  0.00  0.00    +0.000 A 
ATOM     12  N   UNL     1      -1.776  13.771  23.017  0.00  0.00    +0.000 NA
ATOM     13  C   UNL     1      -0.512  14.010  22.597  0.00  0.00    +0.000 A 
ATOM     14  C   UNL     1       0.187  13.222  21.688  0.00  0.00    +0.000 A 
ATOM     15 CL   UNL     1       1.778  13.747  21.254  0.00  0.00    +0.000 Cl
BRANCH  11  16
ATOM     16  N   UNL     1      -3.756  12.457  22.790  0.00  0.00    +0.000 N 
ATOM     17  H   UNL     1      -3.978  11.499  22.523  0.00  0.00    +0.000 HD
BRANCH  16  18
ATOM     18  C   UNL     1      -4.798  13.401  22.364  0.00  0.00    +0.000 C 
ATOM     19  C   UNL     1      -5.589  13.811  23.622  0.00  0.00    +0.000 C 
ATOM     20  C   UNL     1      -6.549  12.716  24.095  0.00  0.00    +0.000 C 
ATOM     21  C   UNL     1      -7.437  12.205  22.965  0.00  0.00    +0.000 C 
ATOM     22  N   UNL     1      -6.648  11.756  21.819  0.00  0.00    +0.000 NA
ATOM     23  C   UNL     1      -5.776  12.831  21.311  0.00  0.00    +0.000 C 
ATOM     24  H   UNL     1      -7.285  11.479  21.070  0.00  0.00    +0.000 HD
ENDBRANCH  16  18
ENDBRANCH  11  16
ENDBRANCH   6   9
BRANCH   1  25
ATOM     25  C   UNL     1       2.454   6.883  20.333  0.00  0.00    +0.000 C 
BRANCH  25  30
ATOM     26  F   UNL     1       1.164   1.634  18.657  0.00  0.00    +0.000 F 
ATOM     27  C   UNL     1       1.445   2.886  19.045  0.00  0.00    +0.000 A 
ATOM     28  C   UNL     1       1.765   3.843  18.088  0.00  0.00    +0.000 A 
ATOM     29  C   UNL     1       2.072   5.148  18.489  0.00  0.00    +0.000 A 
ATOM     30  C   UNL     1       2.040   5.509  19.848  0.00  0.00    +0.000 A 
ATOM     31  C   UNL     1       1.733   4.518  20.798  0.00  0.00    +0.000 A 
ATOM     32  C   UNL     1       1.434   3.219  20.391  0.00  0.00    +0.000 A 
ATOM     33  F   UNL     1       1.154   2.292  21.317  0.00  0.00    +0.000 F 
ENDBRANCH  25  30
ENDBRANCH   1  25
TORSDOF 5
ENDMDL
MODEL 9
REMARK VINA RESULT:      -7.8      1.141      1.435
REMARK  Name = 
REMARK  5 active torsions:
REMARK  status: ('A' for Active; 'I' for Inactive)
REMARK    1  A    between atoms: C_5  and  C_6
REMARK    2  A    between atoms: C_6  and  N_7
REMARK    3  A    between atoms: C_12  and  C_13
REMARK    4  A    between atoms: C_15  and  N_16
REMARK    5  A    between atoms: N_16  and  C_17
REMARK                            x       y       z     vdW  Elec       q    Type
REMARK                         _______ _______ _______ _____ _____    ______ ____
ROOT
ATOM      1  N   UNL     1       2.883   7.574  18.145  0.00  0.00    +0.000 N 
ATOM      2  C   UNL     1       2.049   8.048  19.153  0.00  0.00    +0.000 A 
ATOM      3  C   UNL     1       1.914   7.399  20.376  0.00  0.00    +0.000 A 
ATOM      4  C   UNL     1       1.050   7.911  21.330  0.00  0.00    +0.000 A 
ATOM      5  C   UNL     1       0.372   9.091  21.062  0.00  0.00    +0.000 A 
ATOM      6  C   UNL     1       0.601   9.757  19.857  0.00  0.00    +0.000 A 
ATOM      7  N   UNL     1       1.408   9.216  18.899  0.00  0.00    +0.000 NA
ATOM      8  H   UNL     1       2.648   8.071  17.289  0.00  0.00    +0.000 HD
ENDROOT
BRANCH   6   9
ATOM      9  C   UNL     1      -0.065  11.045  19.518  0.00  0.00    +0.000 A 
ATOM     10  C   UNL     1      -1.264  11.028  18.772  0.00  0.00    +0.000 A 
ATOM     11  C   UNL     1      -2.017  12.187  18.560  0.00  0.00    +0.000 A 
ATOM     12  N   UNL     1      -1.602  13.378  19.022  0.00  0.00    +0.000 NA
ATOM     13  C   UNL     1      -0.403  13.419  19.648  0.00  0.00    +0.000 A 
ATOM     14  C   UNL     1       0.392  12.309  19.917  0.00  0.00    +0.000 A 
ATOM     15 CL   UNL     1       1.914  12.602  20.687  0.00  0.00    +0.000 Cl
BRANCH  11  16
ATOM     16  N   UNL     1      -3.214  12.066  17.848  0.00  0.00    +0.000 N 
ATOM     17  H   UNL     1      -3.416  12.944  17.372  0.00  0.00    +0.000 HD
BRANCH  16  18
ATOM     18  C   UNL     1      -4.393  11.537  18.547  0.00  0.00    +0.000 C 
ATOM     19  C   UNL     1      -5.516  11.383  17.503  0.00  0.00    +0.000 C 
ATOM     20  C   UNL     1      -6.147  12.723  17.116  0.00  0.00    +0.000 C 
ATOM     21  C   UNL     1      -6.570  13.531  18.338  0.00  0.00    +0.000 C 
ATOM     22  N   UNL     1      -5.459  13.720  19.270  0.00  0.00    +0.000 NA
ATOM     23  C   UNL     1      -4.895  12.430  19.706  0.00  0.00    +0.000 C 
ATOM     24  H   UNL     1      -5.804  14.214  20.096  0.00  0.00    +0.000 HD
ENDBRANCH  16  18
ENDBRANCH  11  16
ENDBRANCH   6   9
BRANCH   1  25
ATOM     25  C   UNL     1       3.086   6.141  18.020  0.00  0.00    +0.000 C 
BRANCH  25  30
ATOM     26  F   UNL     1       7.940   4.594  15.556  0.00  0.00    +0.000 F 
ATOM     27  C   UNL     1       6.785   4.977  16.118  0.00  0.00    +0.000 A 
ATOM     28  C   UNL     1       6.697   6.231  16.712  0.00  0.00    +0.000 A 
ATOM     29  C   UNL     1       5.497   6.631  17.312  0.00  0.00    +0.000 A 
ATOM     30  C   UNL     1       4.372   5.787  17.303  0.00  0.00    +0.000 A 
ATOM     31  C   UNL     1       4.493   4.515  16.714  0.00  0.00    +0.000 A 
ATOM     32  C   UNL     1       5.692   4.122  16.124  0.00  0.00    +0.000 A 
ATOM     33  F   UNL     1       5.785   2.902  15.578  0.00  0.00    +0.000 F 
ENDBRANCH  25  30
ENDBRANCH   1  25
TORSDOF 5
ENDMDL
