MODEL 1
REMARK VINA RESULT:      -8.5      0.000      0.000
REMARK  Name = 
REMARK  11 active torsions:
REMARK  status: ('A' for Active; 'I' for Inactive)
REMARK    1  A    between atoms: C_1  and  C_2
REMARK    2  A    between atoms: N_4  and  C_5
REMARK    3  A    between atoms: C_8  and  O_9
REMARK    4  A    between atoms: O_9  and  C_10
REMARK    5  A    between atoms: C_13  and  C_14
REMARK    6  A    between atoms: C_14  and  O_16
REMARK    7  A    between atoms: C_17  and  C_18
REMARK    8  A    between atoms: C_18  and  O_20
REMARK    9  A    between atoms: C_22  and  N_23
REMARK   10  A    between atoms: C_24  and  C_26
REMARK   11  A    between atoms: C_30  and  N_31
REMARK                            x       y       z     vdW  Elec       q    Type
REMARK                         _______ _______ _______ _____ _____    ______ ____
ROOT
ATOM      1  C   UNL     1       6.630   4.976  14.843  0.00  0.00    +0.000 A 
ATOM      2  C   UNL     1       5.722   4.206  15.556  0.00  0.00    +0.000 A 
ATOM      3  C   UNL     1       5.209   4.663  16.765  0.00  0.00    +0.000 A 
ATOM      4  C   UNL     1       5.529   5.938  17.262  0.00  0.00    +0.000 A 
ATOM      5  C   UNL     1       6.522   6.699  16.610  0.00  0.00    +0.000 A 
ATOM      6  C   UNL     1       7.051   6.202  15.391  0.00  0.00    +0.000 A 
ENDROOT
BRANCH   1  10
ATOM      7  C   UNL     1       7.356   3.366  11.506  0.00  0.00    +0.000 C 
ATOM      8  C   UNL     1       6.478   3.828  12.637  0.00  0.00    +0.000 C 
ATOM      9  O   UNL     1       5.277   3.574  12.633  0.00  0.00    +0.000 OA
ATOM     10  N   UNL     1       7.169   4.540  13.611  0.00  0.00    +0.000 N 
ATOM     11  H   UNL     1       8.106   4.844  13.379  0.00  0.00    +0.000 HD
ENDBRANCH   1  10
BRANCH   5  12
ATOM     12  N   UNL     1       7.055   7.950  17.052  0.00  0.00    +0.000 N 
ATOM     13  C   UNL     1       7.963   8.143  18.083  0.00  0.00    +0.000 C 
ATOM     14  O   UNL     1       8.470   7.266  18.775  0.00  0.00    +0.000 OA
ATOM     15  H   UNL     1       6.929   8.723  16.413  0.00  0.00    +0.000 HD
BRANCH  13  16
ATOM     16  C   UNL     1       8.475   9.538  18.291  0.00  0.00    +0.000 A 
ATOM     17  C   UNL     1       8.037  10.508  17.371  0.00  0.00    +0.000 A 
ATOM     18  C   UNL     1       8.450  11.839  17.461  0.00  0.00    +0.000 A 
ATOM     19  C   UNL     1       9.317  12.224  18.477  0.00  0.00    +0.000 A 
ATOM     20  C   UNL     1       9.774  11.265  19.390  0.00  0.00    +0.000 A 
ATOM     21  C   UNL     1       9.361   9.914  19.307  0.00  0.00    +0.000 A 
BRANCH  20  22
ATOM     22  N   UNL     1      10.700  11.686  20.451  0.00  0.00    +0.000 N 
ATOM     23  O   UNL     1      11.914  11.568  20.244  0.00  0.00    +0.000 OA
ATOM     24  O   UNL     1      10.203  12.146  21.489  0.00  0.00    +0.000 OA
ENDBRANCH  20  22
ENDBRANCH  13  16
ENDBRANCH   5  12
BRANCH   4  25
ATOM     25  O   UNL     1       4.842   6.444  18.354  0.00  0.00    +0.000 OA
BRANCH  25  26
ATOM     26  C   UNL     1       4.091   5.576  19.119  0.00  0.00    +0.000 A 
ATOM     27  C   UNL     1       2.985   6.001  19.845  0.00  0.00    +0.000 A 
ATOM     28  C   UNL     1       2.174   5.066  20.484  0.00  0.00    +0.000 A 
ATOM     29  C   UNL     1       2.466   3.683  20.471  0.00  0.00    +0.000 A 
ATOM     30  C   UNL     1       3.637   3.272  19.797  0.00  0.00    +0.000 A 
ATOM     31  C   UNL     1       4.455   4.229  19.146  0.00  0.00    +0.000 A 
BRANCH  29  32
ATOM     32  C   UNL     1       1.408   2.850  21.145  0.00  0.00    +0.000 C 
ATOM     33  O   UNL     1       1.588   2.436  22.285  0.00  0.00    +0.000 OA
BRANCH  32  34
ATOM     34  O   UNL     1       0.241   2.608  20.533  0.00  0.00    +0.000 OA
ATOM     35  H   UNL     1       0.211   1.884  19.866  0.00  0.00    +0.000 HD
ENDBRANCH  32  34
ENDBRANCH  29  32
BRANCH  30  36
ATOM     36  C   UNL     1       4.088   1.864  19.778  0.00  0.00    +0.000 C 
ATOM     37  O   UNL     1       3.524   1.020  19.100  0.00  0.00    +0.000 OA
BRANCH  36  38
ATOM     38  O   UNL     1       5.177   1.585  20.518  0.00  0.00    +0.000 OA
ATOM     39  H   UNL     1       5.955   2.160  20.401  0.00  0.00    +0.000 HD
ENDBRANCH  36  38
ENDBRANCH  30  36
ENDBRANCH  25  26
ENDBRANCH   4  25
TORSDOF 10
ENDMDL
MODEL 2
REMARK VINA RESULT:      -8.4      7.760     10.890
REMARK  Name = 
REMARK  11 active torsions:
REMARK  status: ('A' for Active; 'I' for Inactive)
REMARK    1  A    between atoms: C_1  and  C_2
REMARK    2  A    between atoms: N_4  and  C_5
REMARK    3  A    between atoms: C_8  and  O_9
REMARK    4  A    between atoms: O_9  and  C_10
REMARK    5  A    between atoms: C_13  and  C_14
REMARK    6  A    between atoms: C_14  and  O_16
REMARK    7  A    between atoms: C_17  and  C_18
REMARK    8  A    between atoms: C_18  and  O_20
REMARK    9  A    between atoms: C_22  and  N_23
REMARK   10  A    between atoms: C_24  and  C_26
REMARK   11  A    between atoms: C_30  and  N_31
REMARK                            x       y       z     vdW  Elec       q    Type
REMARK                         _______ _______ _______ _____ _____    ______ ____
ROOT
ATOM      1  C   UNL     1       2.045  14.388  19.237  0.00  0.00    +0.000 A 
ATOM      2  C   UNL     1       0.819  14.987  18.981  0.00  0.00    +0.000 A 
ATOM      3  C   UNL     1      -0.336  14.218  18.903  0.00  0.00    +0.000 A 
ATOM      4  C   UNL     1      -0.315  12.835  19.155  0.00  0.00    +0.000 A 
ATOM      5  C   UNL     1       0.927  12.187  19.320  0.00  0.00    +0.000 A 
ATOM      6  C   UNL     1       2.096  12.988  19.371  0.00  0.00    +0.000 A 
ENDROOT
BRANCH   1  10
ATOM      7  C   UNL     1       5.265  16.265  18.635  0.00  0.00    +0.000 C 
ATOM      8  C   UNL     1       3.955  15.639  18.240  0.00  0.00    +0.000 C 
ATOM      9  O   UNL     1       3.612  15.609  17.062  0.00  0.00    +0.000 OA
ATOM     10  N   UNL     1       3.238  15.143  19.323  0.00  0.00    +0.000 N 
ATOM     11  H   UNL     1       3.548  15.420  20.245  0.00  0.00    +0.000 HD
ENDBRANCH   1  10
BRANCH   5  12
ATOM     12  N   UNL     1       1.134  10.778  19.456  0.00  0.00    +0.000 N 
ATOM     13  C   UNL     1       1.702   9.933  18.514  0.00  0.00    +0.000 C 
ATOM     14  O   UNL     1       2.135  10.260  17.415  0.00  0.00    +0.000 OA
ATOM     15  H   UNL     1       1.066  10.421  20.399  0.00  0.00    +0.000 HD
BRANCH  13  16
ATOM     16  C   UNL     1       1.929   8.508  18.925  0.00  0.00    +0.000 A 
ATOM     17  C   UNL     1       1.509   8.155  20.220  0.00  0.00    +0.000 A 
ATOM     18  C   UNL     1       1.672   6.859  20.714  0.00  0.00    +0.000 A 
ATOM     19  C   UNL     1       2.266   5.888  19.917  0.00  0.00    +0.000 A 
ATOM     20  C   UNL     1       2.704   6.230  18.630  0.00  0.00    +0.000 A 
ATOM     21  C   UNL     1       2.544   7.540  18.122  0.00  0.00    +0.000 A 
BRANCH  20  22
ATOM     22  N   UNL     1       3.343   5.194  17.805  0.00  0.00    +0.000 N 
ATOM     23  O   UNL     1       3.035   4.014  18.009  0.00  0.00    +0.000 OA
ATOM     24  O   UNL     1       4.149   5.574  16.941  0.00  0.00    +0.000 OA
ENDBRANCH  20  22
ENDBRANCH  13  16
ENDBRANCH   5  12
BRANCH   4  25
ATOM     25  O   UNL     1      -1.508  12.139  19.276  0.00  0.00    +0.000 OA
BRANCH  25  26
ATOM     26  C   UNL     1      -2.184  12.195  20.477  0.00  0.00    +0.000 A 
ATOM     27  C   UNL     1      -1.545  11.998  21.694  0.00  0.00    +0.000 A 
ATOM     28  C   UNL     1      -2.238  12.209  22.885  0.00  0.00    +0.000 A 
ATOM     29  C   UNL     1      -3.605  12.566  22.905  0.00  0.00    +0.000 A 
ATOM     30  C   UNL     1      -4.266  12.685  21.663  0.00  0.00    +0.000 A 
ATOM     31  C   UNL     1      -3.552  12.473  20.456  0.00  0.00    +0.000 A 
BRANCH  29  32
ATOM     32  C   UNL     1      -4.125  12.831  24.293  0.00  0.00    +0.000 C 
ATOM     33  O   UNL     1      -4.828  11.998  24.854  0.00  0.00    +0.000 OA
BRANCH  32  34
ATOM     34  O   UNL     1      -3.774  13.946  24.949  0.00  0.00    +0.000 OA
ATOM     35  H   UNL     1      -3.647  14.769  24.423  0.00  0.00    +0.000 HD
ENDBRANCH  32  34
ENDBRANCH  29  32
BRANCH  30  36
ATOM     36  C   UNL     1      -5.710  12.979  21.557  0.00  0.00    +0.000 C 
ATOM     37  O   UNL     1      -6.123  14.119  21.413  0.00  0.00    +0.000 OA
BRANCH  36  38
ATOM     38  O   UNL     1      -6.532  11.914  21.588  0.00  0.00    +0.000 OA
ATOM     39  H   UNL     1      -7.477  12.073  21.410  0.00  0.00    +0.000 HD
ENDBRANCH  36  38
ENDBRANCH  30  36
ENDBRANCH  25  26
ENDBRANCH   4  25
TORSDOF 10
ENDMDL
MODEL 3
REMARK VINA RESULT:      -8.3      6.340      8.014
REMARK  Name = 
REMARK  11 active torsions:
REMARK  status: ('A' for Active; 'I' for Inactive)
REMARK    1  A    between atoms: C_1  and  C_2
REMARK    2  A    between atoms: N_4  and  C_5
REMARK    3  A    between atoms: C_8  and  O_9
REMARK    4  A    between atoms: O_9  and  C_10
REMARK    5  A    between atoms: C_13  and  C_14
REMARK    6  A    between atoms: C_14  and  O_16
REMARK    7  A    between atoms: C_17  and  C_18
REMARK    8  A    between atoms: C_18  and  O_20
REMARK    9  A    between atoms: C_22  and  N_23
REMARK   10  A    between atoms: C_24  and  C_26
REMARK   11  A    between atoms: C_30  and  N_31
REMARK                            x       y       z     vdW  Elec       q    Type
REMARK                         _______ _______ _______ _____ _____    ______ ____
ROOT
ATOM      1  C   UNL     1      -2.351  11.396  18.272  0.00  0.00    +0.000 A 
ATOM      2  C   UNL     1      -1.998  10.111  17.887  0.00  0.00    +0.000 A 
ATOM      3  C   UNL     1      -0.668   9.706  17.919  0.00  0.00    +0.000 A 
ATOM      4  C   UNL     1       0.343  10.550  18.410  0.00  0.00    +0.000 A 
ATOM      5  C   UNL     1       0.029  11.892  18.714  0.00  0.00    +0.000 A 
ATOM      6  C   UNL     1      -1.331  12.290  18.650  0.00  0.00    +0.000 A 
ENDROOT
BRANCH   1  10
ATOM      7  C   UNL     1      -5.868  12.442  17.384  0.00  0.00    +0.000 C 
ATOM      8  C   UNL     1      -4.552  11.747  17.160  0.00  0.00    +0.000 C 
ATOM      9  O   UNL     1      -4.328  11.172  16.100  0.00  0.00    +0.000 OA
ATOM     10  N   UNL     1      -3.694  11.837  18.250  0.00  0.00    +0.000 N 
ATOM     11  H   UNL     1      -4.091  12.162  19.122  0.00  0.00    +0.000 HD
ENDBRANCH   1  10
BRANCH   5  12
ATOM     12  N   UNL     1       0.955  12.911  19.099  0.00  0.00    +0.000 N 
ATOM     13  C   UNL     1       1.598  13.023  20.323  0.00  0.00    +0.000 C 
ATOM     14  O   UNL     1       1.488  12.254  21.272  0.00  0.00    +0.000 OA
ATOM     15  H   UNL     1       1.337  13.457  18.339  0.00  0.00    +0.000 HD
BRANCH  13  16
ATOM     16  C   UNL     1       2.623  14.110  20.459  0.00  0.00    +0.000 A 
ATOM     17  C   UNL     1       2.577  14.869  21.643  0.00  0.00    +0.000 A 
ATOM     18  C   UNL     1       3.477  15.909  21.879  0.00  0.00    +0.000 A 
ATOM     19  C   UNL     1       4.444  16.214  20.928  0.00  0.00    +0.000 A 
ATOM     20  C   UNL     1       4.492  15.476  19.738  0.00  0.00    +0.000 A 
ATOM     21  C   UNL     1       3.584  14.420  19.489  0.00  0.00    +0.000 A 
BRANCH  20  22
ATOM     22  N   UNL     1       5.512  15.819  18.736  0.00  0.00    +0.000 N 
ATOM     23  O   UNL     1       5.646  15.071  17.761  0.00  0.00    +0.000 OA
ATOM     24  O   UNL     1       6.171  16.851  18.929  0.00  0.00    +0.000 OA
ENDBRANCH  20  22
ENDBRANCH  13  16
ENDBRANCH   5  12
BRANCH   4  25
ATOM     25  O   UNL     1       1.617  10.048  18.625  0.00  0.00    +0.000 OA
BRANCH  25  26
ATOM     26  C   UNL     1       1.744   8.779  19.151  0.00  0.00    +0.000 A 
ATOM     27  C   UNL     1       1.357   8.477  20.451  0.00  0.00    +0.000 A 
ATOM     28  C   UNL     1       1.369   7.154  20.889  0.00  0.00    +0.000 A 
ATOM     29  C   UNL     1       1.820   6.095  20.069  0.00  0.00    +0.000 A 
ATOM     30  C   UNL     1       2.286   6.425  18.777  0.00  0.00    +0.000 A 
ATOM     31  C   UNL     1       2.267   7.772  18.338  0.00  0.00    +0.000 A 
BRANCH  29  32
ATOM     32  C   UNL     1       1.659   4.743  20.711  0.00  0.00    +0.000 C 
ATOM     33  O   UNL     1       2.424   4.393  21.603  0.00  0.00    +0.000 OA
BRANCH  32  34
ATOM     34  O   UNL     1       0.646   3.939  20.359  0.00  0.00    +0.000 OA
ATOM     35  H   UNL     1       0.069   3.584  21.074  0.00  0.00    +0.000 HD
ENDBRANCH  32  34
ENDBRANCH  29  32
BRANCH  30  36
ATOM     36  C   UNL     1       2.851   5.416  17.857  0.00  0.00    +0.000 C 
ATOM     37  O   UNL     1       2.231   4.411  17.547  0.00  0.00    +0.000 OA
BRANCH  36  38
ATOM     38  O   UNL     1       4.068   5.695  17.353  0.00  0.00    +0.000 OA
ATOM     39  H   UNL     1       4.312   5.267  16.511  0.00  0.00    +0.000 HD
ENDBRANCH  36  38
ENDBRANCH  30  36
ENDBRANCH  25  26
ENDBRANCH   4  25
TORSDOF 10
ENDMDL
MODEL 4
REMARK VINA RESULT:      -8.2      6.465      8.359
REMARK  Name = 
REMARK  11 active torsions:
REMARK  status: ('A' for Active; 'I' for Inactive)
REMARK    1  A    between atoms: C_1  and  C_2
REMARK    2  A    between atoms: N_4  and  C_5
REMARK    3  A    between atoms: C_8  and  O_9
REMARK    4  A    between atoms: O_9  and  C_10
REMARK    5  A    between atoms: C_13  and  C_14
REMARK    6  A    between atoms: C_14  and  O_16
REMARK    7  A    between atoms: C_17  and  C_18
REMARK    8  A    between atoms: C_18  and  O_20
REMARK    9  A    between atoms: C_22  and  N_23
REMARK   10  A    between atoms: C_24  and  C_26
REMARK   11  A    between atoms: C_30  and  N_31
REMARK                            x       y       z     vdW  Elec       q    Type
REMARK                         _______ _______ _______ _____ _____    ______ ____
ROOT
ATOM      1  C   UNL     1      -2.213  11.428  17.876  0.00  0.00    +0.000 A 
ATOM      2  C   UNL     1      -2.032  10.058  18.000  0.00  0.00    +0.000 A 
ATOM      3  C   UNL     1      -0.843   9.550  18.511  0.00  0.00    +0.000 A 
ATOM      4  C   UNL     1       0.173  10.397  18.984  0.00  0.00    +0.000 A 
ATOM      5  C   UNL     1       0.058  11.788  18.780  0.00  0.00    +0.000 A 
ATOM      6  C   UNL     1      -1.154  12.283  18.233  0.00  0.00    +0.000 A 
ENDROOT
BRANCH   1  10
ATOM      7  C   UNL     1      -5.762  12.496  17.155  0.00  0.00    +0.000 C 
ATOM      8  C   UNL     1      -4.636  11.990  18.016  0.00  0.00    +0.000 C 
ATOM      9  O   UNL     1      -4.849  11.646  19.175  0.00  0.00    +0.000 OA
ATOM     10  N   UNL     1      -3.410  11.976  17.360  0.00  0.00    +0.000 N 
ATOM     11  H   UNL     1      -3.353  12.477  16.483  0.00  0.00    +0.000 HD
ENDBRANCH   1  10
BRANCH   5  12
ATOM     12  N   UNL     1       1.050  12.773  19.082  0.00  0.00    +0.000 N 
ATOM     13  C   UNL     1       1.446  13.185  20.345  0.00  0.00    +0.000 C 
ATOM     14  O   UNL     1       1.019  12.759  21.413  0.00  0.00    +0.000 OA
ATOM     15  H   UNL     1       1.663  13.017  18.316  0.00  0.00    +0.000 HD
BRANCH  13  16
ATOM     16  C   UNL     1       2.594  14.147  20.421  0.00  0.00    +0.000 A 
ATOM     17  C   UNL     1       3.366  14.110  21.597  0.00  0.00    +0.000 A 
ATOM     18  C   UNL     1       4.457  14.962  21.782  0.00  0.00    +0.000 A 
ATOM     19  C   UNL     1       4.795  15.874  20.790  0.00  0.00    +0.000 A 
ATOM     20  C   UNL     1       4.026  15.933  19.620  0.00  0.00    +0.000 A 
ATOM     21  C   UNL     1       2.919  15.075  19.424  0.00  0.00    +0.000 A 
BRANCH  20  22
ATOM     22  N   UNL     1       4.389  16.913  18.587  0.00  0.00    +0.000 N 
ATOM     23  O   UNL     1       3.570  17.143  17.689  0.00  0.00    +0.000 OA
ATOM     24  O   UNL     1       5.497  17.460  18.687  0.00  0.00    +0.000 OA
ENDBRANCH  20  22
ENDBRANCH  13  16
ENDBRANCH   5  12
BRANCH   4  25
ATOM     25  O   UNL     1       1.250   9.863  19.676  0.00  0.00    +0.000 OA
BRANCH  25  26
ATOM     26  C   UNL     1       1.768   8.655  19.257  0.00  0.00    +0.000 A 
ATOM     27  C   UNL     1       2.525   8.539  18.098  0.00  0.00    +0.000 A 
ATOM     28  C   UNL     1       3.147   7.330  17.794  0.00  0.00    +0.000 A 
ATOM     29  C   UNL     1       2.991   6.180  18.600  0.00  0.00    +0.000 A 
ATOM     30  C   UNL     1       2.154   6.288  19.733  0.00  0.00    +0.000 A 
ATOM     31  C   UNL     1       1.528   7.523  20.037  0.00  0.00    +0.000 A 
BRANCH  29  32
ATOM     32  C   UNL     1       3.823   5.015  18.135  0.00  0.00    +0.000 C 
ATOM     33  O   UNL     1       4.861   4.731  18.724  0.00  0.00    +0.000 OA
BRANCH  32  34
ATOM     34  O   UNL     1       3.409   4.245  17.120  0.00  0.00    +0.000 OA
ATOM     35  H   UNL     1       2.538   3.793  17.211  0.00  0.00    +0.000 HD
ENDBRANCH  32  34
ENDBRANCH  29  32
BRANCH  30  36
ATOM     36  C   UNL     1       1.853   5.137  20.610  0.00  0.00    +0.000 C 
ATOM     37  O   UNL     1       0.889   4.415  20.411  0.00  0.00    +0.000 OA
BRANCH  36  38
ATOM     38  O   UNL     1       2.727   4.914  21.608  0.00  0.00    +0.000 OA
ATOM     39  H   UNL     1       2.622   4.089  22.118  0.00  0.00    +0.000 HD
ENDBRANCH  36  38
ENDBRANCH  30  36
ENDBRANCH  25  26
ENDBRANCH   4  25
TORSDOF 10
ENDMDL
MODEL 5
REMARK VINA RESULT:      -8.2      3.875      4.895
REMARK  Name = 
REMARK  11 active torsions:
REMARK  status: ('A' for Active; 'I' for Inactive)
REMARK    1  A    between atoms: C_1  and  C_2
REMARK    2  A    between atoms: N_4  and  C_5
REMARK    3  A    between atoms: C_8  and  O_9
REMARK    4  A    between atoms: O_9  and  C_10
REMARK    5  A    between atoms: C_13  and  C_14
REMARK    6  A    between atoms: C_14  and  O_16
REMARK    7  A    between atoms: C_17  and  C_18
REMARK    8  A    between atoms: C_18  and  O_20
REMARK    9  A    between atoms: C_22  and  N_23
REMARK   10  A    between atoms: C_24  and  C_26
REMARK   11  A    between atoms: C_30  and  N_31
REMARK                            x       y       z     vdW  Elec       q    Type
REMARK                         _______ _______ _______ _____ _____    ______ ____
ROOT
ATOM      1  C   UNL     1       6.643   5.334  15.033  0.00  0.00    +0.000 A 
ATOM      2  C   UNL     1       7.476   4.568  15.836  0.00  0.00    +0.000 A 
ATOM      3  C   UNL     1       7.342   4.597  17.219  0.00  0.00    +0.000 A 
ATOM      4  C   UNL     1       6.321   5.335  17.841  0.00  0.00    +0.000 A 
ATOM      5  C   UNL     1       5.525   6.199  17.059  0.00  0.00    +0.000 A 
ATOM      6  C   UNL     1       5.696   6.171  15.651  0.00  0.00    +0.000 A 
ENDROOT
BRANCH   1  10
ATOM      7  C   UNL     1       7.653   5.734  11.417  0.00  0.00    +0.000 C 
ATOM      8  C   UNL     1       7.885   5.694  12.904  0.00  0.00    +0.000 C 
ATOM      9  O   UNL     1       8.989   5.965  13.366  0.00  0.00    +0.000 OA
ATOM     10  N   UNL     1       6.754   5.325  13.624  0.00  0.00    +0.000 N 
ATOM     11  H   UNL     1       5.982   4.936  13.098  0.00  0.00    +0.000 HD
ENDBRANCH   1  10
BRANCH   5  12
ATOM     12  N   UNL     1       4.535   7.110  17.546  0.00  0.00    +0.000 N 
ATOM     13  C   UNL     1       3.192   6.835  17.753  0.00  0.00    +0.000 C 
ATOM     14  O   UNL     1       2.635   5.758  17.568  0.00  0.00    +0.000 OA
ATOM     15  H   UNL     1       4.896   7.947  17.983  0.00  0.00    +0.000 HD
BRANCH  13  16
ATOM     16  C   UNL     1       2.364   7.914  18.387  0.00  0.00    +0.000 A 
ATOM     17  C   UNL     1       1.985   8.983  17.553  0.00  0.00    +0.000 A 
ATOM     18  C   UNL     1       1.219  10.047  18.032  0.00  0.00    +0.000 A 
ATOM     19  C   UNL     1       0.817  10.063  19.363  0.00  0.00    +0.000 A 
ATOM     20  C   UNL     1       1.201   9.013  20.208  0.00  0.00    +0.000 A 
ATOM     21  C   UNL     1       1.978   7.931  19.732  0.00  0.00    +0.000 A 
BRANCH  20  22
ATOM     22  N   UNL     1       0.780   9.052  21.616  0.00  0.00    +0.000 N 
ATOM     23  O   UNL     1       1.639   9.283  22.475  0.00  0.00    +0.000 OA
ATOM     24  O   UNL     1      -0.422   8.861  21.854  0.00  0.00    +0.000 OA
ENDBRANCH  20  22
ENDBRANCH  13  16
ENDBRANCH   5  12
BRANCH   4  25
ATOM     25  O   UNL     1       6.084   5.178  19.198  0.00  0.00    +0.000 OA
BRANCH  25  26
ATOM     26  C   UNL     1       4.930   4.535  19.595  0.00  0.00    +0.000 A 
ATOM     27  C   UNL     1       4.120   5.032  20.608  0.00  0.00    +0.000 A 
ATOM     28  C   UNL     1       2.893   4.428  20.874  0.00  0.00    +0.000 A 
ATOM     29  C   UNL     1       2.456   3.276  20.183  0.00  0.00    +0.000 A 
ATOM     30  C   UNL     1       3.325   2.732  19.210  0.00  0.00    +0.000 A 
ATOM     31  C   UNL     1       4.569   3.356  18.942  0.00  0.00    +0.000 A 
BRANCH  29  32
ATOM     32  C   UNL     1       1.065   2.848  20.567  0.00  0.00    +0.000 C 
ATOM     33  O   UNL     1       0.815   2.549  21.730  0.00  0.00    +0.000 OA
BRANCH  32  34
ATOM     34  O   UNL     1       0.078   2.852  19.661  0.00  0.00    +0.000 OA
ATOM     35  H   UNL     1       0.308   2.639  18.727  0.00  0.00    +0.000 HD
ENDBRANCH  32  34
ENDBRANCH  29  32
BRANCH  30  36
ATOM     36  C   UNL     1       3.013   1.489  18.475  0.00  0.00    +0.000 C 
ATOM     37  O   UNL     1       1.968   1.354  17.857  0.00  0.00    +0.000 OA
BRANCH  36  38
ATOM     38  O   UNL     1       3.966   0.539  18.494  0.00  0.00    +0.000 OA
ATOM     39  H   UNL     1       4.887   0.832  18.623  0.00  0.00    +0.000 HD
ENDBRANCH  36  38
ENDBRANCH  30  36
ENDBRANCH  25  26
ENDBRANCH   4  25
TORSDOF 10
ENDMDL
MODEL 6
REMARK VINA RESULT:      -8.1      6.682     11.051
REMARK  Name = 
REMARK  11 active torsions:
REMARK  status: ('A' for Active; 'I' for Inactive)
REMARK    1  A    between atoms: C_1  and  C_2
REMARK    2  A    between atoms: N_4  and  C_5
REMARK    3  A    between atoms: C_8  and  O_9
REMARK    4  A    between atoms: O_9  and  C_10
REMARK    5  A    between atoms: C_13  and  C_14
REMARK    6  A    between atoms: C_14  and  O_16
REMARK    7  A    between atoms: C_17  and  C_18
REMARK    8  A    between atoms: C_18  and  O_20
REMARK    9  A    between atoms: C_22  and  N_23
REMARK   10  A    between atoms: C_24  and  C_26
REMARK   11  A    between atoms: C_30  and  N_31
REMARK                            x       y       z     vdW  Elec       q    Type
REMARK                         _______ _______ _______ _____ _____    ______ ____
ROOT
ATOM      1  C   UNL     1      -2.303  11.980  18.962  0.00  0.00    +0.000 A 
ATOM      2  C   UNL     1      -1.951  13.042  19.783  0.00  0.00    +0.000 A 
ATOM      3  C   UNL     1      -0.737  13.036  20.460  0.00  0.00    +0.000 A 
ATOM      4  C   UNL     1       0.198  12.002  20.278  0.00  0.00    +0.000 A 
ATOM      5  C   UNL     1      -0.173  10.865  19.530  0.00  0.00    +0.000 A 
ATOM      6  C   UNL     1      -1.428  10.882  18.868  0.00  0.00    +0.000 A 
ENDROOT
BRANCH   1  10
ATOM      7  C   UNL     1      -5.907  11.781  17.854  0.00  0.00    +0.000 C 
ATOM      8  C   UNL     1      -4.792  11.974  18.846  0.00  0.00    +0.000 C 
ATOM      9  O   UNL     1      -5.043  12.131  20.037  0.00  0.00    +0.000 OA
ATOM     10  N   UNL     1      -3.531  11.957  18.261  0.00  0.00    +0.000 N 
ATOM     11  H   UNL     1      -3.492  12.023  17.252  0.00  0.00    +0.000 HD
ENDBRANCH   1  10
BRANCH   5  12
ATOM     12  N   UNL     1       0.604   9.677  19.355  0.00  0.00    +0.000 N 
ATOM     13  C   UNL     1       1.586   9.466  18.399  0.00  0.00    +0.000 C 
ATOM     14  O   UNL     1       1.960  10.273  17.554  0.00  0.00    +0.000 OA
ATOM     15  H   UNL     1       0.588   9.032  20.134  0.00  0.00    +0.000 HD
BRANCH  13  16
ATOM     16  C   UNL     1       2.356   8.181  18.482  0.00  0.00    +0.000 A 
ATOM     17  C   UNL     1       2.134   7.392  19.626  0.00  0.00    +0.000 A 
ATOM     18  C   UNL     1       2.797   6.178  19.816  0.00  0.00    +0.000 A 
ATOM     19  C   UNL     1       3.702   5.730  18.860  0.00  0.00    +0.000 A 
ATOM     20  C   UNL     1       3.944   6.513  17.723  0.00  0.00    +0.000 A 
ATOM     21  C   UNL     1       3.278   7.745  17.523  0.00  0.00    +0.000 A 
BRANCH  20  22
ATOM     22  N   UNL     1       4.913   6.032  16.729  0.00  0.00    +0.000 N 
ATOM     23  O   UNL     1       5.532   6.872  16.064  0.00  0.00    +0.000 OA
ATOM     24  O   UNL     1       5.060   4.805  16.627  0.00  0.00    +0.000 OA
ENDBRANCH  20  22
ENDBRANCH  13  16
ENDBRANCH   5  12
BRANCH   4  25
ATOM     25  O   UNL     1       1.476  12.129  20.799  0.00  0.00    +0.000 OA
BRANCH  25  26
ATOM     26  C   UNL     1       2.147  13.320  20.614  0.00  0.00    +0.000 A 
ATOM     27  C   UNL     1       2.278  14.259  21.630  0.00  0.00    +0.000 A 
ATOM     28  C   UNL     1       3.087  15.378  21.440  0.00  0.00    +0.000 A 
ATOM     29  C   UNL     1       3.745  15.631  20.216  0.00  0.00    +0.000 A 
ATOM     30  C   UNL     1       3.540  14.711  19.164  0.00  0.00    +0.000 A 
ATOM     31  C   UNL     1       2.720  13.573  19.367  0.00  0.00    +0.000 A 
BRANCH  29  32
ATOM     32  C   UNL     1       4.635  16.844  20.265  0.00  0.00    +0.000 C 
ATOM     33  O   UNL     1       4.141  17.966  20.292  0.00  0.00    +0.000 OA
BRANCH  32  34
ATOM     34  O   UNL     1       5.966  16.708  20.342  0.00  0.00    +0.000 OA
ATOM     35  H   UNL     1       6.359  16.505  21.223  0.00  0.00    +0.000 HD
ENDBRANCH  32  34
ENDBRANCH  29  32
BRANCH  30  36
ATOM     36  C   UNL     1       4.114  14.907  17.816  0.00  0.00    +0.000 C 
ATOM     37  O   UNL     1       3.592  15.649  16.999  0.00  0.00    +0.000 OA
BRANCH  36  38
ATOM     38  O   UNL     1       5.263  14.253  17.565  0.00  0.00    +0.000 OA
ATOM     39  H   UNL     1       5.216  13.478  16.974  0.00  0.00    +0.000 HD
ENDBRANCH  36  38
ENDBRANCH  30  36
ENDBRANCH  25  26
ENDBRANCH   4  25
TORSDOF 10
ENDMDL
MODEL 7
REMARK VINA RESULT:      -8.1      6.207      7.911
REMARK  Name = 
REMARK  11 active torsions:
REMARK  status: ('A' for Active; 'I' for Inactive)
REMARK    1  A    between atoms: C_1  and  C_2
REMARK    2  A    between atoms: N_4  and  C_5
REMARK    3  A    between atoms: C_8  and  O_9
REMARK    4  A    between atoms: O_9  and  C_10
REMARK    5  A    between atoms: C_13  and  C_14
REMARK    6  A    between atoms: C_14  and  O_16
REMARK    7  A    between atoms: C_17  and  C_18
REMARK    8  A    between atoms: C_18  and  O_20
REMARK    9  A    between atoms: C_22  and  N_23
REMARK   10  A    between atoms: C_24  and  C_26
REMARK   11  A    between atoms: C_30  and  N_31
REMARK                            x       y       z     vdW  Elec       q    Type
REMARK                         _______ _______ _______ _____ _____    ______ ____
ROOT
ATOM      1  C   UNL     1      -2.403  11.403  18.193  0.00  0.00    +0.000 A 
ATOM      2  C   UNL     1      -2.102  10.048  18.181  0.00  0.00    +0.000 A 
ATOM      3  C   UNL     1      -0.779   9.622  18.227  0.00  0.00    +0.000 A 
ATOM      4  C   UNL     1       0.281  10.535  18.363  0.00  0.00    +0.000 A 
ATOM      5  C   UNL     1       0.012  11.917  18.278  0.00  0.00    +0.000 A 
ATOM      6  C   UNL     1      -1.344  12.329  18.206  0.00  0.00    +0.000 A 
ENDROOT
BRANCH   1  10
ATOM      7  C   UNL     1      -5.903  12.463  17.252  0.00  0.00    +0.000 C 
ATOM      8  C   UNL     1      -4.602  11.730  17.067  0.00  0.00    +0.000 C 
ATOM      9  O   UNL     1      -4.392  11.088  16.042  0.00  0.00    +0.000 OA
ATOM     10  N   UNL     1      -3.738  11.868  18.148  0.00  0.00    +0.000 N 
ATOM     11  H   UNL     1      -4.126  12.252  18.999  0.00  0.00    +0.000 HD
ENDBRANCH   1  10
BRANCH   5  12
ATOM     12  N   UNL     1       0.981  12.969  18.268  0.00  0.00    +0.000 N 
ATOM     13  C   UNL     1       1.555  13.572  19.377  0.00  0.00    +0.000 C 
ATOM     14  O   UNL     1       1.337  13.290  20.550  0.00  0.00    +0.000 OA
ATOM     15  H   UNL     1       1.443  13.121  17.382  0.00  0.00    +0.000 HD
BRANCH  13  16
ATOM     16  C   UNL     1       2.642  14.574  19.122  0.00  0.00    +0.000 A 
ATOM     17  C   UNL     1       2.236  15.913  18.971  0.00  0.00    +0.000 A 
ATOM     18  C   UNL     1       3.158  16.933  18.726  0.00  0.00    +0.000 A 
ATOM     19  C   UNL     1       4.510  16.630  18.624  0.00  0.00    +0.000 A 
ATOM     20  C   UNL     1       4.927  15.298  18.757  0.00  0.00    +0.000 A 
ATOM     21  C   UNL     1       4.001  14.258  19.004  0.00  0.00    +0.000 A 
BRANCH  20  22
ATOM     22  N   UNL     1       6.360  14.992  18.633  0.00  0.00    +0.000 N 
ATOM     23  O   UNL     1       6.823  14.822  17.499  0.00  0.00    +0.000 OA
ATOM     24  O   UNL     1       7.021  14.936  19.681  0.00  0.00    +0.000 OA
ENDBRANCH  20  22
ENDBRANCH  13  16
ENDBRANCH   5  12
BRANCH   4  25
ATOM     25  O   UNL     1       1.562  10.070  18.616  0.00  0.00    +0.000 OA
BRANCH  25  26
ATOM     26  C   UNL     1       1.711   8.806  19.148  0.00  0.00    +0.000 A 
ATOM     27  C   UNL     1       1.347   8.509  20.455  0.00  0.00    +0.000 A 
ATOM     28  C   UNL     1       1.380   7.189  20.901  0.00  0.00    +0.000 A 
ATOM     29  C   UNL     1       1.831   6.129  20.082  0.00  0.00    +0.000 A 
ATOM     30  C   UNL     1       2.274   6.456  18.781  0.00  0.00    +0.000 A 
ATOM     31  C   UNL     1       2.234   7.800  18.334  0.00  0.00    +0.000 A 
BRANCH  29  32
ATOM     32  C   UNL     1       1.695   4.780  20.734  0.00  0.00    +0.000 C 
ATOM     33  O   UNL     1       2.471   4.448  21.624  0.00  0.00    +0.000 OA
BRANCH  32  34
ATOM     34  O   UNL     1       0.692   3.958  20.395  0.00  0.00    +0.000 OA
ATOM     35  H   UNL     1       0.383   3.306  21.066  0.00  0.00    +0.000 HD
ENDBRANCH  32  34
ENDBRANCH  29  32
BRANCH  30  36
ATOM     36  C   UNL     1       2.838   5.447  17.859  0.00  0.00    +0.000 C 
ATOM     37  O   UNL     1       2.209   4.451  17.538  0.00  0.00    +0.000 OA
BRANCH  36  38
ATOM     38  O   UNL     1       4.061   5.718  17.367  0.00  0.00    +0.000 OA
ATOM     39  H   UNL     1       4.786   5.116  17.619  0.00  0.00    +0.000 HD
ENDBRANCH  36  38
ENDBRANCH  30  36
ENDBRANCH  25  26
ENDBRANCH   4  25
TORSDOF 10
ENDMDL
MODEL 8
REMARK VINA RESULT:      -8.0      6.679     11.058
REMARK  Name = 
REMARK  11 active torsions:
REMARK  status: ('A' for Active; 'I' for Inactive)
REMARK    1  A    between atoms: C_1  and  C_2
REMARK    2  A    between atoms: N_4  and  C_5
REMARK    3  A    between atoms: C_8  and  O_9
REMARK    4  A    between atoms: O_9  and  C_10
REMARK    5  A    between atoms: C_13  and  C_14
REMARK    6  A    between atoms: C_14  and  O_16
REMARK    7  A    between atoms: C_17  and  C_18
REMARK    8  A    between atoms: C_18  and  O_20
REMARK    9  A    between atoms: C_22  and  N_23
REMARK   10  A    between atoms: C_24  and  C_26
REMARK   11  A    between atoms: C_30  and  N_31
REMARK                            x       y       z     vdW  Elec       q    Type
REMARK                         _______ _______ _______ _____ _____    ______ ____
ROOT
ATOM      1  C   UNL     1      -2.316  11.442  18.721  0.00  0.00    +0.000 A 
ATOM      2  C   UNL     1      -1.974  12.588  19.425  0.00  0.00    +0.000 A 
ATOM      3  C   UNL     1      -0.731  12.692  20.039  0.00  0.00    +0.000 A 
ATOM      4  C   UNL     1       0.240  11.684  19.904  0.00  0.00    +0.000 A 
ATOM      5  C   UNL     1      -0.114  10.470  19.280  0.00  0.00    +0.000 A 
ATOM      6  C   UNL     1      -1.398  10.376  18.682  0.00  0.00    +0.000 A 
ENDROOT
BRANCH   1  10
ATOM      7  C   UNL     1      -5.970  11.231  17.797  0.00  0.00    +0.000 C 
ATOM      8  C   UNL     1      -4.799  11.632  18.652  0.00  0.00    +0.000 C 
ATOM      9  O   UNL     1      -4.980  12.193  19.728  0.00  0.00    +0.000 OA
ATOM     10  N   UNL     1      -3.572  11.306  18.086  0.00  0.00    +0.000 N 
ATOM     11  H   UNL     1      -3.573  11.035  17.111  0.00  0.00    +0.000 HD
ENDBRANCH   1  10
BRANCH   5  12
ATOM     12  N   UNL     1       0.705   9.302  19.174  0.00  0.00    +0.000 N 
ATOM     13  C   UNL     1       1.737   9.098  18.270  0.00  0.00    +0.000 C 
ATOM     14  O   UNL     1       2.125   9.894  17.422  0.00  0.00    +0.000 OA
ATOM     15  H   UNL     1       0.672   8.678  19.968  0.00  0.00    +0.000 HD
BRANCH  13  16
ATOM     16  C   UNL     1       2.541   7.840  18.424  0.00  0.00    +0.000 A 
ATOM     17  C   UNL     1       2.239   7.037  19.539  0.00  0.00    +0.000 A 
ATOM     18  C   UNL     1       2.923   5.846  19.788  0.00  0.00    +0.000 A 
ATOM     19  C   UNL     1       3.931   5.436  18.924  0.00  0.00    +0.000 A 
ATOM     20  C   UNL     1       4.253   6.235  17.817  0.00  0.00    +0.000 A 
ATOM     21  C   UNL     1       3.566   7.443  17.557  0.00  0.00    +0.000 A 
BRANCH  20  22
ATOM     22  N   UNL     1       5.330   5.794  16.920  0.00  0.00    +0.000 N 
ATOM     23  O   UNL     1       6.453   5.606  17.405  0.00  0.00    +0.000 OA
ATOM     24  O   UNL     1       5.041   5.626  15.726  0.00  0.00    +0.000 OA
ENDBRANCH  20  22
ENDBRANCH  13  16
ENDBRANCH   5  12
BRANCH   4  25
ATOM     25  O   UNL     1       1.533  11.909  20.348  0.00  0.00    +0.000 OA
BRANCH  25  26
ATOM     26  C   UNL     1       2.198  13.032  19.900  0.00  0.00    +0.000 A 
ATOM     27  C   UNL     1       2.546  13.198  18.565  0.00  0.00    +0.000 A 
ATOM     28  C   UNL     1       3.085  14.410  18.135  0.00  0.00    +0.000 A 
ATOM     29  C   UNL     1       3.348  15.474  19.026  0.00  0.00    +0.000 A 
ATOM     30  C   UNL     1       3.064  15.264  20.394  0.00  0.00    +0.000 A 
ATOM     31  C   UNL     1       2.512  14.030  20.822  0.00  0.00    +0.000 A 
BRANCH  29  32
ATOM     32  C   UNL     1       3.842  16.716  18.333  0.00  0.00    +0.000 C 
ATOM     33  O   UNL     1       4.984  17.115  18.531  0.00  0.00    +0.000 OA
BRANCH  32  34
ATOM     34  O   UNL     1       3.063  17.357  17.450  0.00  0.00    +0.000 OA
ATOM     35  H   UNL     1       3.189  18.328  17.345  0.00  0.00    +0.000 HD
ENDBRANCH  32  34
ENDBRANCH  29  32
BRANCH  30  36
ATOM     36  C   UNL     1       3.365  16.273  21.431  0.00  0.00    +0.000 C 
ATOM     37  O   UNL     1       2.506  17.027  21.860  0.00  0.00    +0.000 OA
BRANCH  36  38
ATOM     38  O   UNL     1       4.628  16.279  21.897  0.00  0.00    +0.000 OA
ATOM     39  H   UNL     1       5.307  15.838  21.353  0.00  0.00    +0.000 HD
ENDBRANCH  36  38
ENDBRANCH  30  36
ENDBRANCH  25  26
ENDBRANCH   4  25
TORSDOF 10
ENDMDL
MODEL 9
REMARK VINA RESULT:      -8.0     10.195     13.113
REMARK  Name = 
REMARK  11 active torsions:
REMARK  status: ('A' for Active; 'I' for Inactive)
REMARK    1  A    between atoms: C_1  and  C_2
REMARK    2  A    between atoms: N_4  and  C_5
REMARK    3  A    between atoms: C_8  and  O_9
REMARK    4  A    between atoms: O_9  and  C_10
REMARK    5  A    between atoms: C_13  and  C_14
REMARK    6  A    between atoms: C_14  and  O_16
REMARK    7  A    between atoms: C_17  and  C_18
REMARK    8  A    between atoms: C_18  and  O_20
REMARK    9  A    between atoms: C_22  and  N_23
REMARK   10  A    between atoms: C_24  and  C_26
REMARK   11  A    between atoms: C_30  and  N_31
REMARK                            x       y       z     vdW  Elec       q    Type
REMARK                         _______ _______ _______ _____ _____    ______ ____
ROOT
ATOM      1  C   UNL     1      -3.901  10.186  15.016  0.00  0.00    +0.000 A 
ATOM      2  C   UNL     1      -2.603   9.722  15.178  0.00  0.00    +0.000 A 
ATOM      3  C   UNL     1      -1.925   9.932  16.373  0.00  0.00    +0.000 A 
ATOM      4  C   UNL     1      -2.550  10.545  17.472  0.00  0.00    +0.000 A 
ATOM      5  C   UNL     1      -3.831  11.113  17.305  0.00  0.00    +0.000 A 
ATOM      6  C   UNL     1      -4.494  10.909  16.067  0.00  0.00    +0.000 A 
ENDROOT
BRANCH   1  10
ATOM      7  C   UNL     1      -5.048   9.703  11.451  0.00  0.00    +0.000 C 
ATOM      8  C   UNL     1      -4.048   9.702  12.576  0.00  0.00    +0.000 C 
ATOM      9  O   UNL     1      -2.866   9.460  12.355  0.00  0.00    +0.000 OA
ATOM     10  N   UNL     1      -4.617   9.988  13.812  0.00  0.00    +0.000 N 
ATOM     11  H   UNL     1      -5.626   9.963  13.870  0.00  0.00    +0.000 HD
ENDBRANCH   1  10
BRANCH   5  12
ATOM     12  N   UNL     1      -4.550  11.879  18.274  0.00  0.00    +0.000 N 
ATOM     13  C   UNL     1      -5.651  11.460  19.006  0.00  0.00    +0.000 C 
ATOM     14  O   UNL     1      -6.179  10.355  18.951  0.00  0.00    +0.000 OA
ATOM     15  H   UNL     1      -4.075  12.707  18.610  0.00  0.00    +0.000 HD
BRANCH  13  16
ATOM     16  C   UNL     1      -6.169  12.397  20.057  0.00  0.00    +0.000 A 
ATOM     17  C   UNL     1      -6.499  13.696  19.631  0.00  0.00    +0.000 A 
ATOM     18  C   UNL     1      -6.986  14.656  20.520  0.00  0.00    +0.000 A 
ATOM     19  C   UNL     1      -7.150  14.332  21.862  0.00  0.00    +0.000 A 
ATOM     20  C   UNL     1      -6.811  13.046  22.304  0.00  0.00    +0.000 A 
ATOM     21  C   UNL     1      -6.316  12.067  21.410  0.00  0.00    +0.000 A 
BRANCH  20  22
ATOM     22  N   UNL     1      -6.977  12.723  23.728  0.00  0.00    +0.000 N 
ATOM     23  O   UNL     1      -7.916  13.248  24.339  0.00  0.00    +0.000 OA
ATOM     24  O   UNL     1      -6.166  11.930  24.229  0.00  0.00    +0.000 OA
ENDBRANCH  20  22
ENDBRANCH  13  16
ENDBRANCH   5  12
BRANCH   4  25
ATOM     25  O   UNL     1      -1.922  10.550  18.708  0.00  0.00    +0.000 OA
BRANCH  25  26
ATOM     26  C   UNL     1      -0.829  11.372  18.888  0.00  0.00    +0.000 A 
ATOM     27  C   UNL     1       0.461  10.869  18.998  0.00  0.00    +0.000 A 
ATOM     28  C   UNL     1       1.546  11.744  19.032  0.00  0.00    +0.000 A 
ATOM     29  C   UNL     1       1.381  13.147  19.016  0.00  0.00    +0.000 A 
ATOM     30  C   UNL     1       0.061  13.647  18.985  0.00  0.00    +0.000 A 
ATOM     31  C   UNL     1      -1.037  12.751  18.946  0.00  0.00    +0.000 A 
BRANCH  29  32
ATOM     32  C   UNL     1       2.687  13.894  18.967  0.00  0.00    +0.000 C 
ATOM     33  O   UNL     1       3.163  14.365  19.995  0.00  0.00    +0.000 OA
BRANCH  32  34
ATOM     34  O   UNL     1       3.369  13.996  17.818  0.00  0.00    +0.000 OA
ATOM     35  H   UNL     1       3.531  14.898  17.457  0.00  0.00    +0.000 HD
ENDBRANCH  32  34
ENDBRANCH  29  32
BRANCH  30  36
ATOM     36  C   UNL     1      -0.242  15.093  19.041  0.00  0.00    +0.000 C 
ATOM     37  O   UNL     1       0.392  15.906  18.387  0.00  0.00    +0.000 OA
BRANCH  36  38
ATOM     38  O   UNL     1      -1.280  15.447  19.820  0.00  0.00    +0.000 OA
ATOM     39  H   UNL     1      -2.154  15.522  19.393  0.00  0.00    +0.000 HD
ENDBRANCH  36  38
ENDBRANCH  30  36
ENDBRANCH  25  26
ENDBRANCH   4  25
TORSDOF 10
ENDMDL
