MODEL 1
REMARK VINA RESULT:      -7.9      0.000      0.000
REMARK  Name = 
REMARK  6 active torsions:
REMARK  status: ('A' for Active; 'I' for Inactive)
REMARK    1  A    between atoms: C_1  and  C_2
REMARK    2  A    between atoms: C_5  and  C_6
REMARK    3  A    between atoms: C_11  and  C_12
REMARK    4  A    between atoms: C_17  and  C_19
REMARK    5  A    between atoms: C_19  and  C_20
REMARK    6  A    between atoms: C_19  and  C_21
REMARK                            x       y       z     vdW  Elec       q    Type
REMARK                         _______ _______ _______ _____ _____    ______ ____
ROOT
ATOM      1  C   UNL     1       3.940   3.898  19.347  0.00  0.00    +0.000 A 
ATOM      2  C   UNL     1       4.237   2.692  20.000  0.00  0.00    +0.000 A 
ATOM      3  N   UNL     1       3.608   2.206  21.098  0.00  0.00    +0.000 NA
ATOM      4  C   UNL     1       2.631   2.963  21.615  0.00  0.00    +0.000 A 
ATOM      5  C   UNL     1       2.263   4.189  21.094  0.00  0.00    +0.000 A 
ATOM      6  C   UNL     1       2.908   4.683  19.943  0.00  0.00    +0.000 A 
ENDROOT
BRANCH   6   7
ATOM      7  C   UNL     1       2.461   5.989  19.397  0.00  0.00    +0.000 A 
ATOM      8  C   UNL     1       2.503   6.473  18.103  0.00  0.00    +0.000 A 
ATOM      9  N   UNL     1       2.157   7.797  17.933  0.00  0.00    +0.000 NA
ATOM     10  C   UNL     1       1.802   8.308  19.080  0.00  0.00    +0.000 A 
ATOM     11  N   UNL     1       1.416   9.597  19.340  0.00  0.00    +0.000 N 
ATOM     12  C   UNL     1       1.750  10.615  18.469  0.00  0.00    +0.000 C 
ATOM     13  O   UNL     1       2.543  10.513  17.531  0.00  0.00    +0.000 OA
ATOM     14  S   UNL     1       1.796   7.237  20.407  0.00  0.00    +0.000 S 
ATOM     15  H   UNL     1       1.014   9.798  20.243  0.00  0.00    +0.000 HD
BRANCH  12  16
ATOM     16  C   UNL     1       1.077  11.949  18.788  0.00  0.00    +0.000 C 
ATOM     17  C   UNL     1       0.704  12.023  20.273  0.00  0.00    +0.000 C 
ATOM     18  C   UNL     1       2.000  13.111  18.431  0.00  0.00    +0.000 C 
ENDBRANCH  12  16
ENDBRANCH   6   7
BRANCH   1  23
ATOM     19  C   UNL     1       7.071   4.867  14.506  0.00  0.00    +0.000 C 
ATOM     20  C   UNL     1       6.225   4.713  15.734  0.00  0.00    +0.000 A 
ATOM     21  C   UNL     1       4.989   4.073  15.685  0.00  0.00    +0.000 A 
ATOM     22  C   UNL     1       4.227   3.908  16.849  0.00  0.00    +0.000 A 
ATOM     23  C   UNL     1       4.708   4.283  18.121  0.00  0.00    +0.000 A 
ATOM     24  C   UNL     1       5.944   4.974  18.141  0.00  0.00    +0.000 A 
ATOM     25 CL   UNL     1       6.704   5.521  19.600  0.00  0.00    +0.000 Cl
ATOM     26  C   UNL     1       6.671   5.206  16.962  0.00  0.00    +0.000 A 
ENDBRANCH   1  23
TORSDOF 3
ENDMDL
MODEL 2
REMARK VINA RESULT:      -7.9      2.112      2.724
REMARK  Name = 
REMARK  6 active torsions:
REMARK  status: ('A' for Active; 'I' for Inactive)
REMARK    1  A    between atoms: C_1  and  C_2
REMARK    2  A    between atoms: C_5  and  C_6
REMARK    3  A    between atoms: C_11  and  C_12
REMARK    4  A    between atoms: C_17  and  C_19
REMARK    5  A    between atoms: C_19  and  C_20
REMARK    6  A    between atoms: C_19  and  C_21
REMARK                            x       y       z     vdW  Elec       q    Type
REMARK                         _______ _______ _______ _____ _____    ______ ____
ROOT
ATOM      1  C   UNL     1       3.965   4.120  18.146  0.00  0.00    +0.000 A 
ATOM      2  C   UNL     1       4.027   2.780  17.733  0.00  0.00    +0.000 A 
ATOM      3  N   UNL     1       2.983   1.917  17.671  0.00  0.00    +0.000 NA
ATOM      4  C   UNL     1       1.792   2.387  18.063  0.00  0.00    +0.000 A 
ATOM      5  C   UNL     1       1.597   3.674  18.528  0.00  0.00    +0.000 A 
ATOM      6  C   UNL     1       2.681   4.572  18.576  0.00  0.00    +0.000 A 
ENDROOT
BRANCH   6   7
ATOM      7  C   UNL     1       2.423   5.955  19.050  0.00  0.00    +0.000 A 
ATOM      8  C   UNL     1       2.080   6.415  20.306  0.00  0.00    +0.000 A 
ATOM      9  N   UNL     1       1.747   7.750  20.400  0.00  0.00    +0.000 NA
ATOM     10  C   UNL     1       1.885   8.319  19.234  0.00  0.00    +0.000 A 
ATOM     11  N   UNL     1       1.629   9.624  18.903  0.00  0.00    +0.000 N 
ATOM     12  C   UNL     1       0.802  10.397  19.694  0.00  0.00    +0.000 C 
ATOM     13  O   UNL     1       0.097   9.969  20.610  0.00  0.00    +0.000 OA
ATOM     14  S   UNL     1       2.476   7.326  17.982  0.00  0.00    +0.000 S 
ATOM     15  H   UNL     1       1.942   9.954  18.002  0.00  0.00    +0.000 HD
BRANCH  12  16
ATOM     16  C   UNL     1       0.781  11.875  19.309  0.00  0.00    +0.000 C 
ATOM     17  C   UNL     1       1.985  12.220  18.427  0.00  0.00    +0.000 C 
ATOM     18  C   UNL     1      -0.512  12.215  18.570  0.00  0.00    +0.000 C 
ENDBRANCH  12  16
ENDBRANCH   6   7
BRANCH   1  23
ATOM     19  C   UNL     1       8.539   7.753  18.391  0.00  0.00    +0.000 C 
ATOM     20  C   UNL     1       7.431   6.746  18.296  0.00  0.00    +0.000 A 
ATOM     21  C   UNL     1       7.029   6.007  19.406  0.00  0.00    +0.000 A 
ATOM     22  C   UNL     1       5.970   5.096  19.308  0.00  0.00    +0.000 A 
ATOM     23  C   UNL     1       5.206   4.956  18.130  0.00  0.00    +0.000 A 
ATOM     24  C   UNL     1       5.663   5.681  17.002  0.00  0.00    +0.000 A 
ATOM     25 CL   UNL     1       4.867   5.644  15.462  0.00  0.00    +0.000 Cl
ATOM     26  C   UNL     1       6.773   6.537  17.083  0.00  0.00    +0.000 A 
ENDBRANCH   1  23
TORSDOF 3
ENDMDL
MODEL 3
REMARK VINA RESULT:      -7.4      1.181      1.520
REMARK  Name = 
REMARK  6 active torsions:
REMARK  status: ('A' for Active; 'I' for Inactive)
REMARK    1  A    between atoms: C_1  and  C_2
REMARK    2  A    between atoms: C_5  and  C_6
REMARK    3  A    between atoms: C_11  and  C_12
REMARK    4  A    between atoms: C_17  and  C_19
REMARK    5  A    between atoms: C_19  and  C_20
REMARK    6  A    between atoms: C_19  and  C_21
REMARK                            x       y       z     vdW  Elec       q    Type
REMARK                         _______ _______ _______ _____ _____    ______ ____
ROOT
ATOM      1  C   UNL     1       3.724   3.746  19.696  0.00  0.00    +0.000 A 
ATOM      2  C   UNL     1       3.932   2.565  20.426  0.00  0.00    +0.000 A 
ATOM      3  N   UNL     1       3.233   2.171  21.519  0.00  0.00    +0.000 NA
ATOM      4  C   UNL     1       2.274   3.001  21.949  0.00  0.00    +0.000 A 
ATOM      5  C   UNL     1       1.990   4.213  21.347  0.00  0.00    +0.000 A 
ATOM      6  C   UNL     1       2.708   4.611  20.202  0.00  0.00    +0.000 A 
ENDROOT
BRANCH   6   7
ATOM      7  C   UNL     1       2.350   5.903  19.566  0.00  0.00    +0.000 A 
ATOM      8  C   UNL     1       2.481   6.315  18.254  0.00  0.00    +0.000 A 
ATOM      9  N   UNL     1       2.206   7.642  17.998  0.00  0.00    +0.000 NA
ATOM     10  C   UNL     1       1.817   8.229  19.097  0.00  0.00    +0.000 A 
ATOM     11  N   UNL     1       1.478   9.545  19.270  0.00  0.00    +0.000 N 
ATOM     12  C   UNL     1       1.903  10.500  18.367  0.00  0.00    +0.000 C 
ATOM     13  O   UNL     1       2.738  10.314  17.479  0.00  0.00    +0.000 OA
ATOM     14  S   UNL     1       1.694   7.232  20.474  0.00  0.00    +0.000 S 
ATOM     15  H   UNL     1       1.040   9.812  20.139  0.00  0.00    +0.000 HD
BRANCH  12  16
ATOM     16  C   UNL     1       1.277  11.877  18.582  0.00  0.00    +0.000 C 
ATOM     17  C   UNL     1       0.814  12.039  20.033  0.00  0.00    +0.000 C 
ATOM     18  C   UNL     1       2.278  12.977  18.235  0.00  0.00    +0.000 C 
ENDBRANCH  12  16
ENDBRANCH   6   7
BRANCH   1  23
ATOM     19  C   UNL     1       6.885   5.370  15.054  0.00  0.00    +0.000 C 
ATOM     20  C   UNL     1       6.123   4.861  16.241  0.00  0.00    +0.000 A 
ATOM     21  C   UNL     1       6.556   5.114  17.541  0.00  0.00    +0.000 A 
ATOM     22  C   UNL     1       5.814   4.660  18.639  0.00  0.00    +0.000 A 
ATOM     23  C   UNL     1       4.563   4.025  18.489  0.00  0.00    +0.000 A 
ATOM     24  C   UNL     1       4.167   3.735  17.160  0.00  0.00    +0.000 A 
ATOM     25 CL   UNL     1       2.669   2.958  16.763  0.00  0.00    +0.000 Cl
ATOM     26  C   UNL     1       4.951   4.124  16.062  0.00  0.00    +0.000 A 
ENDBRANCH   1  23
TORSDOF 3
ENDMDL
MODEL 4
REMARK VINA RESULT:      -7.2      3.150      6.389
REMARK  Name = 
REMARK  6 active torsions:
REMARK  status: ('A' for Active; 'I' for Inactive)
REMARK    1  A    between atoms: C_1  and  C_2
REMARK    2  A    between atoms: C_5  and  C_6
REMARK    3  A    between atoms: C_11  and  C_12
REMARK    4  A    between atoms: C_17  and  C_19
REMARK    5  A    between atoms: C_19  and  C_20
REMARK    6  A    between atoms: C_19  and  C_21
REMARK                            x       y       z     vdW  Elec       q    Type
REMARK                         _______ _______ _______ _____ _____    ______ ____
ROOT
ATOM      1  C   UNL     1       2.517   4.478  20.211  0.00  0.00    +0.000 A 
ATOM      2  C   UNL     1       1.642   4.116  21.248  0.00  0.00    +0.000 A 
ATOM      3  N   UNL     1       1.713   2.983  21.990  0.00  0.00    +0.000 NA
ATOM      4  C   UNL     1       2.695   2.126  21.684  0.00  0.00    +0.000 A 
ATOM      5  C   UNL     1       3.601   2.340  20.662  0.00  0.00    +0.000 A 
ATOM      6  C   UNL     1       3.534   3.526  19.905  0.00  0.00    +0.000 A 
ENDROOT
BRANCH   6   7
ATOM      7  C   UNL     1       4.546   3.733  18.839  0.00  0.00    +0.000 A 
ATOM      8  C   UNL     1       5.684   4.516  18.833  0.00  0.00    +0.000 A 
ATOM      9  N   UNL     1       6.344   4.628  17.627  0.00  0.00    +0.000 NA
ATOM     10  C   UNL     1       5.745   3.895  16.729  0.00  0.00    +0.000 A 
ATOM     11  N   UNL     1       6.072   3.756  15.406  0.00  0.00    +0.000 N 
ATOM     12  C   UNL     1       6.850   4.708  14.775  0.00  0.00    +0.000 C 
ATOM     13  O   UNL     1       7.149   5.805  15.248  0.00  0.00    +0.000 OA
ATOM     14  S   UNL     1       4.411   2.985  17.275  0.00  0.00    +0.000 S 
ATOM     15  H   UNL     1       5.615   3.027  14.879  0.00  0.00    +0.000 HD
BRANCH  12  16
ATOM     16  C   UNL     1       7.295   4.309  13.369  0.00  0.00    +0.000 C 
ATOM     17  C   UNL     1       6.132   3.688  12.590  0.00  0.00    +0.000 C 
ATOM     18  C   UNL     1       7.829   5.525  12.615  0.00  0.00    +0.000 C 
ENDBRANCH  12  16
ENDBRANCH   6   7
BRANCH   1  23
ATOM     19  C   UNL     1       1.322   9.656  17.773  0.00  0.00    +0.000 C 
ATOM     20  C   UNL     1       1.724   8.333  18.356  0.00  0.00    +0.000 A 
ATOM     21  C   UNL     1       2.242   8.238  19.645  0.00  0.00    +0.000 A 
ATOM     22  C   UNL     1       2.580   6.991  20.186  0.00  0.00    +0.000 A 
ATOM     23  C   UNL     1       2.323   5.782  19.504  0.00  0.00    +0.000 A 
ATOM     24  C   UNL     1       1.842   5.905  18.178  0.00  0.00    +0.000 A 
ATOM     25 CL   UNL     1       1.468   4.543  17.172  0.00  0.00    +0.000 Cl
ATOM     26  C   UNL     1       1.576   7.162  17.610  0.00  0.00    +0.000 A 
ENDBRANCH   1  23
TORSDOF 3
ENDMDL
MODEL 5
REMARK VINA RESULT:      -7.1      2.293      4.354
REMARK  Name = 
REMARK  6 active torsions:
REMARK  status: ('A' for Active; 'I' for Inactive)
REMARK    1  A    between atoms: C_1  and  C_2
REMARK    2  A    between atoms: C_5  and  C_6
REMARK    3  A    between atoms: C_11  and  C_12
REMARK    4  A    between atoms: C_17  and  C_19
REMARK    5  A    between atoms: C_19  and  C_20
REMARK    6  A    between atoms: C_19  and  C_21
REMARK                            x       y       z     vdW  Elec       q    Type
REMARK                         _______ _______ _______ _____ _____    ______ ____
ROOT
ATOM      1  C   UNL     1       3.841   4.903  17.487  0.00  0.00    +0.000 A 
ATOM      2  C   UNL     1       4.589   4.239  16.502  0.00  0.00    +0.000 A 
ATOM      3  N   UNL     1       5.277   4.828  15.493  0.00  0.00    +0.000 NA
ATOM      4  C   UNL     1       5.213   6.164  15.422  0.00  0.00    +0.000 A 
ATOM      5  C   UNL     1       4.482   6.938  16.304  0.00  0.00    +0.000 A 
ATOM      6  C   UNL     1       3.782   6.324  17.361  0.00  0.00    +0.000 A 
ENDROOT
BRANCH   6   7
ATOM      7  C   UNL     1       3.037   7.193  18.306  0.00  0.00    +0.000 A 
ATOM      8  C   UNL     1       2.757   7.015  19.647  0.00  0.00    +0.000 A 
ATOM      9  N   UNL     1       1.899   7.930  20.220  0.00  0.00    +0.000 NA
ATOM     10  C   UNL     1       1.567   8.831  19.338  0.00  0.00    +0.000 A 
ATOM     11  N   UNL     1       0.714   9.892  19.504  0.00  0.00    +0.000 N 
ATOM     12  C   UNL     1      -0.212   9.890  20.528  0.00  0.00    +0.000 C 
ATOM     13  O   UNL     1      -0.485   8.918  21.234  0.00  0.00    +0.000 OA
ATOM     14  S   UNL     1       2.298   8.685  17.805  0.00  0.00    +0.000 S 
ATOM     15  H   UNL     1       0.687  10.595  18.780  0.00  0.00    +0.000 HD
BRANCH  12  16
ATOM     16  C   UNL     1      -0.942  11.220  20.704  0.00  0.00    +0.000 C 
ATOM     17  C   UNL     1      -0.694  11.791  22.105  0.00  0.00    +0.000 C 
ATOM     18  C   UNL     1      -0.481  12.225  19.651  0.00  0.00    +0.000 C 
ENDBRANCH  12  16
ENDBRANCH   6   7
BRANCH   1  23
ATOM     19  C   UNL     1       1.007   2.284  21.878  0.00  0.00    +0.000 C 
ATOM     20  C   UNL     1       1.738   2.863  20.704  0.00  0.00    +0.000 A 
ATOM     21  C   UNL     1       1.053   3.449  19.643  0.00  0.00    +0.000 A 
ATOM     22  C   UNL     1       1.753   4.016  18.570  0.00  0.00    +0.000 A 
ATOM     23  C   UNL     1       3.161   4.110  18.558  0.00  0.00    +0.000 A 
ATOM     24  C   UNL     1       3.838   3.465  19.622  0.00  0.00    +0.000 A 
ATOM     25 CL   UNL     1       5.563   3.463  19.789  0.00  0.00    +0.000 Cl
ATOM     26  C   UNL     1       3.133   2.831  20.659  0.00  0.00    +0.000 A 
ENDBRANCH   1  23
TORSDOF 3
ENDMDL
MODEL 6
REMARK VINA RESULT:      -7.1      4.539      6.374
REMARK  Name = 
REMARK  6 active torsions:
REMARK  status: ('A' for Active; 'I' for Inactive)
REMARK    1  A    between atoms: C_1  and  C_2
REMARK    2  A    between atoms: C_5  and  C_6
REMARK    3  A    between atoms: C_11  and  C_12
REMARK    4  A    between atoms: C_17  and  C_19
REMARK    5  A    between atoms: C_19  and  C_20
REMARK    6  A    between atoms: C_19  and  C_21
REMARK                            x       y       z     vdW  Elec       q    Type
REMARK                         _______ _______ _______ _____ _____    ______ ____
ROOT
ATOM      1  C   UNL     1       5.085   5.327  16.874  0.00  0.00    +0.000 A 
ATOM      2  C   UNL     1       4.755   4.157  16.171  0.00  0.00    +0.000 A 
ATOM      3  N   UNL     1       5.574   3.471  15.337  0.00  0.00    +0.000 NA
ATOM      4  C   UNL     1       6.802   3.975  15.154  0.00  0.00    +0.000 A 
ATOM      5  C   UNL     1       7.243   5.140  15.753  0.00  0.00    +0.000 A 
ATOM      6  C   UNL     1       6.394   5.841  16.631  0.00  0.00    +0.000 A 
ENDROOT
BRANCH   6   7
ATOM      7  C   UNL     1       6.917   7.069  17.280  0.00  0.00    +0.000 A 
ATOM      8  C   UNL     1       6.656   8.398  17.009  0.00  0.00    +0.000 A 
ATOM      9  N   UNL     1       7.425   9.324  17.684  0.00  0.00    +0.000 NA
ATOM     10  C   UNL     1       8.232   8.708  18.504  0.00  0.00    +0.000 A 
ATOM     11  N   UNL     1       9.172   9.265  19.331  0.00  0.00    +0.000 N 
ATOM     12  C   UNL     1       9.649  10.539  19.088  0.00  0.00    +0.000 C 
ATOM     13  O   UNL     1       9.441  11.189  18.063  0.00  0.00    +0.000 OA
ATOM     14  S   UNL     1       8.083   7.011  18.568  0.00  0.00    +0.000 S 
ATOM     15  H   UNL     1       9.603   8.673  20.024  0.00  0.00    +0.000 HD
BRANCH  12  16
ATOM     16  C   UNL     1      10.530  11.093  20.206  0.00  0.00    +0.000 C 
ATOM     17  C   UNL     1      11.760  11.797  19.625  0.00  0.00    +0.000 C 
ATOM     18  C   UNL     1       9.740  12.070  21.074  0.00  0.00    +0.000 C 
ENDBRANCH  12  16
ENDBRANCH   6   7
BRANCH   1  23
ATOM     19  C   UNL     1       1.512   8.159  20.534  0.00  0.00    +0.000 C 
ATOM     20  C   UNL     1       2.345   7.381  19.559  0.00  0.00    +0.000 A 
ATOM     21  C   UNL     1       2.648   7.890  18.299  0.00  0.00    +0.000 A 
ATOM     22  C   UNL     1       3.456   7.164  17.414  0.00  0.00    +0.000 A 
ATOM     23  C   UNL     1       4.075   5.951  17.784  0.00  0.00    +0.000 A 
ATOM     24  C   UNL     1       3.714   5.429  19.050  0.00  0.00    +0.000 A 
ATOM     25 CL   UNL     1       4.360   3.953  19.688  0.00  0.00    +0.000 Cl
ATOM     26  C   UNL     1       2.843   6.123  19.906  0.00  0.00    +0.000 A 
ENDBRANCH   1  23
TORSDOF 3
ENDMDL
MODEL 7
REMARK VINA RESULT:      -6.9      7.836     10.245
REMARK  Name = 
REMARK  6 active torsions:
REMARK  status: ('A' for Active; 'I' for Inactive)
REMARK    1  A    between atoms: C_1  and  C_2
REMARK    2  A    between atoms: C_5  and  C_6
REMARK    3  A    between atoms: C_11  and  C_12
REMARK    4  A    between atoms: C_17  and  C_19
REMARK    5  A    between atoms: C_19  and  C_20
REMARK    6  A    between atoms: C_19  and  C_21
REMARK                            x       y       z     vdW  Elec       q    Type
REMARK                         _______ _______ _______ _____ _____    ______ ____
ROOT
ATOM      1  C   UNL     1       9.948  14.385  18.944  0.00  0.00    +0.000 A 
ATOM      2  C   UNL     1      10.872  15.077  18.145  0.00  0.00    +0.000 A 
ATOM      3  N   UNL     1      11.273  16.360  18.320  0.00  0.00    +0.000 NA
ATOM      4  C   UNL     1      10.713  17.030  19.336  0.00  0.00    +0.000 A 
ATOM      5  C   UNL     1       9.762  16.482  20.176  0.00  0.00    +0.000 A 
ATOM      6  C   UNL     1       9.361  15.143  20.001  0.00  0.00    +0.000 A 
ENDROOT
BRANCH   6   7
ATOM      7  C   UNL     1       8.362  14.582  20.945  0.00  0.00    +0.000 A 
ATOM      8  C   UNL     1       6.982  14.646  20.921  0.00  0.00    +0.000 A 
ATOM      9  N   UNL     1       6.327  14.161  22.034  0.00  0.00    +0.000 NA
ATOM     10  C   UNL     1       7.197  13.681  22.880  0.00  0.00    +0.000 A 
ATOM     11  N   UNL     1       6.954  13.135  24.113  0.00  0.00    +0.000 N 
ATOM     12  C   UNL     1       5.771  13.401  24.774  0.00  0.00    +0.000 C 
ATOM     13  O   UNL     1       4.949  14.256  24.438  0.00  0.00    +0.000 OA
ATOM     14  S   UNL     1       8.826  13.719  22.380  0.00  0.00    +0.000 S 
ATOM     15  H   UNL     1       7.712  12.659  24.578  0.00  0.00    +0.000 HD
BRANCH  12  16
ATOM     16  C   UNL     1       5.563  12.562  26.033  0.00  0.00    +0.000 C 
ATOM     17  C   UNL     1       5.715  11.070  25.718  0.00  0.00    +0.000 C 
ATOM     18  C   UNL     1       6.565  12.963  27.113  0.00  0.00    +0.000 C 
ENDBRANCH  12  16
ENDBRANCH   6   7
BRANCH   1  23
ATOM     19  C   UNL     1       8.251   8.864  18.040  0.00  0.00    +0.000 C 
ATOM     20  C   UNL     1       8.754  10.268  18.194  0.00  0.00    +0.000 A 
ATOM     21  C   UNL     1       8.119  11.337  17.567  0.00  0.00    +0.000 A 
ATOM     22  C   UNL     1       8.581  12.646  17.748  0.00  0.00    +0.000 A 
ATOM     23  C   UNL     1       9.632  12.955  18.638  0.00  0.00    +0.000 A 
ATOM     24  C   UNL     1      10.295  11.850  19.226  0.00  0.00    +0.000 A 
ATOM     25 CL   UNL     1      11.610  12.015  20.343  0.00  0.00    +0.000 Cl
ATOM     26  C   UNL     1       9.876  10.532  18.982  0.00  0.00    +0.000 A 
ENDBRANCH   1  23
TORSDOF 3
ENDMDL
MODEL 8
REMARK VINA RESULT:      -6.9      3.891      9.305
REMARK  Name = 
REMARK  6 active torsions:
REMARK  status: ('A' for Active; 'I' for Inactive)
REMARK    1  A    between atoms: C_1  and  C_2
REMARK    2  A    between atoms: C_5  and  C_6
REMARK    3  A    between atoms: C_11  and  C_12
REMARK    4  A    between atoms: C_17  and  C_19
REMARK    5  A    between atoms: C_19  and  C_20
REMARK    6  A    between atoms: C_19  and  C_21
REMARK                            x       y       z     vdW  Elec       q    Type
REMARK                         _______ _______ _______ _____ _____    ______ ____
ROOT
ATOM      1  C   UNL     1      -0.076  13.096  18.906  0.00  0.00    +0.000 A 
ATOM      2  C   UNL     1       0.044  14.495  18.891  0.00  0.00    +0.000 A 
ATOM      3  N   UNL     1       1.201  15.196  18.993  0.00  0.00    +0.000 NA
ATOM      4  C   UNL     1       2.323  14.481  19.146  0.00  0.00    +0.000 A 
ATOM      5  C   UNL     1       2.343  13.101  19.215  0.00  0.00    +0.000 A 
ATOM      6  C   UNL     1       1.142  12.376  19.092  0.00  0.00    +0.000 A 
ENDROOT
BRANCH   6   7
ATOM      7  C   UNL     1       1.210  10.894  19.139  0.00  0.00    +0.000 A 
ATOM      8  C   UNL     1       0.836  10.017  20.138  0.00  0.00    +0.000 A 
ATOM      9  N   UNL     1       1.174   8.693  19.951  0.00  0.00    +0.000 NA
ATOM     10  C   UNL     1       1.756   8.550  18.792  0.00  0.00    +0.000 A 
ATOM     11  N   UNL     1       2.264   7.401  18.245  0.00  0.00    +0.000 N 
ATOM     12  C   UNL     1       2.575   6.323  19.050  0.00  0.00    +0.000 C 
ATOM     13  O   UNL     1       2.612   6.346  20.282  0.00  0.00    +0.000 OA
ATOM     14  S   UNL     1       1.878   9.957  17.836  0.00  0.00    +0.000 S 
ATOM     15  H   UNL     1       2.534   7.418  17.273  0.00  0.00    +0.000 HD
BRANCH  12  16
ATOM     16  C   UNL     1       2.933   5.055  18.277  0.00  0.00    +0.000 C 
ATOM     17  C   UNL     1       3.732   4.091  19.160  0.00  0.00    +0.000 C 
ATOM     18  C   UNL     1       1.669   4.363  17.772  0.00  0.00    +0.000 C 
ENDBRANCH  12  16
ENDBRANCH   6   7
BRANCH   1  23
ATOM     19  C   UNL     1      -5.465  11.048  17.935  0.00  0.00    +0.000 C 
ATOM     20  C   UNL     1      -4.060  11.481  18.228  0.00  0.00    +0.000 A 
ATOM     21  C   UNL     1      -3.052  11.358  17.274  0.00  0.00    +0.000 A 
ATOM     22  C   UNL     1      -1.752  11.800  17.552  0.00  0.00    +0.000 A 
ATOM     23  C   UNL     1      -1.426  12.470  18.750  0.00  0.00    +0.000 A 
ATOM     24  C   UNL     1      -2.453  12.540  19.724  0.00  0.00    +0.000 A 
ATOM     25 CL   UNL     1      -2.254  13.318  21.260  0.00  0.00    +0.000 Cl
ATOM     26  C   UNL     1      -3.736  12.028  19.471  0.00  0.00    +0.000 A 
ENDBRANCH   1  23
TORSDOF 3
ENDMDL
MODEL 9
REMARK VINA RESULT:      -6.9      2.471      4.662
REMARK  Name = 
REMARK  6 active torsions:
REMARK  status: ('A' for Active; 'I' for Inactive)
REMARK    1  A    between atoms: C_1  and  C_2
REMARK    2  A    between atoms: C_5  and  C_6
REMARK    3  A    between atoms: C_11  and  C_12
REMARK    4  A    between atoms: C_17  and  C_19
REMARK    5  A    between atoms: C_19  and  C_20
REMARK    6  A    between atoms: C_19  and  C_21
REMARK                            x       y       z     vdW  Elec       q    Type
REMARK                         _______ _______ _______ _____ _____    ______ ____
ROOT
ATOM      1  C   UNL     1       3.877   5.341  18.123  0.00  0.00    +0.000 A 
ATOM      2  C   UNL     1       4.917   4.632  17.503  0.00  0.00    +0.000 A 
ATOM      3  N   UNL     1       5.781   5.128  16.583  0.00  0.00    +0.000 NA
ATOM      4  C   UNL     1       5.603   6.405  16.221  0.00  0.00    +0.000 A 
ATOM      5  C   UNL     1       4.595   7.206  16.724  0.00  0.00    +0.000 A 
ATOM      6  C   UNL     1       3.710   6.691  17.692  0.00  0.00    +0.000 A 
ENDROOT
BRANCH   6   7
ATOM      7  C   UNL     1       2.663   7.593  18.232  0.00  0.00    +0.000 A 
ATOM      8  C   UNL     1       2.018   8.662  17.640  0.00  0.00    +0.000 A 
ATOM      9  N   UNL     1       1.199   9.413  18.457  0.00  0.00    +0.000 NA
ATOM     10  C   UNL     1       1.176   8.891  19.653  0.00  0.00    +0.000 A 
ATOM     11  N   UNL     1       0.507   9.352  20.756  0.00  0.00    +0.000 N 
ATOM     12  C   UNL     1       0.093  10.668  20.823  0.00  0.00    +0.000 C 
ATOM     13  O   UNL     1       0.431  11.557  20.039  0.00  0.00    +0.000 OA
ATOM     14  S   UNL     1       2.068   7.453  19.859  0.00  0.00    +0.000 S 
ATOM     15  H   UNL     1       0.453   8.750  21.564  0.00  0.00    +0.000 HD
BRANCH  12  16
ATOM     16  C   UNL     1      -0.812  10.973  22.015  0.00  0.00    +0.000 C 
ATOM     17  C   UNL     1      -0.475  10.058  23.197  0.00  0.00    +0.000 C 
ATOM     18  C   UNL     1      -0.666  12.433  22.437  0.00  0.00    +0.000 C 
ENDBRANCH  12  16
ENDBRANCH   6   7
BRANCH   1  23
ATOM     19  C   UNL     1       0.914   2.257  22.109  0.00  0.00    +0.000 C 
ATOM     20  C   UNL     1       1.619   3.132  21.116  0.00  0.00    +0.000 A 
ATOM     21  C   UNL     1       2.829   3.747  21.424  0.00  0.00    +0.000 A 
ATOM     22  C   UNL     1       3.491   4.533  20.473  0.00  0.00    +0.000 A 
ATOM     23  C   UNL     1       3.025   4.658  19.147  0.00  0.00    +0.000 A 
ATOM     24  C   UNL     1       1.769   4.065  18.869  0.00  0.00    +0.000 A 
ATOM     25 CL   UNL     1       1.022   4.108  17.306  0.00  0.00    +0.000 Cl
ATOM     26  C   UNL     1       1.070   3.340  19.849  0.00  0.00    +0.000 A 
ENDBRANCH   1  23
TORSDOF 3
ENDMDL
