MODEL 1
REMARK VINA RESULT:      -9.2      0.000      0.000
REMARK  Name = 
REMARK  6 active torsions:
REMARK  status: ('A' for Active; 'I' for Inactive)
REMARK    1  A    between atoms: C_9  and  C_10
REMARK    2  A    between atoms: N_12  and  C_13
REMARK    3  A    between atoms: C_17  and  C_18
REMARK    4  A    between atoms: C_18  and  N_19
REMARK    5  A    between atoms: N_22  and  C_23
REMARK    6  A    between atoms: C_26  and  C_27
REMARK                            x       y       z     vdW  Elec       q    Type
REMARK                         _______ _______ _______ _____ _____    ______ ____
ROOT
ATOM      1  C   UNL     1       3.493   5.967  18.836  0.00  0.00    +0.000 A 
ATOM      2  C   UNL     1       2.905   4.742  18.508  0.00  0.00    +0.000 A 
ATOM      3  C   UNL     1       3.609   3.778  17.785  0.00  0.00    +0.000 A 
ATOM      4  C   UNL     1       4.925   4.016  17.403  0.00  0.00    +0.000 A 
ATOM      5  C   UNL     1       5.551   5.217  17.759  0.00  0.00    +0.000 A 
ATOM      6  C   UNL     1       4.822   6.193  18.459  0.00  0.00    +0.000 A 
ENDROOT
BRANCH   1   9
ATOM      7  C   UNL     1       2.089   8.018  19.041  0.00  0.00    +0.000 C 
ATOM      8  O   UNL     1       2.038   8.304  17.848  0.00  0.00    +0.000 OA
ATOM      9  N   UNL     1       2.836   6.984  19.565  0.00  0.00    +0.000 N 
ATOM     10  H   UNL     1       2.960   6.960  20.575  0.00  0.00    +0.000 HD
BRANCH   7  19
ATOM     11  N   UNL     1       2.004  11.269  17.811  0.00  0.00    +0.000 N 
ATOM     12  C   UNL     1       1.266  11.330  18.949  0.00  0.00    +0.000 A 
ATOM     13  N   UNL     1       0.685  12.459  19.349  0.00  0.00    +0.000 NA
ATOM     14  O   UNL     1       0.076  12.163  20.548  0.00  0.00    +0.000 OA
ATOM     15  C   UNL     1       0.267  10.852  20.841  0.00  0.00    +0.000 A 
ATOM     16  C   UNL     1      -0.224  10.222  21.983  0.00  0.00    +0.000 A 
ATOM     17  C   UNL     1       0.051   8.866  22.110  0.00  0.00    +0.000 A 
ATOM     18  C   UNL     1       0.784   8.202  21.129  0.00  0.00    +0.000 A 
ATOM     19  C   UNL     1       1.288   8.861  19.975  0.00  0.00    +0.000 A 
ATOM     20  C   UNL     1       1.017  10.243  19.838  0.00  0.00    +0.000 A 
ATOM     21  H   UNL     1       1.902  12.133  17.273  0.00  0.00    +0.000 HD
ATOM     22  H   UNL     1       3.010  11.181  17.986  0.00  0.00    +0.000 HD
ENDBRANCH   7  19
ENDBRANCH   1   9
BRANCH   5  23
ATOM     23  C   UNL     1       6.992   5.444  17.414  0.00  0.00    +0.000 C 
BRANCH  23  24
ATOM     24  N   UNL     1       7.680   6.256  18.394  0.00  0.00    +0.000 N 
ATOM     25  C   UNL     1       7.984   7.541  18.006  0.00  0.00    +0.000 C 
ATOM     26  O   UNL     1       7.743   7.943  16.872  0.00  0.00    +0.000 OA
ATOM     27  N   UNL     1       8.592   8.259  19.008  0.00  0.00    +0.000 N 
ATOM     28  H   UNL     1       7.390   6.145  19.352  0.00  0.00    +0.000 HD
ATOM     29  H   UNL     1       9.038   7.712  19.729  0.00  0.00    +0.000 HD
BRANCH  27  30
ATOM     30  C   UNL     1       8.894   9.639  18.951  0.00  0.00    +0.000 A 
ATOM     31  C   UNL     1       9.650  10.286  19.934  0.00  0.00    +0.000 A 
ATOM     32  C   UNL     1       9.945  11.647  19.833  0.00  0.00    +0.000 A 
ATOM     33  C   UNL     1       9.501  12.393  18.738  0.00  0.00    +0.000 A 
ATOM     34  C   UNL     1       8.736  11.746  17.753  0.00  0.00    +0.000 A 
ATOM     35  C   UNL     1       8.443  10.379  17.855  0.00  0.00    +0.000 A 
BRANCH  33  36
ATOM     36  C   UNL     1       9.859  13.852  18.604  0.00  0.00    +0.000 C 
ATOM     37  F   UNL     1       9.673  14.567  19.750  0.00  0.00    +0.000 F 
ATOM     38  F   UNL     1      11.166  14.033  18.263  0.00  0.00    +0.000 F 
ATOM     39  F   UNL     1       9.130  14.487  17.646  0.00  0.00    +0.000 F 
ENDBRANCH  33  36
ENDBRANCH  27  30
ENDBRANCH  23  24
ENDBRANCH   5  23
TORSDOF 6
ENDMDL
MODEL 2
REMARK VINA RESULT:      -9.0      0.996      1.168
REMARK  Name = 
REMARK  6 active torsions:
REMARK  status: ('A' for Active; 'I' for Inactive)
REMARK    1  A    between atoms: C_9  and  C_10
REMARK    2  A    between atoms: N_12  and  C_13
REMARK    3  A    between atoms: C_17  and  C_18
REMARK    4  A    between atoms: C_18  and  N_19
REMARK    5  A    between atoms: N_22  and  C_23
REMARK    6  A    between atoms: C_26  and  C_27
REMARK                            x       y       z     vdW  Elec       q    Type
REMARK                         _______ _______ _______ _____ _____    ______ ____
ROOT
ATOM      1  C   UNL     1       3.475   5.703  18.685  0.00  0.00    +0.000 A 
ATOM      2  C   UNL     1       2.965   4.430  18.414  0.00  0.00    +0.000 A 
ATOM      3  C   UNL     1       3.685   3.519  17.640  0.00  0.00    +0.000 A 
ATOM      4  C   UNL     1       4.941   3.859  17.149  0.00  0.00    +0.000 A 
ATOM      5  C   UNL     1       5.492   5.111  17.446  0.00  0.00    +0.000 A 
ATOM      6  C   UNL     1       4.746   6.033  18.199  0.00  0.00    +0.000 A 
ENDROOT
BRANCH   1   9
ATOM      7  C   UNL     1       2.208   7.828  18.998  0.00  0.00    +0.000 C 
ATOM      8  O   UNL     1       2.342   8.271  17.860  0.00  0.00    +0.000 OA
ATOM      9  N   UNL     1       2.799   6.672  19.461  0.00  0.00    +0.000 N 
ATOM     10  H   UNL     1       2.779   6.505  20.465  0.00  0.00    +0.000 HD
BRANCH   7  19
ATOM     11  N   UNL     1       1.903  11.070  17.778  0.00  0.00    +0.000 N 
ATOM     12  C   UNL     1       1.160  11.077  18.914  0.00  0.00    +0.000 A 
ATOM     13  N   UNL     1       0.501  12.162  19.315  0.00  0.00    +0.000 NA
ATOM     14  O   UNL     1      -0.090  11.820  20.512  0.00  0.00    +0.000 OA
ATOM     15  C   UNL     1       0.190  10.525  20.801  0.00  0.00    +0.000 A 
ATOM     16  C   UNL     1      -0.260   9.859  21.940  0.00  0.00    +0.000 A 
ATOM     17  C   UNL     1       0.107   8.524  22.064  0.00  0.00    +0.000 A 
ATOM     18  C   UNL     1       0.887   7.916  21.082  0.00  0.00    +0.000 A 
ATOM     19  C   UNL     1       1.348   8.611  19.932  0.00  0.00    +0.000 A 
ATOM     20  C   UNL     1       0.983   9.972  19.799  0.00  0.00    +0.000 A 
ATOM     21  H   UNL     1       1.744  11.927  17.242  0.00  0.00    +0.000 HD
ATOM     22  H   UNL     1       2.912  11.051  17.956  0.00  0.00    +0.000 HD
ENDBRANCH   7  19
ENDBRANCH   1   9
BRANCH   5  23
ATOM     23  C   UNL     1       6.877   5.451  16.981  0.00  0.00    +0.000 C 
BRANCH  23  24
ATOM     24  N   UNL     1       7.043   6.862  16.709  0.00  0.00    +0.000 N 
ATOM     25  C   UNL     1       7.698   7.590  17.677  0.00  0.00    +0.000 C 
ATOM     26  O   UNL     1       8.056   7.077  18.733  0.00  0.00    +0.000 OA
ATOM     27  N   UNL     1       7.857   8.908  17.321  0.00  0.00    +0.000 N 
ATOM     28  H   UNL     1       7.252   7.114  15.756  0.00  0.00    +0.000 HD
ATOM     29  H   UNL     1       7.218   9.251  16.620  0.00  0.00    +0.000 HD
BRANCH  27  30
ATOM     30  C   UNL     1       8.607   9.861  18.047  0.00  0.00    +0.000 A 
ATOM     31  C   UNL     1       8.985   9.668  19.379  0.00  0.00    +0.000 A 
ATOM     32  C   UNL     1       9.743  10.624  20.058  0.00  0.00    +0.000 A 
ATOM     33  C   UNL     1      10.154  11.795  19.414  0.00  0.00    +0.000 A 
ATOM     34  C   UNL     1       9.770  11.994  18.077  0.00  0.00    +0.000 A 
ATOM     35  C   UNL     1       9.011  11.031  17.398  0.00  0.00    +0.000 A 
BRANCH  33  36
ATOM     36  C   UNL     1      11.012  12.806  20.131  0.00  0.00    +0.000 C 
ATOM     37  F   UNL     1      10.950  12.711  21.489  0.00  0.00    +0.000 F 
ATOM     38  F   UNL     1      12.332  12.682  19.812  0.00  0.00    +0.000 F 
ATOM     39  F   UNL     1      10.674  14.090  19.831  0.00  0.00    +0.000 F 
ENDBRANCH  33  36
ENDBRANCH  27  30
ENDBRANCH  23  24
ENDBRANCH   5  23
TORSDOF 6
ENDMDL
MODEL 3
REMARK VINA RESULT:      -8.9      0.838      1.173
REMARK  Name = 
REMARK  6 active torsions:
REMARK  status: ('A' for Active; 'I' for Inactive)
REMARK    1  A    between atoms: C_9  and  C_10
REMARK    2  A    between atoms: N_12  and  C_13
REMARK    3  A    between atoms: C_17  and  C_18
REMARK    4  A    between atoms: C_18  and  N_19
REMARK    5  A    between atoms: N_22  and  C_23
REMARK    6  A    between atoms: C_26  and  C_27
REMARK                            x       y       z     vdW  Elec       q    Type
REMARK                         _______ _______ _______ _____ _____    ______ ____
ROOT
ATOM      1  C   UNL     1       3.343   5.611  19.390  0.00  0.00    +0.000 A 
ATOM      2  C   UNL     1       2.891   4.293  19.279  0.00  0.00    +0.000 A 
ATOM      3  C   UNL     1       3.636   3.335  18.589  0.00  0.00    +0.000 A 
ATOM      4  C   UNL     1       4.859   3.678  18.022  0.00  0.00    +0.000 A 
ATOM      5  C   UNL     1       5.353   4.981  18.160  0.00  0.00    +0.000 A 
ATOM      6  C   UNL     1       4.581   5.945  18.829  0.00  0.00    +0.000 A 
ENDROOT
BRANCH   1   9
ATOM      7  C   UNL     1       2.115   7.778  19.524  0.00  0.00    +0.000 C 
ATOM      8  O   UNL     1       2.345   8.170  18.383  0.00  0.00    +0.000 OA
ATOM      9  N   UNL     1       2.638   6.628  20.075  0.00  0.00    +0.000 N 
ATOM     10  H   UNL     1       2.540   6.503  21.081  0.00  0.00    +0.000 HD
BRANCH   7  19
ATOM     11  N   UNL     1       0.465  10.034  17.455  0.00  0.00    +0.000 N 
ATOM     12  C   UNL     1      -0.019  10.310  18.692  0.00  0.00    +0.000 A 
ATOM     13  N   UNL     1      -0.941  11.251  18.892  0.00  0.00    +0.000 NA
ATOM     14  O   UNL     1      -1.150  11.287  20.253  0.00  0.00    +0.000 OA
ATOM     15  C   UNL     1      -0.381  10.346  20.855  0.00  0.00    +0.000 A 
ATOM     16  C   UNL     1      -0.356  10.112  22.228  0.00  0.00    +0.000 A 
ATOM     17  C   UNL     1       0.478   9.091  22.669  0.00  0.00    +0.000 A 
ATOM     18  C   UNL     1       1.239   8.362  21.757  0.00  0.00    +0.000 A 
ATOM     19  C   UNL     1       1.211   8.620  20.360  0.00  0.00    +0.000 A 
ATOM     20  C   UNL     1       0.368   9.660  19.901  0.00  0.00    +0.000 A 
ATOM     21  H   UNL     1      -0.080  10.523  16.741  0.00  0.00    +0.000 HD
ATOM     22  H   UNL     1       1.429  10.355  17.319  0.00  0.00    +0.000 HD
ENDBRANCH   7  19
ENDBRANCH   1   9
BRANCH   5  23
ATOM     23  C   UNL     1       6.706   5.332  17.615  0.00  0.00    +0.000 C 
BRANCH  23  24
ATOM     24  N   UNL     1       7.473   6.161  18.519  0.00  0.00    +0.000 N 
ATOM     25  C   UNL     1       7.825   7.405  18.044  0.00  0.00    +0.000 C 
ATOM     26  O   UNL     1       7.558   7.754  16.898  0.00  0.00    +0.000 OA
ATOM     27  N   UNL     1       8.508   8.147  18.979  0.00  0.00    +0.000 N 
ATOM     28  H   UNL     1       7.217   6.121  19.493  0.00  0.00    +0.000 HD
ATOM     29  H   UNL     1       8.956   7.618  19.713  0.00  0.00    +0.000 HD
BRANCH  27  30
ATOM     30  C   UNL     1       8.877   9.503  18.829  0.00  0.00    +0.000 A 
ATOM     31  C   UNL     1       8.328  10.329  17.843  0.00  0.00    +0.000 A 
ATOM     32  C   UNL     1       8.703  11.670  17.739  0.00  0.00    +0.000 A 
ATOM     33  C   UNL     1       9.629  12.222  18.628  0.00  0.00    +0.000 A 
ATOM     34  C   UNL     1      10.187  11.392  19.615  0.00  0.00    +0.000 A 
ATOM     35  C   UNL     1       9.807  10.047  19.719  0.00  0.00    +0.000 A 
BRANCH  33  36
ATOM     36  C   UNL     1       9.999  13.681  18.546  0.00  0.00    +0.000 C 
ATOM     37  F   UNL     1      10.661  14.140  19.646  0.00  0.00    +0.000 F 
ATOM     38  F   UNL     1      10.814  13.948  17.487  0.00  0.00    +0.000 F 
ATOM     39  F   UNL     1       8.915  14.492  18.398  0.00  0.00    +0.000 F 
ENDBRANCH  33  36
ENDBRANCH  27  30
ENDBRANCH  23  24
ENDBRANCH   5  23
TORSDOF 6
ENDMDL
MODEL 4
REMARK VINA RESULT:      -8.8      2.115      3.252
REMARK  Name = 
REMARK  6 active torsions:
REMARK  status: ('A' for Active; 'I' for Inactive)
REMARK    1  A    between atoms: C_9  and  C_10
REMARK    2  A    between atoms: N_12  and  C_13
REMARK    3  A    between atoms: C_17  and  C_18
REMARK    4  A    between atoms: C_18  and  N_19
REMARK    5  A    between atoms: N_22  and  C_23
REMARK    6  A    between atoms: C_26  and  C_27
REMARK                            x       y       z     vdW  Elec       q    Type
REMARK                         _______ _______ _______ _____ _____    ______ ____
ROOT
ATOM      1  C   UNL     1       1.490   4.773  20.411  0.00  0.00    +0.000 A 
ATOM      2  C   UNL     1       1.385   3.602  21.166  0.00  0.00    +0.000 A 
ATOM      3  C   UNL     1       1.800   2.374  20.648  0.00  0.00    +0.000 A 
ATOM      4  C   UNL     1       2.353   2.306  19.374  0.00  0.00    +0.000 A 
ATOM      5  C   UNL     1       2.510   3.472  18.616  0.00  0.00    +0.000 A 
ATOM      6  C   UNL     1       2.060   4.697  19.135  0.00  0.00    +0.000 A 
ENDROOT
BRANCH   1   9
ATOM      7  C   UNL     1       1.598   7.264  20.476  0.00  0.00    +0.000 C 
ATOM      8  O   UNL     1       2.604   7.405  19.786  0.00  0.00    +0.000 OA
ATOM      9  N   UNL     1       1.089   6.046  20.875  0.00  0.00    +0.000 N 
ATOM     10  H   UNL     1       0.374   6.052  21.600  0.00  0.00    +0.000 HD
BRANCH   7  19
ATOM     11  N   UNL     1       1.450   9.459  17.783  0.00  0.00    +0.000 N 
ATOM     12  C   UNL     1       0.817  10.124  18.783  0.00  0.00    +0.000 A 
ATOM     13  N   UNL     1       0.289  11.332  18.598  0.00  0.00    +0.000 NA
ATOM     14  O   UNL     1      -0.216  11.712  19.822  0.00  0.00    +0.000 OA
ATOM     15  C   UNL     1      -0.018  10.717  20.722  0.00  0.00    +0.000 A 
ATOM     16  C   UNL     1      -0.415  10.773  22.057  0.00  0.00    +0.000 A 
ATOM     17  C   UNL     1      -0.149   9.651  22.831  0.00  0.00    +0.000 A 
ATOM     18  C   UNL     1       0.486   8.544  22.271  0.00  0.00    +0.000 A 
ATOM     19  C   UNL     1       0.895   8.505  20.911  0.00  0.00    +0.000 A 
ATOM     20  C   UNL     1       0.632   9.646  20.114  0.00  0.00    +0.000 A 
ATOM     21  H   UNL     1       1.314   9.941  16.892  0.00  0.00    +0.000 HD
ATOM     22  H   UNL     1       2.466   9.414  17.909  0.00  0.00    +0.000 HD
ENDBRANCH   7  19
ENDBRANCH   1   9
BRANCH   5  23
ATOM     23  C   UNL     1       3.175   3.411  17.273  0.00  0.00    +0.000 C 
BRANCH  23  24
ATOM     24  N   UNL     1       4.601   3.646  17.345  0.00  0.00    +0.000 N 
ATOM     25  C   UNL     1       4.992   4.965  17.405  0.00  0.00    +0.000 C 
ATOM     26  O   UNL     1       4.177   5.880  17.333  0.00  0.00    +0.000 OA
ATOM     27  N   UNL     1       6.355   5.101  17.520  0.00  0.00    +0.000 N 
ATOM     28  H   UNL     1       5.134   3.005  17.910  0.00  0.00    +0.000 HD
ATOM     29  H   UNL     1       6.900   4.310  17.209  0.00  0.00    +0.000 HD
BRANCH  27  30
ATOM     30  C   UNL     1       7.035   6.320  17.739  0.00  0.00    +0.000 A 
ATOM     31  C   UNL     1       6.843   7.445  16.931  0.00  0.00    +0.000 A 
ATOM     32  C   UNL     1       7.519   8.640  17.191  0.00  0.00    +0.000 A 
ATOM     33  C   UNL     1       8.395   8.741  18.276  0.00  0.00    +0.000 A 
ATOM     34  C   UNL     1       8.593   7.610  19.084  0.00  0.00    +0.000 A 
ATOM     35  C   UNL     1       7.912   6.413  18.822  0.00  0.00    +0.000 A 
BRANCH  33  36
ATOM     36  C   UNL     1       9.089  10.044  18.585  0.00  0.00    +0.000 C 
ATOM     37  F   UNL     1       9.818  10.014  19.736  0.00  0.00    +0.000 F 
ATOM     38  F   UNL     1       9.961  10.409  17.604  0.00  0.00    +0.000 F 
ATOM     39  F   UNL     1       8.220  11.083  18.720  0.00  0.00    +0.000 F 
ENDBRANCH  33  36
ENDBRANCH  27  30
ENDBRANCH  23  24
ENDBRANCH   5  23
TORSDOF 6
ENDMDL
MODEL 5
REMARK VINA RESULT:      -8.8      3.326      6.773
REMARK  Name = 
REMARK  6 active torsions:
REMARK  status: ('A' for Active; 'I' for Inactive)
REMARK    1  A    between atoms: C_9  and  C_10
REMARK    2  A    between atoms: N_12  and  C_13
REMARK    3  A    between atoms: C_17  and  C_18
REMARK    4  A    between atoms: C_18  and  N_19
REMARK    5  A    between atoms: N_22  and  C_23
REMARK    6  A    between atoms: C_26  and  C_27
REMARK                            x       y       z     vdW  Elec       q    Type
REMARK                         _______ _______ _______ _____ _____    ______ ____
ROOT
ATOM      1  C   UNL     1       1.199   9.509  18.009  0.00  0.00    +0.000 A 
ATOM      2  C   UNL     1      -0.177   9.361  17.813  0.00  0.00    +0.000 A 
ATOM      3  C   UNL     1      -1.067  10.371  18.181  0.00  0.00    +0.000 A 
ATOM      4  C   UNL     1      -0.589  11.558  18.725  0.00  0.00    +0.000 A 
ATOM      5  C   UNL     1       0.789  11.748  18.889  0.00  0.00    +0.000 A 
ATOM      6  C   UNL     1       1.673  10.712  18.545  0.00  0.00    +0.000 A 
ENDROOT
BRANCH   1   9
ATOM      7  C   UNL     1       2.548   7.454  18.431  0.00  0.00    +0.000 C 
ATOM      8  O   UNL     1       2.253   7.302  19.614  0.00  0.00    +0.000 OA
ATOM      9  N   UNL     1       2.153   8.526  17.659  0.00  0.00    +0.000 N 
ATOM     10  H   UNL     1       2.612   8.650  16.759  0.00  0.00    +0.000 HD
BRANCH   7  19
ATOM     11  N   UNL     1       1.401   4.338  19.464  0.00  0.00    +0.000 N 
ATOM     12  C   UNL     1       2.440   4.048  18.639  0.00  0.00    +0.000 A 
ATOM     13  N   UNL     1       2.795   2.792  18.371  0.00  0.00    +0.000 NA
ATOM     14  O   UNL     1       3.901   2.881  17.555  0.00  0.00    +0.000 OA
ATOM     15  C   UNL     1       4.181   4.186  17.313  0.00  0.00    +0.000 A 
ATOM     16  C   UNL     1       5.237   4.629  16.518  0.00  0.00    +0.000 A 
ATOM     17  C   UNL     1       5.362   6.005  16.363  0.00  0.00    +0.000 A 
ATOM     18  C   UNL     1       4.462   6.867  16.986  0.00  0.00    +0.000 A 
ATOM     19  C   UNL     1       3.397   6.401  17.803  0.00  0.00    +0.000 A 
ATOM     20  C   UNL     1       3.263   5.002  17.971  0.00  0.00    +0.000 A 
ATOM     21  H   UNL     1       0.878   3.489  19.690  0.00  0.00    +0.000 HD
ATOM     22  H   UNL     1       1.698   4.716  20.369  0.00  0.00    +0.000 HD
ENDBRANCH   7  19
ENDBRANCH   1   9
BRANCH   5  23
ATOM     23  C   UNL     1       1.310  13.056  19.405  0.00  0.00    +0.000 C 
BRANCH  23  24
ATOM     24  N   UNL     1       2.131  13.751  18.437  0.00  0.00    +0.000 N 
ATOM     25  C   UNL     1       3.320  14.261  18.910  0.00  0.00    +0.000 C 
ATOM     26  O   UNL     1       3.625  14.184  20.096  0.00  0.00    +0.000 OA
ATOM     27  N   UNL     1       4.060  14.861  17.920  0.00  0.00    +0.000 N 
ATOM     28  H   UNL     1       2.161  13.359  17.510  0.00  0.00    +0.000 HD
ATOM     29  H   UNL     1       3.542  15.160  17.107  0.00  0.00    +0.000 HD
BRANCH  27  30
ATOM     30  C   UNL     1       5.377  15.350  18.073  0.00  0.00    +0.000 A 
ATOM     31  C   UNL     1       5.654  16.621  18.586  0.00  0.00    +0.000 A 
ATOM     32  C   UNL     1       6.970  17.063  18.741  0.00  0.00    +0.000 A 
ATOM     33  C   UNL     1       8.044  16.236  18.399  0.00  0.00    +0.000 A 
ATOM     34  C   UNL     1       7.768  14.961  17.878  0.00  0.00    +0.000 A 
ATOM     35  C   UNL     1       6.446  14.520  17.725  0.00  0.00    +0.000 A 
BRANCH  33  36
ATOM     36  C   UNL     1       9.465  16.693  18.610  0.00  0.00    +0.000 C 
ATOM     37  F   UNL     1      10.150  16.902  17.450  0.00  0.00    +0.000 F 
ATOM     38  F   UNL     1       9.532  17.869  19.296  0.00  0.00    +0.000 F 
ATOM     39  F   UNL     1      10.205  15.800  19.324  0.00  0.00    +0.000 F 
ENDBRANCH  33  36
ENDBRANCH  27  30
ENDBRANCH  23  24
ENDBRANCH   5  23
TORSDOF 6
ENDMDL
MODEL 6
REMARK VINA RESULT:      -8.6      5.432      8.504
REMARK  Name = 
REMARK  6 active torsions:
REMARK  status: ('A' for Active; 'I' for Inactive)
REMARK    1  A    between atoms: C_9  and  C_10
REMARK    2  A    between atoms: N_12  and  C_13
REMARK    3  A    between atoms: C_17  and  C_18
REMARK    4  A    between atoms: C_18  and  N_19
REMARK    5  A    between atoms: N_22  and  C_23
REMARK    6  A    between atoms: C_26  and  C_27
REMARK                            x       y       z     vdW  Elec       q    Type
REMARK                         _______ _______ _______ _____ _____    ______ ____
ROOT
ATOM      1  C   UNL     1      -1.306  11.700  22.123  0.00  0.00    +0.000 A 
ATOM      2  C   UNL     1      -1.213  10.836  23.218  0.00  0.00    +0.000 A 
ATOM      3  C   UNL     1      -0.505   9.636  23.128  0.00  0.00    +0.000 A 
ATOM      4  C   UNL     1       0.145   9.298  21.947  0.00  0.00    +0.000 A 
ATOM      5  C   UNL     1       0.106  10.168  20.851  0.00  0.00    +0.000 A 
ATOM      6  C   UNL     1      -0.637  11.358  20.942  0.00  0.00    +0.000 A 
ENDROOT
BRANCH   1   9
ATOM      7  C   UNL     1      -1.539  14.130  22.636  0.00  0.00    +0.000 C 
ATOM      8  O   UNL     1      -0.506  14.262  23.287  0.00  0.00    +0.000 OA
ATOM      9  N   UNL     1      -2.006  12.928  22.148  0.00  0.00    +0.000 N 
ATOM     10  H   UNL     1      -2.961  12.903  21.796  0.00  0.00    +0.000 HD
BRANCH   7  19
ATOM     11  N   UNL     1      -3.596  14.734  25.374  0.00  0.00    +0.000 N 
ATOM     12  C   UNL     1      -3.874  15.756  24.524  0.00  0.00    +0.000 A 
ATOM     13  N   UNL     1      -4.748  16.711  24.836  0.00  0.00    +0.000 NA
ATOM     14  O   UNL     1      -4.811  17.534  23.734  0.00  0.00    +0.000 OA
ATOM     15  C   UNL     1      -3.951  17.088  22.785  0.00  0.00    +0.000 A 
ATOM     16  C   UNL     1      -3.763  17.698  21.545  0.00  0.00    +0.000 A 
ATOM     17  C   UNL     1      -2.824  17.114  20.703  0.00  0.00    +0.000 A 
ATOM     18  C   UNL     1      -2.126  15.978  21.108  0.00  0.00    +0.000 A 
ATOM     19  C   UNL     1      -2.336  15.362  22.371  0.00  0.00    +0.000 A 
ATOM     20  C   UNL     1      -3.294  15.946  23.235  0.00  0.00    +0.000 A 
ATOM     21  H   UNL     1      -4.019  14.907  26.289  0.00  0.00    +0.000 HD
ATOM     22  H   UNL     1      -3.984  13.837  25.066  0.00  0.00    +0.000 HD
ENDBRANCH   7  19
ENDBRANCH   1   9
BRANCH   5  23
ATOM     23  C   UNL     1       0.868   9.840  19.603  0.00  0.00    +0.000 C 
BRANCH  23  24
ATOM     24  N   UNL     1       1.633   8.617  19.721  0.00  0.00    +0.000 N 
ATOM     25  C   UNL     1       2.155   8.116  18.549  0.00  0.00    +0.000 C 
ATOM     26  O   UNL     1       1.923   8.645  17.466  0.00  0.00    +0.000 OA
ATOM     27  N   UNL     1       2.906   6.984  18.754  0.00  0.00    +0.000 N 
ATOM     28  H   UNL     1       2.223   8.533  20.534  0.00  0.00    +0.000 HD
ATOM     29  H   UNL     1       2.712   6.480  19.607  0.00  0.00    +0.000 HD
BRANCH  27  30
ATOM     30  C   UNL     1       3.674   6.328  17.766  0.00  0.00    +0.000 A 
ATOM     31  C   UNL     1       4.617   6.995  16.979  0.00  0.00    +0.000 A 
ATOM     32  C   UNL     1       5.372   6.309  16.025  0.00  0.00    +0.000 A 
ATOM     33  C   UNL     1       5.210   4.933  15.845  0.00  0.00    +0.000 A 
ATOM     34  C   UNL     1       4.259   4.261  16.630  0.00  0.00    +0.000 A 
ATOM     35  C   UNL     1       3.504   4.952  17.588  0.00  0.00    +0.000 A 
BRANCH  33  36
ATOM     36  C   UNL     1       6.058   4.183  14.848  0.00  0.00    +0.000 C 
ATOM     37  F   UNL     1       5.544   4.180  13.586  0.00  0.00    +0.000 F 
ATOM     38  F   UNL     1       7.310   4.709  14.736  0.00  0.00    +0.000 F 
ATOM     39  F   UNL     1       6.231   2.874  15.183  0.00  0.00    +0.000 F 
ENDBRANCH  33  36
ENDBRANCH  27  30
ENDBRANCH  23  24
ENDBRANCH   5  23
TORSDOF 6
ENDMDL
MODEL 7
REMARK VINA RESULT:      -8.6      5.436      8.488
REMARK  Name = 
REMARK  6 active torsions:
REMARK  status: ('A' for Active; 'I' for Inactive)
REMARK    1  A    between atoms: C_9  and  C_10
REMARK    2  A    between atoms: N_12  and  C_13
REMARK    3  A    between atoms: C_17  and  C_18
REMARK    4  A    between atoms: C_18  and  N_19
REMARK    5  A    between atoms: N_22  and  C_23
REMARK    6  A    between atoms: C_26  and  C_27
REMARK                            x       y       z     vdW  Elec       q    Type
REMARK                         _______ _______ _______ _____ _____    ______ ____
ROOT
ATOM      1  C   UNL     1      -1.308  11.550  22.108  0.00  0.00    +0.000 A 
ATOM      2  C   UNL     1      -1.149  10.732  23.231  0.00  0.00    +0.000 A 
ATOM      3  C   UNL     1      -0.390   9.563  23.165  0.00  0.00    +0.000 A 
ATOM      4  C   UNL     1       0.245   9.209  21.979  0.00  0.00    +0.000 A 
ATOM      5  C   UNL     1       0.137  10.035  20.854  0.00  0.00    +0.000 A 
ATOM      6  C   UNL     1      -0.656  11.193  20.923  0.00  0.00    +0.000 A 
ENDROOT
BRANCH   1   9
ATOM      7  C   UNL     1      -1.734  13.924  22.743  0.00  0.00    +0.000 C 
ATOM      8  O   UNL     1      -0.820  14.046  23.554  0.00  0.00    +0.000 OA
ATOM      9  N   UNL     1      -2.063  12.745  22.107  0.00  0.00    +0.000 N 
ATOM     10  H   UNL     1      -2.951  12.712  21.611  0.00  0.00    +0.000 HD
BRANCH   7  19
ATOM     11  N   UNL     1      -3.348  14.936  25.652  0.00  0.00    +0.000 N 
ATOM     12  C   UNL     1      -3.732  15.854  24.728  0.00  0.00    +0.000 A 
ATOM     13  N   UNL     1      -4.532  16.872  25.040  0.00  0.00    +0.000 NA
ATOM     14  O   UNL     1      -4.745  17.555  23.863  0.00  0.00    +0.000 OA
ATOM     15  C   UNL     1      -4.045  16.964  22.863  0.00  0.00    +0.000 A 
ATOM     16  C   UNL     1      -4.033  17.408  21.542  0.00  0.00    +0.000 A 
ATOM     17  C   UNL     1      -3.240  16.691  20.654  0.00  0.00    +0.000 A 
ATOM     18  C   UNL     1      -2.510  15.590  21.094  0.00  0.00    +0.000 A 
ATOM     19  C   UNL     1      -2.540  15.142  22.442  0.00  0.00    +0.000 A 
ATOM     20  C   UNL     1      -3.348  15.863  23.355  0.00  0.00    +0.000 A 
ATOM     21  H   UNL     1      -3.626  15.236  26.589  0.00  0.00    +0.000 HD
ATOM     22  H   UNL     1      -3.794  14.022  25.521  0.00  0.00    +0.000 HD
ENDBRANCH   7  19
ENDBRANCH   1   9
BRANCH   5  23
ATOM     23  C   UNL     1       0.882   9.694  19.598  0.00  0.00    +0.000 C 
BRANCH  23  24
ATOM     24  N   UNL     1       1.732   8.534  19.751  0.00  0.00    +0.000 N 
ATOM     25  C   UNL     1       2.191   7.965  18.584  0.00  0.00    +0.000 C 
ATOM     26  O   UNL     1       1.841   8.384  17.485  0.00  0.00    +0.000 OA
ATOM     27  N   UNL     1       3.029   6.900  18.816  0.00  0.00    +0.000 N 
ATOM     28  H   UNL     1       2.388   8.554  20.515  0.00  0.00    +0.000 HD
ATOM     29  H   UNL     1       2.936   6.461  19.720  0.00  0.00    +0.000 HD
BRANCH  27  30
ATOM     30  C   UNL     1       3.759   6.208  17.823  0.00  0.00    +0.000 A 
ATOM     31  C   UNL     1       3.644   4.829  17.627  0.00  0.00    +0.000 A 
ATOM     32  C   UNL     1       4.367   4.183  16.622  0.00  0.00    +0.000 A 
ATOM     33  C   UNL     1       5.215   4.906  15.778  0.00  0.00    +0.000 A 
ATOM     34  C   UNL     1       5.337   6.291  15.978  0.00  0.00    +0.000 A 
ATOM     35  C   UNL     1       4.608   6.937  16.986  0.00  0.00    +0.000 A 
BRANCH  33  36
ATOM     36  C   UNL     1       5.960   4.217  14.663  0.00  0.00    +0.000 C 
ATOM     37  F   UNL     1       6.235   2.906  14.918  0.00  0.00    +0.000 F 
ATOM     38  F   UNL     1       5.262   4.227  13.493  0.00  0.00    +0.000 F 
ATOM     39  F   UNL     1       7.158   4.803  14.390  0.00  0.00    +0.000 F 
ENDBRANCH  33  36
ENDBRANCH  27  30
ENDBRANCH  23  24
ENDBRANCH   5  23
TORSDOF 6
ENDMDL
MODEL 8
REMARK VINA RESULT:      -8.6      4.780      7.567
REMARK  Name = 
REMARK  6 active torsions:
REMARK  status: ('A' for Active; 'I' for Inactive)
REMARK    1  A    between atoms: C_9  and  C_10
REMARK    2  A    between atoms: N_12  and  C_13
REMARK    3  A    between atoms: C_17  and  C_18
REMARK    4  A    between atoms: C_18  and  N_19
REMARK    5  A    between atoms: N_22  and  C_23
REMARK    6  A    between atoms: C_26  and  C_27
REMARK                            x       y       z     vdW  Elec       q    Type
REMARK                         _______ _______ _______ _____ _____    ______ ____
ROOT
ATOM      1  C   UNL     1       0.682  10.918  20.806  0.00  0.00    +0.000 A 
ATOM      2  C   UNL     1      -0.164  11.143  21.895  0.00  0.00    +0.000 A 
ATOM      3  C   UNL     1      -0.671  10.078  22.642  0.00  0.00    +0.000 A 
ATOM      4  C   UNL     1      -0.315   8.771  22.324  0.00  0.00    +0.000 A 
ATOM      5  C   UNL     1       0.568   8.525  21.266  0.00  0.00    +0.000 A 
ATOM      6  C   UNL     1       1.047   9.602  20.501  0.00  0.00    +0.000 A 
ENDROOT
BRANCH   1   9
ATOM      7  C   UNL     1       0.822  13.268  19.981  0.00  0.00    +0.000 C 
ATOM      8  O   UNL     1      -0.199  13.693  20.515  0.00  0.00    +0.000 OA
ATOM      9  N   UNL     1       1.229  11.951  20.010  0.00  0.00    +0.000 N 
ATOM     10  H   UNL     1       1.977  11.677  19.376  0.00  0.00    +0.000 HD
BRANCH   7  19
ATOM     11  N   UNL     1      -1.127  16.045  19.221  0.00  0.00    +0.000 N 
ATOM     12  C   UNL     1       0.094  16.355  18.716  0.00  0.00    +0.000 A 
ATOM     13  N   UNL     1       0.331  17.519  18.115  0.00  0.00    +0.000 NA
ATOM     14  O   UNL     1       1.641  17.463  17.692  0.00  0.00    +0.000 OA
ATOM     15  C   UNL     1       2.189  16.281  18.071  0.00  0.00    +0.000 A 
ATOM     16  C   UNL     1       3.504  15.904  17.806  0.00  0.00    +0.000 A 
ATOM     17  C   UNL     1       3.902  14.663  18.289  0.00  0.00    +0.000 A 
ATOM     18  C   UNL     1       3.006  13.862  18.995  0.00  0.00    +0.000 A 
ATOM     19  C   UNL     1       1.665  14.256  19.247  0.00  0.00    +0.000 A 
ATOM     20  C   UNL     1       1.248  15.517  18.756  0.00  0.00    +0.000 A 
ATOM     21  H   UNL     1      -1.738  16.866  19.207  0.00  0.00    +0.000 HD
ATOM     22  H   UNL     1      -1.623  15.336  18.671  0.00  0.00    +0.000 HD
ENDBRANCH   7  19
ENDBRANCH   1   9
BRANCH   5  23
ATOM     23  C   UNL     1       1.012   7.123  20.969  0.00  0.00    +0.000 C 
BRANCH  23  24
ATOM     24  N   UNL     1       2.388   7.056  20.527  0.00  0.00    +0.000 N 
ATOM     25  C   UNL     1       2.620   6.316  19.389  0.00  0.00    +0.000 C 
ATOM     26  O   UNL     1       1.719   5.699  18.830  0.00  0.00    +0.000 OA
ATOM     27  N   UNL     1       3.941   6.342  19.010  0.00  0.00    +0.000 N 
ATOM     28  H   UNL     1       2.931   7.899  20.619  0.00  0.00    +0.000 HD
ATOM     29  H   UNL     1       4.600   6.575  19.738  0.00  0.00    +0.000 HD
BRANCH  27  30
ATOM     30  C   UNL     1       4.454   5.792  17.813  0.00  0.00    +0.000 A 
ATOM     31  C   UNL     1       4.646   4.419  17.636  0.00  0.00    +0.000 A 
ATOM     32  C   UNL     1       5.137   3.911  16.432  0.00  0.00    +0.000 A 
ATOM     33  C   UNL     1       5.436   4.766  15.368  0.00  0.00    +0.000 A 
ATOM     34  C   UNL     1       5.250   6.147  15.545  0.00  0.00    +0.000 A 
ATOM     35  C   UNL     1       4.756   6.654  16.755  0.00  0.00    +0.000 A 
BRANCH  33  36
ATOM     36  C   UNL     1       5.922   4.215  14.051  0.00  0.00    +0.000 C 
ATOM     37  F   UNL     1       6.906   4.962  13.475  0.00  0.00    +0.000 F 
ATOM     38  F   UNL     1       6.436   2.959  14.175  0.00  0.00    +0.000 F 
ATOM     39  F   UNL     1       4.931   4.124  13.121  0.00  0.00    +0.000 F 
ENDBRANCH  33  36
ENDBRANCH  27  30
ENDBRANCH  23  24
ENDBRANCH   5  23
TORSDOF 6
ENDMDL
MODEL 9
REMARK VINA RESULT:      -8.6      1.623      2.290
REMARK  Name = 
REMARK  6 active torsions:
REMARK  status: ('A' for Active; 'I' for Inactive)
REMARK    1  A    between atoms: C_9  and  C_10
REMARK    2  A    between atoms: N_12  and  C_13
REMARK    3  A    between atoms: C_17  and  C_18
REMARK    4  A    between atoms: C_18  and  N_19
REMARK    5  A    between atoms: N_22  and  C_23
REMARK    6  A    between atoms: C_26  and  C_27
REMARK                            x       y       z     vdW  Elec       q    Type
REMARK                         _______ _______ _______ _____ _____    ______ ____
ROOT
ATOM      1  C   UNL     1       3.278   6.689  18.381  0.00  0.00    +0.000 A 
ATOM      2  C   UNL     1       3.156   5.370  18.829  0.00  0.00    +0.000 A 
ATOM      3  C   UNL     1       4.202   4.460  18.677  0.00  0.00    +0.000 A 
ATOM      4  C   UNL     1       5.400   4.865  18.098  0.00  0.00    +0.000 A 
ATOM      5  C   UNL     1       5.564   6.192  17.683  0.00  0.00    +0.000 A 
ATOM      6  C   UNL     1       4.492   7.092  17.812  0.00  0.00    +0.000 A 
ENDROOT
BRANCH   1   9
ATOM      7  C   UNL     1       1.668   8.086  19.675  0.00  0.00    +0.000 C 
ATOM      8  O   UNL     1       1.823   7.548  20.769  0.00  0.00    +0.000 OA
ATOM      9  N   UNL     1       2.258   7.659  18.504  0.00  0.00    +0.000 N 
ATOM     10  H   UNL     1       1.909   8.053  17.633  0.00  0.00    +0.000 HD
BRANCH   7  19
ATOM     11  N   UNL     1       1.117   9.198  22.923  0.00  0.00    +0.000 N 
ATOM     12  C   UNL     1       0.412  10.068  22.155  0.00  0.00    +0.000 A 
ATOM     13  N   UNL     1      -0.265  11.085  22.686  0.00  0.00    +0.000 NA
ATOM     14  O   UNL     1      -0.889  11.711  21.631  0.00  0.00    +0.000 OA
ATOM     15  C   UNL     1      -0.555  11.089  20.473  0.00  0.00    +0.000 A 
ATOM     16  C   UNL     1      -1.010  11.474  19.213  0.00  0.00    +0.000 A 
ATOM     17  C   UNL     1      -0.548  10.733  18.133  0.00  0.00    +0.000 A 
ATOM     18  C   UNL     1       0.323   9.664  18.335  0.00  0.00    +0.000 A 
ATOM     19  C   UNL     1       0.770   9.276  19.626  0.00  0.00    +0.000 A 
ATOM     20  C   UNL     1       0.302  10.022  20.734  0.00  0.00    +0.000 A 
ATOM     21  H   UNL     1       1.167   9.534  23.888  0.00  0.00    +0.000 HD
ATOM     22  H   UNL     1       0.682   8.272  22.986  0.00  0.00    +0.000 HD
ENDBRANCH   7  19
ENDBRANCH   1   9
BRANCH   5  23
ATOM     23  C   UNL     1       6.879   6.649  17.128  0.00  0.00    +0.000 C 
BRANCH  23  24
ATOM     24  N   UNL     1       7.778   7.136  18.152  0.00  0.00    +0.000 N 
ATOM     25  C   UNL     1       8.130   8.465  18.064  0.00  0.00    +0.000 C 
ATOM     26  O   UNL     1       7.753   9.168  17.131  0.00  0.00    +0.000 OA
ATOM     27  N   UNL     1       8.945   8.859  19.098  0.00  0.00    +0.000 N 
ATOM     28  H   UNL     1       7.630   6.784  19.084  0.00  0.00    +0.000 HD
ATOM     29  H   UNL     1       9.448   8.119  19.564  0.00  0.00    +0.000 HD
BRANCH  27  30
ATOM     30  C   UNL     1       9.354  10.188  19.349  0.00  0.00    +0.000 A 
ATOM     31  C   UNL     1       9.860  11.023  18.348  0.00  0.00    +0.000 A 
ATOM     32  C   UNL     1      10.236  12.338  18.630  0.00  0.00    +0.000 A 
ATOM     33  C   UNL     1      10.102  12.855  19.922  0.00  0.00    +0.000 A 
ATOM     34  C   UNL     1       9.600  12.016  20.931  0.00  0.00    +0.000 A 
ATOM     35  C   UNL     1       9.222  10.697  20.644  0.00  0.00    +0.000 A 
BRANCH  33  36
ATOM     36  C   UNL     1      10.463  14.289  20.218  0.00  0.00    +0.000 C 
ATOM     37  F   UNL     1       9.517  15.184  19.819  0.00  0.00    +0.000 F 
ATOM     38  F   UNL     1      10.643  14.511  21.551  0.00  0.00    +0.000 F 
ATOM     39  F   UNL     1      11.621  14.675  19.614  0.00  0.00    +0.000 F 
ENDBRANCH  33  36
ENDBRANCH  27  30
ENDBRANCH  23  24
ENDBRANCH   5  23
TORSDOF 6
ENDMDL
