MODEL 1
REMARK VINA RESULT:      -8.7      0.000      0.000
REMARK  Name = 
REMARK  8 active torsions:
REMARK  status: ('A' for Active; 'I' for Inactive)
REMARK    1  A    between atoms: C_4  and  C_5
REMARK    2  A    between atoms: C_14  and  O_15
REMARK    3  A    between atoms: O_15  and  C_16
REMARK    4  A    between atoms: C_16  and  C_17
REMARK    5  A    between atoms: C_17  and  N_18
REMARK    6  A    between atoms: N_18  and  C_19
REMARK    7  A    between atoms: N_22  and  C_23
REMARK    8  A    between atoms: C_23  and  C_24
REMARK                            x       y       z     vdW  Elec       q    Type
REMARK                         _______ _______ _______ _____ _____    ______ ____
ROOT
ATOM      1  O   UNL     1       9.041   8.903  18.627  0.00  0.00    +0.000 OA
ENDROOT
BRANCH   1   9
ATOM      2  O   UNL     1       9.105  14.173  23.371  0.00  0.00    +0.000 OA
ATOM      3  C   UNL     1       9.309  13.767  22.234  0.00  0.00    +0.000 A 
ATOM      4  C   UNL     1       9.750  14.684  21.177  0.00  0.00    +0.000 A 
ATOM      5  C   UNL     1       9.978  14.308  19.907  0.00  0.00    +0.000 A 
ATOM      6  C   UNL     1       9.755  12.900  19.561  0.00  0.00    +0.000 A 
ATOM      7  C   UNL     1       9.913  12.404  18.265  0.00  0.00    +0.000 A 
ATOM      8  C   UNL     1       9.665  11.053  17.995  0.00  0.00    +0.000 A 
ATOM      9  C   UNL     1       9.263  10.189  19.020  0.00  0.00    +0.000 A 
ATOM     10  C   UNL     1       9.117  10.671  20.313  0.00  0.00    +0.000 A 
ATOM     11  C   UNL     1       9.354  12.018  20.562  0.00  0.00    +0.000 A 
ATOM     12  O   UNL     1       9.153  12.440  21.885  0.00  0.00    +0.000 OA
BRANCH   5  13
ATOM     13  C   UNL     1      10.447  15.370  19.003  0.00  0.00    +0.000 A 
ATOM     14  C   UNL     1       9.613  16.456  18.714  0.00  0.00    +0.000 A 
ATOM     15  C   UNL     1      10.011  17.416  17.785  0.00  0.00    +0.000 A 
ATOM     16  C   UNL     1      11.250  17.304  17.153  0.00  0.00    +0.000 A 
ATOM     17  C   UNL     1      12.098  16.240  17.461  0.00  0.00    +0.000 A 
ATOM     18  C   UNL     1      11.700  15.273  18.385  0.00  0.00    +0.000 A 
ENDBRANCH   5  13
ENDBRANCH   1   9
BRANCH   1  19
ATOM     19  C   UNL     1       7.922   8.682  17.767  0.00  0.00    +0.000 C 
BRANCH  19  20
ATOM     20  C   UNL     1       7.737   7.176  17.602  0.00  0.00    +0.000 C 
BRANCH  20  21
ATOM     21  N   UNL     1       6.423   6.671  18.054  0.00  0.00    +0.000 NA
ATOM     22  H   UNL     1       6.091   7.237  18.836  0.00  0.00    +0.000 HD
BRANCH  21  23
ATOM     23  C   UNL     1       5.435   6.685  16.956  0.00  0.00    +0.000 C 
ATOM     24  C   UNL     1       3.976   6.640  17.449  0.00  0.00    +0.000 C 
ATOM     25  C   UNL     1       3.488   5.244  17.898  0.00  0.00    +0.000 C 
ATOM     26  N   UNL     1       3.835   4.171  16.943  0.00  0.00    +0.000 NA
ATOM     27  C   UNL     1       5.279   4.190  16.674  0.00  0.00    +0.000 C 
ATOM     28  C   UNL     1       5.625   5.511  15.992  0.00  0.00    +0.000 C 
BRANCH  26  29
ATOM     29  C   UNL     1       3.401   2.862  17.469  0.00  0.00    +0.000 C 
BRANCH  29  30
ATOM     30  C   UNL     1       2.727   2.905  18.832  0.00  0.00    +0.000 A 
ATOM     31  C   UNL     1       3.463   2.645  19.999  0.00  0.00    +0.000 A 
ATOM     32  C   UNL     1       2.861   2.746  21.259  0.00  0.00    +0.000 A 
ATOM     33  C   UNL     1       1.526   3.124  21.366  0.00  0.00    +0.000 A 
ATOM     34  C   UNL     1       0.778   3.364  20.214  0.00  0.00    +0.000 A 
ATOM     35  C   UNL     1       1.371   3.241  18.955  0.00  0.00    +0.000 A 
ENDBRANCH  29  30
ENDBRANCH  26  29
ENDBRANCH  21  23
ENDBRANCH  20  21
ENDBRANCH  19  20
ENDBRANCH   1  19
TORSDOF 8
ENDMDL
MODEL 2
REMARK VINA RESULT:      -8.7      6.719      9.526
REMARK  Name = 
REMARK  8 active torsions:
REMARK  status: ('A' for Active; 'I' for Inactive)
REMARK    1  A    between atoms: C_4  and  C_5
REMARK    2  A    between atoms: C_14  and  O_15
REMARK    3  A    between atoms: O_15  and  C_16
REMARK    4  A    between atoms: C_16  and  C_17
REMARK    5  A    between atoms: C_17  and  N_18
REMARK    6  A    between atoms: N_18  and  C_19
REMARK    7  A    between atoms: N_22  and  C_23
REMARK    8  A    between atoms: C_23  and  C_24
REMARK                            x       y       z     vdW  Elec       q    Type
REMARK                         _______ _______ _______ _____ _____    ______ ____
ROOT
ATOM      1  O   UNL     1       1.725   7.697  21.590  0.00  0.00    +0.000 OA
ENDROOT
BRANCH   1   9
ATOM      2  O   UNL     1      -0.744  13.285  17.990  0.00  0.00    +0.000 OA
ATOM      3  C   UNL     1      -0.694  12.624  19.019  0.00  0.00    +0.000 A 
ATOM      4  C   UNL     1      -1.393  13.069  20.230  0.00  0.00    +0.000 A 
ATOM      5  C   UNL     1      -1.369  12.400  21.396  0.00  0.00    +0.000 A 
ATOM      6  C   UNL     1      -0.581  11.164  21.459  0.00  0.00    +0.000 A 
ATOM      7  C   UNL     1      -0.444  10.412  22.627  0.00  0.00    +0.000 A 
ATOM      8  C   UNL     1       0.339   9.251  22.627  0.00  0.00    +0.000 A 
ATOM      9  C   UNL     1       0.984   8.833  21.457  0.00  0.00    +0.000 A 
ATOM     10  C   UNL     1       0.841   9.567  20.289  0.00  0.00    +0.000 A 
ATOM     11  C   UNL     1       0.072  10.725  20.309  0.00  0.00    +0.000 A 
ATOM     12  O   UNL     1      -0.000  11.433  19.100  0.00  0.00    +0.000 OA
BRANCH   5  13
ATOM     13  C   UNL     1      -2.162  12.991  22.486  0.00  0.00    +0.000 A 
ATOM     14  C   UNL     1      -1.588  13.961  23.317  0.00  0.00    +0.000 A 
ATOM     15  C   UNL     1      -2.298  14.456  24.408  0.00  0.00    +0.000 A 
ATOM     16  C   UNL     1      -3.590  13.995  24.668  0.00  0.00    +0.000 A 
ATOM     17  C   UNL     1      -4.177  13.052  23.825  0.00  0.00    +0.000 A 
ATOM     18  C   UNL     1      -3.467  12.549  22.735  0.00  0.00    +0.000 A 
ENDBRANCH   5  13
ENDBRANCH   1   9
BRANCH   1  19
ATOM     19  C   UNL     1       1.927   6.923  20.407  0.00  0.00    +0.000 C 
BRANCH  19  20
ATOM     20  C   UNL     1       1.470   5.494  20.688  0.00  0.00    +0.000 C 
BRANCH  20  21
ATOM     21  N   UNL     1       2.487   4.462  20.398  0.00  0.00    +0.000 NA
ATOM     22  H   UNL     1       2.697   3.941  21.250  0.00  0.00    +0.000 HD
BRANCH  21  23
ATOM     23  C   UNL     1       2.033   3.542  19.335  0.00  0.00    +0.000 C 
ATOM     24  C   UNL     1       3.010   2.379  19.077  0.00  0.00    +0.000 C 
ATOM     25  C   UNL     1       4.258   2.756  18.246  0.00  0.00    +0.000 C 
ATOM     26  N   UNL     1       3.938   3.552  17.043  0.00  0.00    +0.000 NA
ATOM     27  C   UNL     1       3.151   4.733  17.422  0.00  0.00    +0.000 C 
ATOM     28  C   UNL     1       1.820   4.261  18.000  0.00  0.00    +0.000 C 
BRANCH  26  29
ATOM     29  C   UNL     1       5.178   3.933  16.341  0.00  0.00    +0.000 C 
BRANCH  29  30
ATOM     30  C   UNL     1       6.023   4.984  17.044  0.00  0.00    +0.000 A 
ATOM     31  C   UNL     1       6.885   4.622  18.092  0.00  0.00    +0.000 A 
ATOM     32  C   UNL     1       7.711   5.575  18.698  0.00  0.00    +0.000 A 
ATOM     33  C   UNL     1       7.698   6.893  18.252  0.00  0.00    +0.000 A 
ATOM     34  C   UNL     1       6.832   7.272  17.228  0.00  0.00    +0.000 A 
ATOM     35  C   UNL     1       5.989   6.326  16.638  0.00  0.00    +0.000 A 
ENDBRANCH  29  30
ENDBRANCH  26  29
ENDBRANCH  21  23
ENDBRANCH  20  21
ENDBRANCH  19  20
ENDBRANCH   1  19
TORSDOF 8
ENDMDL
MODEL 3
REMARK VINA RESULT:      -8.6      7.819     11.529
REMARK  Name = 
REMARK  8 active torsions:
REMARK  status: ('A' for Active; 'I' for Inactive)
REMARK    1  A    between atoms: C_4  and  C_5
REMARK    2  A    between atoms: C_14  and  O_15
REMARK    3  A    between atoms: O_15  and  C_16
REMARK    4  A    between atoms: C_16  and  C_17
REMARK    5  A    between atoms: C_17  and  N_18
REMARK    6  A    between atoms: N_18  and  C_19
REMARK    7  A    between atoms: N_22  and  C_23
REMARK    8  A    between atoms: C_23  and  C_24
REMARK                            x       y       z     vdW  Elec       q    Type
REMARK                         _______ _______ _______ _____ _____    ______ ____
ROOT
ATOM      1  O   UNL     1       1.363   9.122  19.485  0.00  0.00    +0.000 OA
ENDROOT
BRANCH   1   9
ATOM      2  O   UNL     1       3.641   2.486  20.515  0.00  0.00    +0.000 OA
ATOM      3  C   UNL     1       3.621   3.508  19.841  0.00  0.00    +0.000 A 
ATOM      4  C   UNL     1       4.442   3.624  18.630  0.00  0.00    +0.000 A 
ATOM      5  C   UNL     1       4.478   4.721  17.854  0.00  0.00    +0.000 A 
ATOM      6  C   UNL     1       3.659   5.870  18.255  0.00  0.00    +0.000 A 
ATOM      7  C   UNL     1       3.652   7.077  17.554  0.00  0.00    +0.000 A 
ATOM      8  C   UNL     1       2.864   8.145  18.000  0.00  0.00    +0.000 A 
ATOM      9  C   UNL     1       2.073   8.009  19.147  0.00  0.00    +0.000 A 
ATOM     10  C   UNL     1       2.064   6.808  19.841  0.00  0.00    +0.000 A 
ATOM     11  C   UNL     1       2.863   5.762  19.394  0.00  0.00    +0.000 A 
ATOM     12  O   UNL     1       2.828   4.590  20.165  0.00  0.00    +0.000 OA
BRANCH   5  13
ATOM     13  C   UNL     1       5.338   4.630  16.663  0.00  0.00    +0.000 A 
ATOM     14  C   UNL     1       6.688   4.991  16.752  0.00  0.00    +0.000 A 
ATOM     15  C   UNL     1       7.486   4.999  15.609  0.00  0.00    +0.000 A 
ATOM     16  C   UNL     1       6.944   4.634  14.376  0.00  0.00    +0.000 A 
ATOM     17  C   UNL     1       5.607   4.244  14.289  0.00  0.00    +0.000 A 
ATOM     18  C   UNL     1       4.803   4.241  15.429  0.00  0.00    +0.000 A 
ENDBRANCH   5  13
ENDBRANCH   1   9
BRANCH   1  19
ATOM     19  C   UNL     1       0.568   9.710  18.454  0.00  0.00    +0.000 C 
BRANCH  19  20
ATOM     20  C   UNL     1       0.326  11.173  18.815  0.00  0.00    +0.000 C 
BRANCH  20  21
ATOM     21  N   UNL     1      -0.652  11.378  19.904  0.00  0.00    +0.000 NA
ATOM     22  H   UNL     1      -1.109  10.492  20.123  0.00  0.00    +0.000 HD
BRANCH  21  23
ATOM     23  C   UNL     1      -0.005  11.931  21.111  0.00  0.00    +0.000 C 
ATOM     24  C   UNL     1      -0.199  11.053  22.363  0.00  0.00    +0.000 C 
ATOM     25  C   UNL     1      -1.589  11.175  23.028  0.00  0.00    +0.000 C 
ATOM     26  N   UNL     1      -2.033  12.574  23.197  0.00  0.00    +0.000 NA
ATOM     27  C   UNL     1      -1.976  13.275  21.908  0.00  0.00    +0.000 C 
ATOM     28  C   UNL     1      -0.521  13.331  21.453  0.00  0.00    +0.000 C 
BRANCH  26  29
ATOM     29  C   UNL     1      -3.392  12.609  23.772  0.00  0.00    +0.000 C 
BRANCH  29  30
ATOM     30  C   UNL     1      -3.914  13.997  24.112  0.00  0.00    +0.000 A 
ATOM     31  C   UNL     1      -3.139  14.881  24.879  0.00  0.00    +0.000 A 
ATOM     32  C   UNL     1      -3.587  16.181  25.140  0.00  0.00    +0.000 A 
ATOM     33  C   UNL     1      -4.805  16.615  24.623  0.00  0.00    +0.000 A 
ATOM     34  C   UNL     1      -5.595  15.740  23.879  0.00  0.00    +0.000 A 
ATOM     35  C   UNL     1      -5.159  14.435  23.637  0.00  0.00    +0.000 A 
ENDBRANCH  29  30
ENDBRANCH  26  29
ENDBRANCH  21  23
ENDBRANCH  20  21
ENDBRANCH  19  20
ENDBRANCH   1  19
TORSDOF 8
ENDMDL
MODEL 4
REMARK VINA RESULT:      -8.6      1.648      2.932
REMARK  Name = 
REMARK  8 active torsions:
REMARK  status: ('A' for Active; 'I' for Inactive)
REMARK    1  A    between atoms: C_4  and  C_5
REMARK    2  A    between atoms: C_14  and  O_15
REMARK    3  A    between atoms: O_15  and  C_16
REMARK    4  A    between atoms: C_16  and  C_17
REMARK    5  A    between atoms: C_17  and  N_18
REMARK    6  A    between atoms: N_18  and  C_19
REMARK    7  A    between atoms: N_22  and  C_23
REMARK    8  A    between atoms: C_23  and  C_24
REMARK                            x       y       z     vdW  Elec       q    Type
REMARK                         _______ _______ _______ _____ _____    ______ ____
ROOT
ATOM      1  O   UNL     1       9.083   9.266  18.496  0.00  0.00    +0.000 OA
ENDROOT
BRANCH   1   9
ATOM      2  O   UNL     1      10.485  16.073  17.088  0.00  0.00    +0.000 OA
ATOM      3  C   UNL     1      10.232  15.187  17.894  0.00  0.00    +0.000 A 
ATOM      4  C   UNL     1      10.199  15.470  19.333  0.00  0.00    +0.000 A 
ATOM      5  C   UNL     1       9.942  14.542  20.272  0.00  0.00    +0.000 A 
ATOM      6  C   UNL     1       9.700  13.166  19.825  0.00  0.00    +0.000 A 
ATOM      7  C   UNL     1       9.470  12.111  20.710  0.00  0.00    +0.000 A 
ATOM      8  C   UNL     1       9.265  10.816  20.221  0.00  0.00    +0.000 A 
ATOM      9  C   UNL     1       9.282  10.569  18.843  0.00  0.00    +0.000 A 
ATOM     10  C   UNL     1       9.496  11.614  17.957  0.00  0.00    +0.000 A 
ATOM     11  C   UNL     1       9.712  12.892  18.458  0.00  0.00    +0.000 A 
ATOM     12  O   UNL     1       9.954  13.892  17.504  0.00  0.00    +0.000 OA
BRANCH   5  13
ATOM     13  C   UNL     1       9.920  15.030  21.660  0.00  0.00    +0.000 A 
ATOM     14  C   UNL     1       8.890  14.631  22.521  0.00  0.00    +0.000 A 
ATOM     15  C   UNL     1       8.809  15.162  23.806  0.00  0.00    +0.000 A 
ATOM     16  C   UNL     1       9.762  16.083  24.244  0.00  0.00    +0.000 A 
ATOM     17  C   UNL     1      10.808  16.459  23.400  0.00  0.00    +0.000 A 
ATOM     18  C   UNL     1      10.889  15.935  22.110  0.00  0.00    +0.000 A 
ENDBRANCH   5  13
ENDBRANCH   1   9
BRANCH   1  19
ATOM     19  C   UNL     1       7.815   8.944  17.924  0.00  0.00    +0.000 C 
BRANCH  19  20
ATOM     20  C   UNL     1       7.836   7.474  17.513  0.00  0.00    +0.000 C 
BRANCH  20  21
ATOM     21  N   UNL     1       6.647   6.706  17.937  0.00  0.00    +0.000 NA
ATOM     22  H   UNL     1       6.347   7.024  18.859  0.00  0.00    +0.000 HD
BRANCH  21  23
ATOM     23  C   UNL     1       5.544   6.840  16.965  0.00  0.00    +0.000 C 
ATOM     24  C   UNL     1       4.148   6.788  17.615  0.00  0.00    +0.000 C 
ATOM     25  C   UNL     1       3.666   5.370  17.996  0.00  0.00    +0.000 C 
ATOM     26  N   UNL     1       3.867   4.377  16.920  0.00  0.00    +0.000 NA
ATOM     27  C   UNL     1       5.272   4.385  16.491  0.00  0.00    +0.000 C 
ATOM     28  C   UNL     1       5.586   5.751  15.889  0.00  0.00    +0.000 C 
BRANCH  26  29
ATOM     29  C   UNL     1       3.450   3.038  17.378  0.00  0.00    +0.000 C 
BRANCH  29  30
ATOM     30  C   UNL     1       2.734   3.009  18.720  0.00  0.00    +0.000 A 
ATOM     31  C   UNL     1       3.456   2.820  19.909  0.00  0.00    +0.000 A 
ATOM     32  C   UNL     1       2.809   2.857  21.150  0.00  0.00    +0.000 A 
ATOM     33  C   UNL     1       1.440   3.099  21.215  0.00  0.00    +0.000 A 
ATOM     34  C   UNL     1       0.707   3.266  20.042  0.00  0.00    +0.000 A 
ATOM     35  C   UNL     1       1.348   3.206  18.801  0.00  0.00    +0.000 A 
ENDBRANCH  29  30
ENDBRANCH  26  29
ENDBRANCH  21  23
ENDBRANCH  20  21
ENDBRANCH  19  20
ENDBRANCH   1  19
TORSDOF 8
ENDMDL
MODEL 5
REMARK VINA RESULT:      -8.6      6.241      9.335
REMARK  Name = 
REMARK  8 active torsions:
REMARK  status: ('A' for Active; 'I' for Inactive)
REMARK    1  A    between atoms: C_4  and  C_5
REMARK    2  A    between atoms: C_14  and  O_15
REMARK    3  A    between atoms: O_15  and  C_16
REMARK    4  A    between atoms: C_16  and  C_17
REMARK    5  A    between atoms: C_17  and  N_18
REMARK    6  A    between atoms: N_18  and  C_19
REMARK    7  A    between atoms: N_22  and  C_23
REMARK    8  A    between atoms: C_23  and  C_24
REMARK                            x       y       z     vdW  Elec       q    Type
REMARK                         _______ _______ _______ _____ _____    ______ ____
ROOT
ATOM      1  O   UNL     1       2.859   2.749  19.908  0.00  0.00    +0.000 OA
ENDROOT
BRANCH   1   9
ATOM      2  O   UNL     1       8.245   7.156  18.549  0.00  0.00    +0.000 OA
ATOM      3  C   UNL     1       7.450   6.305  18.171  0.00  0.00    +0.000 A 
ATOM      4  C   UNL     1       7.409   5.887  16.765  0.00  0.00    +0.000 A 
ATOM      5  C   UNL     1       6.553   4.971  16.282  0.00  0.00    +0.000 A 
ATOM      6  C   UNL     1       5.595   4.369  17.217  0.00  0.00    +0.000 A 
ATOM      7  C   UNL     1       4.629   3.443  16.820  0.00  0.00    +0.000 A 
ATOM      8  C   UNL     1       3.730   2.921  17.758  0.00  0.00    +0.000 A 
ATOM      9  C   UNL     1       3.796   3.318  19.098  0.00  0.00    +0.000 A 
ATOM     10  C   UNL     1       4.762   4.227  19.503  0.00  0.00    +0.000 A 
ATOM     11  C   UNL     1       5.639   4.747  18.558  0.00  0.00    +0.000 A 
ATOM     12  O   UNL     1       6.567   5.686  19.033  0.00  0.00    +0.000 OA
BRANCH   5  13
ATOM     13  C   UNL     1       6.692   4.662  14.850  0.00  0.00    +0.000 A 
ATOM     14  C   UNL     1       7.661   5.325  14.086  0.00  0.00    +0.000 A 
ATOM     15  C   UNL     1       7.735   5.109  12.712  0.00  0.00    +0.000 A 
ATOM     16  C   UNL     1       6.853   4.221  12.095  0.00  0.00    +0.000 A 
ATOM     17  C   UNL     1       5.906   3.536  12.857  0.00  0.00    +0.000 A 
ATOM     18  C   UNL     1       5.824   3.754  14.232  0.00  0.00    +0.000 A 
ENDBRANCH   5  13
ENDBRANCH   1   9
BRANCH   1  19
ATOM     19  C   UNL     1       1.499   3.115  19.667  0.00  0.00    +0.000 C 
BRANCH  19  20
ATOM     20  C   UNL     1       1.160   4.303  20.564  0.00  0.00    +0.000 C 
BRANCH  20  21
ATOM     21  N   UNL     1       1.050   5.593  19.851  0.00  0.00    +0.000 NA
ATOM     22  H   UNL     1       0.121   5.987  20.001  0.00  0.00    +0.000 HD
BRANCH  21  23
ATOM     23  C   UNL     1       2.088   6.544  20.296  0.00  0.00    +0.000 C 
ATOM     24  C   UNL     1       1.510   7.816  20.947  0.00  0.00    +0.000 C 
ATOM     25  C   UNL     1       0.956   8.857  19.948  0.00  0.00    +0.000 C 
ATOM     26  N   UNL     1       1.867   9.120  18.815  0.00  0.00    +0.000 NA
ATOM     27  C   UNL     1       2.219   7.856  18.154  0.00  0.00    +0.000 C 
ATOM     28  C   UNL     1       2.993   6.993  19.146  0.00  0.00    +0.000 C 
BRANCH  26  29
ATOM     29  C   UNL     1       1.243  10.067  17.870  0.00  0.00    +0.000 C 
BRANCH  29  30
ATOM     30  C   UNL     1      -0.190  10.457  18.198  0.00  0.00    +0.000 A 
ATOM     31  C   UNL     1      -0.457  11.514  19.082  0.00  0.00    +0.000 A 
ATOM     32  C   UNL     1      -1.773  11.918  19.336  0.00  0.00    +0.000 A 
ATOM     33  C   UNL     1      -2.832  11.282  18.695  0.00  0.00    +0.000 A 
ATOM     34  C   UNL     1      -2.584  10.217  17.831  0.00  0.00    +0.000 A 
ATOM     35  C   UNL     1      -1.271   9.798  17.595  0.00  0.00    +0.000 A 
ENDBRANCH  29  30
ENDBRANCH  26  29
ENDBRANCH  21  23
ENDBRANCH  20  21
ENDBRANCH  19  20
ENDBRANCH   1  19
TORSDOF 8
ENDMDL
MODEL 6
REMARK VINA RESULT:      -8.5      6.788      9.495
REMARK  Name = 
REMARK  8 active torsions:
REMARK  status: ('A' for Active; 'I' for Inactive)
REMARK    1  A    between atoms: C_4  and  C_5
REMARK    2  A    between atoms: C_14  and  O_15
REMARK    3  A    between atoms: O_15  and  C_16
REMARK    4  A    between atoms: C_16  and  C_17
REMARK    5  A    between atoms: C_17  and  N_18
REMARK    6  A    between atoms: N_18  and  C_19
REMARK    7  A    between atoms: N_22  and  C_23
REMARK    8  A    between atoms: C_23  and  C_24
REMARK                            x       y       z     vdW  Elec       q    Type
REMARK                         _______ _______ _______ _____ _____    ______ ____
ROOT
ATOM      1  O   UNL     1       1.167   7.417  21.553  0.00  0.00    +0.000 OA
ENDROOT
BRANCH   1   9
ATOM      2  O   UNL     1      -0.621  13.443  18.270  0.00  0.00    +0.000 OA
ATOM      3  C   UNL     1      -0.619  12.742  19.274  0.00  0.00    +0.000 A 
ATOM      4  C   UNL     1      -1.184  13.237  20.535  0.00  0.00    +0.000 A 
ATOM      5  C   UNL     1      -1.202  12.527  21.676  0.00  0.00    +0.000 A 
ATOM      6  C   UNL     1      -0.604  11.187  21.657  0.00  0.00    +0.000 A 
ATOM      7  C   UNL     1      -0.522  10.378  22.792  0.00  0.00    +0.000 A 
ATOM      8  C   UNL     1       0.079   9.116  22.712  0.00  0.00    +0.000 A 
ATOM      9  C   UNL     1       0.596   8.654  21.497  0.00  0.00    +0.000 A 
ATOM     10  C   UNL     1       0.506   9.446  20.362  0.00  0.00    +0.000 A 
ATOM     11  C   UNL     1      -0.081  10.702  20.459  0.00  0.00    +0.000 A 
ATOM     12  O   UNL     1      -0.106  11.461  19.279  0.00  0.00    +0.000 OA
BRANCH   5  13
ATOM     13  C   UNL     1      -1.844  13.184  22.825  0.00  0.00    +0.000 A 
ATOM     14  C   UNL     1      -3.160  12.852  23.170  0.00  0.00    +0.000 A 
ATOM     15  C   UNL     1      -3.808  13.537  24.196  0.00  0.00    +0.000 A 
ATOM     16  C   UNL     1      -3.141  14.545  24.893  0.00  0.00    +0.000 A 
ATOM     17  C   UNL     1      -1.819  14.858  24.573  0.00  0.00    +0.000 A 
ATOM     18  C   UNL     1      -1.169  14.179  23.542  0.00  0.00    +0.000 A 
ENDBRANCH   5  13
ENDBRANCH   1   9
BRANCH   1  19
ATOM     19  C   UNL     1       1.697   6.901  20.331  0.00  0.00    +0.000 C 
BRANCH  19  20
ATOM     20  C   UNL     1       2.084   5.442  20.557  0.00  0.00    +0.000 C 
BRANCH  20  21
ATOM     21  N   UNL     1       1.293   4.474  19.769  0.00  0.00    +0.000 NA
ATOM     22  H   UNL     1       1.118   4.855  18.838  0.00  0.00    +0.000 HD
BRANCH  21  23
ATOM     23  C   UNL     1       1.983   3.172  19.667  0.00  0.00    +0.000 C 
ATOM     24  C   UNL     1       3.487   3.252  19.995  0.00  0.00    +0.000 C 
ATOM     25  C   UNL     1       4.365   3.830  18.861  0.00  0.00    +0.000 C 
ATOM     26  N   UNL     1       4.067   3.244  17.538  0.00  0.00    +0.000 NA
ATOM     27  C   UNL     1       2.634   3.376  17.246  0.00  0.00    +0.000 C 
ATOM     28  C   UNL     1       1.855   2.557  18.271  0.00  0.00    +0.000 C 
BRANCH  26  29
ATOM     29  C   UNL     1       4.892   3.890  16.499  0.00  0.00    +0.000 C 
BRANCH  29  30
ATOM     30  C   UNL     1       5.878   4.931  17.010  0.00  0.00    +0.000 A 
ATOM     31  C   UNL     1       5.658   6.297  16.774  0.00  0.00    +0.000 A 
ATOM     32  C   UNL     1       6.528   7.260  17.297  0.00  0.00    +0.000 A 
ATOM     33  C   UNL     1       7.614   6.869  18.075  0.00  0.00    +0.000 A 
ATOM     34  C   UNL     1       7.857   5.515  18.299  0.00  0.00    +0.000 A 
ATOM     35  C   UNL     1       7.002   4.551  17.757  0.00  0.00    +0.000 A 
ENDBRANCH  29  30
ENDBRANCH  26  29
ENDBRANCH  21  23
ENDBRANCH  20  21
ENDBRANCH  19  20
ENDBRANCH   1  19
TORSDOF 8
ENDMDL
MODEL 7
REMARK VINA RESULT:      -8.5      7.061     10.498
REMARK  Name = 
REMARK  8 active torsions:
REMARK  status: ('A' for Active; 'I' for Inactive)
REMARK    1  A    between atoms: C_4  and  C_5
REMARK    2  A    between atoms: C_14  and  O_15
REMARK    3  A    between atoms: O_15  and  C_16
REMARK    4  A    between atoms: C_16  and  C_17
REMARK    5  A    between atoms: C_17  and  N_18
REMARK    6  A    between atoms: N_18  and  C_19
REMARK    7  A    between atoms: N_22  and  C_23
REMARK    8  A    between atoms: C_23  and  C_24
REMARK                            x       y       z     vdW  Elec       q    Type
REMARK                         _______ _______ _______ _____ _____    ______ ____
ROOT
ATOM      1  O   UNL     1       1.360   9.102  19.584  0.00  0.00    +0.000 OA
ENDROOT
BRANCH   1   9
ATOM      2  O   UNL     1       3.634   2.475  20.678  0.00  0.00    +0.000 OA
ATOM      3  C   UNL     1       3.611   3.488  19.991  0.00  0.00    +0.000 A 
ATOM      4  C   UNL     1       4.423   3.588  18.773  0.00  0.00    +0.000 A 
ATOM      5  C   UNL     1       4.455   4.675  17.983  0.00  0.00    +0.000 A 
ATOM      6  C   UNL     1       3.641   5.831  18.377  0.00  0.00    +0.000 A 
ATOM      7  C   UNL     1       3.631   7.030  17.661  0.00  0.00    +0.000 A 
ATOM      8  C   UNL     1       2.848   8.104  18.100  0.00  0.00    +0.000 A 
ATOM      9  C   UNL     1       2.065   7.983  19.254  0.00  0.00    +0.000 A 
ATOM     10  C   UNL     1       2.059   6.791  19.963  0.00  0.00    +0.000 A 
ATOM     11  C   UNL     1       2.853   5.738  19.522  0.00  0.00    +0.000 A 
ATOM     12  O   UNL     1       2.822   4.576  20.308  0.00  0.00    +0.000 OA
BRANCH   5  13
ATOM     13  C   UNL     1       5.306   4.569  16.787  0.00  0.00    +0.000 A 
ATOM     14  C   UNL     1       6.685   4.788  16.893  0.00  0.00    +0.000 A 
ATOM     15  C   UNL     1       7.483   4.784  15.751  0.00  0.00    +0.000 A 
ATOM     16  C   UNL     1       6.912   4.545  14.501  0.00  0.00    +0.000 A 
ATOM     17  C   UNL     1       5.543   4.295  14.394  0.00  0.00    +0.000 A 
ATOM     18  C   UNL     1       4.739   4.306  15.534  0.00  0.00    +0.000 A 
ENDBRANCH   5  13
ENDBRANCH   1   9
BRANCH   1  19
ATOM     19  C   UNL     1       1.262  10.114  18.581  0.00  0.00    +0.000 C 
BRANCH  19  20
ATOM     20  C   UNL     1       1.534  11.465  19.239  0.00  0.00    +0.000 C 
BRANCH  20  21
ATOM     21  N   UNL     1       1.040  11.575  20.628  0.00  0.00    +0.000 NA
ATOM     22  H   UNL     1       1.819  11.459  21.277  0.00  0.00    +0.000 HD
BRANCH  21  23
ATOM     23  C   UNL     1       0.371  12.871  20.859  0.00  0.00    +0.000 C 
ATOM     24  C   UNL     1      -0.809  12.780  21.847  0.00  0.00    +0.000 C 
ATOM     25  C   UNL     1      -2.108  12.192  21.249  0.00  0.00    +0.000 C 
ATOM     26  N   UNL     1      -2.462  12.777  19.938  0.00  0.00    +0.000 NA
ATOM     27  C   UNL     1      -1.326  12.655  19.015  0.00  0.00    +0.000 C 
ATOM     28  C   UNL     1      -0.168  13.483  19.563  0.00  0.00    +0.000 C 
BRANCH  26  29
ATOM     29  C   UNL     1      -3.668  12.120  19.399  0.00  0.00    +0.000 C 
BRANCH  29  30
ATOM     30  C   UNL     1      -3.457  11.332  18.115  0.00  0.00    +0.000 A 
ATOM     31  C   UNL     1      -4.227  11.607  16.975  0.00  0.00    +0.000 A 
ATOM     32  C   UNL     1      -3.991  10.929  15.774  0.00  0.00    +0.000 A 
ATOM     33  C   UNL     1      -2.974   9.982  15.696  0.00  0.00    +0.000 A 
ATOM     34  C   UNL     1      -2.215   9.683  16.826  0.00  0.00    +0.000 A 
ATOM     35  C   UNL     1      -2.465  10.343  18.033  0.00  0.00    +0.000 A 
ENDBRANCH  29  30
ENDBRANCH  26  29
ENDBRANCH  21  23
ENDBRANCH  20  21
ENDBRANCH  19  20
ENDBRANCH   1  19
TORSDOF 8
ENDMDL
MODEL 8
REMARK VINA RESULT:      -8.5      2.222      3.591
REMARK  Name = 
REMARK  8 active torsions:
REMARK  status: ('A' for Active; 'I' for Inactive)
REMARK    1  A    between atoms: C_4  and  C_5
REMARK    2  A    between atoms: C_14  and  O_15
REMARK    3  A    between atoms: O_15  and  C_16
REMARK    4  A    between atoms: C_16  and  C_17
REMARK    5  A    between atoms: C_17  and  N_18
REMARK    6  A    between atoms: N_18  and  C_19
REMARK    7  A    between atoms: N_22  and  C_23
REMARK    8  A    between atoms: C_23  and  C_24
REMARK                            x       y       z     vdW  Elec       q    Type
REMARK                         _______ _______ _______ _____ _____    ______ ____
ROOT
ATOM      1  O   UNL     1       9.319  10.681  17.874  0.00  0.00    +0.000 OA
ENDROOT
BRANCH   1   9
ATOM      2  O   UNL     1      10.188  17.706  17.469  0.00  0.00    +0.000 OA
ATOM      3  C   UNL     1      10.063  16.690  18.140  0.00  0.00    +0.000 A 
ATOM      4  C   UNL     1      10.149  16.743  19.604  0.00  0.00    +0.000 A 
ATOM      5  C   UNL     1      10.036  15.665  20.399  0.00  0.00    +0.000 A 
ATOM      6  C   UNL     1       9.832  14.361  19.758  0.00  0.00    +0.000 A 
ATOM      7  C   UNL     1       9.748  13.167  20.478  0.00  0.00    +0.000 A 
ATOM      8  C   UNL     1       9.573  11.952  19.805  0.00  0.00    +0.000 A 
ATOM      9  C   UNL     1       9.474  11.924  18.409  0.00  0.00    +0.000 A 
ATOM     10  C   UNL     1       9.543  13.107  17.688  0.00  0.00    +0.000 A 
ATOM     11  C   UNL     1       9.731  14.304  18.369  0.00  0.00    +0.000 A 
ATOM     12  O   UNL     1       9.825  15.455  17.572  0.00  0.00    +0.000 OA
BRANCH   5  13
ATOM     13  C   UNL     1      10.117  15.928  21.844  0.00  0.00    +0.000 A 
ATOM     14  C   UNL     1      11.253  16.551  22.375  0.00  0.00    +0.000 A 
ATOM     15  C   UNL     1      11.379  16.718  23.753  0.00  0.00    +0.000 A 
ATOM     16  C   UNL     1      10.367  16.277  24.606  0.00  0.00    +0.000 A 
ATOM     17  C   UNL     1       9.219  15.683  24.079  0.00  0.00    +0.000 A 
ATOM     18  C   UNL     1       9.092  15.508  22.701  0.00  0.00    +0.000 A 
ENDBRANCH   5  13
ENDBRANCH   1   9
BRANCH   1  19
ATOM     19  C   UNL     1       8.910   9.646  18.770  0.00  0.00    +0.000 C 
BRANCH  19  20
ATOM     20  C   UNL     1       8.181   8.576  17.961  0.00  0.00    +0.000 C 
BRANCH  20  21
ATOM     21  N   UNL     1       8.092   7.262  18.632  0.00  0.00    +0.000 NA
ATOM     22  H   UNL     1       7.496   7.339  19.456  0.00  0.00    +0.000 HD
BRANCH  21  23
ATOM     23  C   UNL     1       7.570   6.226  17.718  0.00  0.00    +0.000 C 
ATOM     24  C   UNL     1       6.487   6.752  16.755  0.00  0.00    +0.000 C 
ATOM     25  C   UNL     1       5.089   6.927  17.390  0.00  0.00    +0.000 C 
ATOM     26  N   UNL     1       4.665   5.763  18.195  0.00  0.00    +0.000 NA
ATOM     27  C   UNL     1       5.690   5.452  19.200  0.00  0.00    +0.000 C 
ATOM     28  C   UNL     1       6.967   5.038  18.474  0.00  0.00    +0.000 C 
BRANCH  26  29
ATOM     29  C   UNL     1       3.357   6.030  18.824  0.00  0.00    +0.000 C 
BRANCH  29  30
ATOM     30  C   UNL     1       2.493   4.801  19.065  0.00  0.00    +0.000 A 
ATOM     31  C   UNL     1       1.731   4.685  20.238  0.00  0.00    +0.000 A 
ATOM     32  C   UNL     1       0.885   3.587  20.435  0.00  0.00    +0.000 A 
ATOM     33  C   UNL     1       0.780   2.604  19.454  0.00  0.00    +0.000 A 
ATOM     34  C   UNL     1       1.547   2.696  18.294  0.00  0.00    +0.000 A 
ATOM     35  C   UNL     1       2.409   3.780  18.107  0.00  0.00    +0.000 A 
ENDBRANCH  29  30
ENDBRANCH  26  29
ENDBRANCH  21  23
ENDBRANCH  20  21
ENDBRANCH  19  20
ENDBRANCH   1  19
TORSDOF 8
ENDMDL
MODEL 9
REMARK VINA RESULT:      -8.5      2.145      3.140
REMARK  Name = 
REMARK  8 active torsions:
REMARK  status: ('A' for Active; 'I' for Inactive)
REMARK    1  A    between atoms: C_4  and  C_5
REMARK    2  A    between atoms: C_14  and  O_15
REMARK    3  A    between atoms: O_15  and  C_16
REMARK    4  A    between atoms: C_16  and  C_17
REMARK    5  A    between atoms: C_17  and  N_18
REMARK    6  A    between atoms: N_18  and  C_19
REMARK    7  A    between atoms: N_22  and  C_23
REMARK    8  A    between atoms: C_23  and  C_24
REMARK                            x       y       z     vdW  Elec       q    Type
REMARK                         _______ _______ _______ _____ _____    ______ ____
ROOT
ATOM      1  O   UNL     1       9.046   9.790  19.140  0.00  0.00    +0.000 OA
ENDROOT
BRANCH   1   9
ATOM      2  O   UNL     1      11.404  15.973  16.592  0.00  0.00    +0.000 OA
ATOM      3  C   UNL     1      11.070  15.275  17.541  0.00  0.00    +0.000 A 
ATOM      4  C   UNL     1      11.181  15.775  18.916  0.00  0.00    +0.000 A 
ATOM      5  C   UNL     1      10.847  15.057  20.002  0.00  0.00    +0.000 A 
ATOM      6  C   UNL     1      10.360  13.689  19.794  0.00  0.00    +0.000 A 
ATOM      7  C   UNL     1      10.029  12.834  20.848  0.00  0.00    +0.000 A 
ATOM      8  C   UNL     1       9.589  11.532  20.583  0.00  0.00    +0.000 A 
ATOM      9  C   UNL     1       9.472  11.079  19.264  0.00  0.00    +0.000 A 
ATOM     10  C   UNL     1       9.786  11.926  18.212  0.00  0.00    +0.000 A 
ATOM     11  C   UNL     1      10.235  13.212  18.491  0.00  0.00    +0.000 A 
ATOM     12  O   UNL     1      10.565  14.001  17.378  0.00  0.00    +0.000 OA
BRANCH   5  13
ATOM     13  C   UNL     1      10.998  15.747  21.293  0.00  0.00    +0.000 A 
ATOM     14  C   UNL     1      10.074  15.513  22.319  0.00  0.00    +0.000 A 
ATOM     15  C   UNL     1      10.154  16.233  23.510  0.00  0.00    +0.000 A 
ATOM     16  C   UNL     1      11.165  17.178  23.687  0.00  0.00    +0.000 A 
ATOM     17  C   UNL     1      12.106  17.392  22.680  0.00  0.00    +0.000 A 
ATOM     18  C   UNL     1      12.026  16.679  21.484  0.00  0.00    +0.000 A 
ENDBRANCH   5  13
ENDBRANCH   1   9
BRANCH   1  19
ATOM     19  C   UNL     1       8.180   9.506  18.041  0.00  0.00    +0.000 C 
BRANCH  19  20
ATOM     20  C   UNL     1       8.361   8.039  17.657  0.00  0.00    +0.000 C 
BRANCH  20  21
ATOM     21  N   UNL     1       7.212   7.453  16.936  0.00  0.00    +0.000 NA
ATOM     22  H   UNL     1       7.232   7.755  15.961  0.00  0.00    +0.000 HD
BRANCH  21  23
ATOM     23  C   UNL     1       7.224   5.978  17.015  0.00  0.00    +0.000 C 
ATOM     24  C   UNL     1       6.383   5.302  15.914  0.00  0.00    +0.000 C 
ATOM     25  C   UNL     1       4.857   5.324  16.162  0.00  0.00    +0.000 C 
ATOM     26  N   UNL     1       4.485   4.926  17.535  0.00  0.00    +0.000 NA
ATOM     27  C   UNL     1       5.213   5.751  18.509  0.00  0.00    +0.000 C 
ATOM     28  C   UNL     1       6.704   5.467  18.362  0.00  0.00    +0.000 C 
BRANCH  26  29
ATOM     29  C   UNL     1       3.025   5.037  17.718  0.00  0.00    +0.000 C 
BRANCH  29  30
ATOM     30  C   UNL     1       2.464   4.291  18.920  0.00  0.00    +0.000 A 
ATOM     31  C   UNL     1       2.722   4.745  20.223  0.00  0.00    +0.000 A 
ATOM     32  C   UNL     1       2.155   4.100  21.328  0.00  0.00    +0.000 A 
ATOM     33  C   UNL     1       1.313   3.007  21.141  0.00  0.00    +0.000 A 
ATOM     34  C   UNL     1       1.067   2.533  19.854  0.00  0.00    +0.000 A 
ATOM     35  C   UNL     1       1.651   3.162  18.751  0.00  0.00    +0.000 A 
ENDBRANCH  29  30
ENDBRANCH  26  29
ENDBRANCH  21  23
ENDBRANCH  20  21
ENDBRANCH  19  20
ENDBRANCH   1  19
TORSDOF 8
ENDMDL
