MODEL 1
REMARK VINA RESULT:      -7.6      0.000      0.000
REMARK  Name = 
REMARK  5 active torsions:
REMARK  status: ('A' for Active; 'I' for Inactive)
REMARK    1  A    between atoms: C_2  and  C_3
REMARK    2  A    between atoms: C_3  and  S_4
REMARK    3  A    between atoms: S_4  and  C_5
REMARK    4  A    between atoms: C_7  and  O_8
REMARK    5  A    between atoms: C_10  and  C_11
REMARK                            x       y       z     vdW  Elec       q    Type
REMARK                         _______ _______ _______ _____ _____    ______ ____
ROOT
ATOM      1  C   UNL     1       6.590   4.545  15.108  0.00  0.00    +0.000 A 
ATOM      2  N   UNL     1       7.642   5.276  14.722  0.00  0.00    +0.000 NA
ATOM      3  C   UNL     1       7.884   5.288  13.415  0.00  0.00    +0.000 A 
ATOM      4  C   UNL     1       7.146   4.645  12.461  0.00  0.00    +0.000 A 
ATOM      5  C   UNL     1       6.065   3.932  12.937  0.00  0.00    +0.000 A 
ATOM      6  N   UNL     1       5.769   3.878  14.267  0.00  0.00    +0.000 NA
ENDROOT
BRANCH   5   7
ATOM      7  C   UNL     1       5.179   3.189  11.947  0.00  0.00    +0.000 C 
ATOM      8  F   UNL     1       5.122   3.788  10.719  0.00  0.00    +0.000 F 
ATOM      9  F   UNL     1       5.597   1.915  11.710  0.00  0.00    +0.000 F 
ATOM     10  F   UNL     1       3.885   3.093  12.363  0.00  0.00    +0.000 F 
ENDBRANCH   5   7
BRANCH   3  11
ATOM     11  O   UNL     1       8.969   6.021  13.059  0.00  0.00    +0.000 OA
ATOM     12  H   UNL     1       8.857   6.046  12.090  0.00  0.00    +0.000 HD
ENDBRANCH   3  11
BRANCH   1  13
ATOM     13  S   UNL     1       6.236   4.562  16.849  0.00  0.00    +0.000 S 
BRANCH  13  14
ATOM     14  C   UNL     1       4.443   4.274  16.821  0.00  0.00    +0.000 C 
BRANCH  14  16
ATOM     15  O   UNL     1       3.699   6.274  17.957  0.00  0.00    +0.000 OA
ATOM     16  C   UNL     1       3.696   5.041  17.910  0.00  0.00    +0.000 C 
ATOM     17  N   UNL     1       2.987   4.280  18.843  0.00  0.00    +0.000 N 
ATOM     18  C   UNL     1       2.914   2.820  18.837  0.00  0.00    +0.000 C 
ATOM     19  C   UNL     1       1.565   2.309  19.333  0.00  0.00    +0.000 C 
ATOM     20  C   UNL     1       1.148   2.949  20.652  0.00  0.00    +0.000 C 
ATOM     21  C   UNL     1       1.233   4.471  20.575  0.00  0.00    +0.000 C 
ATOM     22  C   UNL     1       2.607   4.924  20.098  0.00  0.00    +0.000 C 
ENDBRANCH  14  16
ENDBRANCH  13  14
ENDBRANCH   1  13
TORSDOF 5
ENDMDL
MODEL 2
REMARK VINA RESULT:      -7.5      1.177      1.488
REMARK  Name = 
REMARK  5 active torsions:
REMARK  status: ('A' for Active; 'I' for Inactive)
REMARK    1  A    between atoms: C_2  and  C_3
REMARK    2  A    between atoms: C_3  and  S_4
REMARK    3  A    between atoms: S_4  and  C_5
REMARK    4  A    between atoms: C_7  and  O_8
REMARK    5  A    between atoms: C_10  and  C_11
REMARK                            x       y       z     vdW  Elec       q    Type
REMARK                         _______ _______ _______ _____ _____    ______ ____
ROOT
ATOM      1  C   UNL     1       6.138   5.045  15.066  0.00  0.00    +0.000 A 
ATOM      2  N   UNL     1       7.336   5.551  14.748  0.00  0.00    +0.000 NA
ATOM      3  C   UNL     1       7.782   5.249  13.532  0.00  0.00    +0.000 A 
ATOM      4  C   UNL     1       7.117   4.501  12.602  0.00  0.00    +0.000 A 
ATOM      5  C   UNL     1       5.880   4.036  12.998  0.00  0.00    +0.000 A 
ATOM      6  N   UNL     1       5.372   4.307  14.234  0.00  0.00    +0.000 NA
ENDROOT
BRANCH   5   7
ATOM      7  C   UNL     1       5.062   3.198  12.024  0.00  0.00    +0.000 C 
ATOM      8  F   UNL     1       5.606   1.968  11.781  0.00  0.00    +0.000 F 
ATOM      9  F   UNL     1       3.796   2.955  12.463  0.00  0.00    +0.000 F 
ATOM     10  F   UNL     1       4.933   3.785  10.801  0.00  0.00    +0.000 F 
ENDBRANCH   5   7
BRANCH   3  11
ATOM     11  O   UNL     1       9.005   5.760  13.249  0.00  0.00    +0.000 OA
ATOM     12  H   UNL     1       9.515   4.939  13.111  0.00  0.00    +0.000 HD
ENDBRANCH   3  11
BRANCH   1  13
ATOM     13  S   UNL     1       5.519   5.481  16.673  0.00  0.00    +0.000 S 
BRANCH  13  14
ATOM     14  C   UNL     1       4.665   3.943  17.123  0.00  0.00    +0.000 C 
BRANCH  14  16
ATOM     15  O   UNL     1       5.731   3.771  19.285  0.00  0.00    +0.000 OA
ATOM     16  C   UNL     1       4.697   3.655  18.622  0.00  0.00    +0.000 C 
ATOM     17  N   UNL     1       3.492   3.273  19.217  0.00  0.00    +0.000 N 
ATOM     18  C   UNL     1       2.222   3.140  18.503  0.00  0.00    +0.000 C 
ATOM     19  C   UNL     1       1.030   3.524  19.373  0.00  0.00    +0.000 C 
ATOM     20  C   UNL     1       1.056   2.837  20.734  0.00  0.00    +0.000 C 
ATOM     21  C   UNL     1       2.403   3.035  21.423  0.00  0.00    +0.000 C 
ATOM     22  C   UNL     1       3.554   2.614  20.519  0.00  0.00    +0.000 C 
ENDBRANCH  14  16
ENDBRANCH  13  14
ENDBRANCH   1  13
TORSDOF 5
ENDMDL
MODEL 3
REMARK VINA RESULT:      -7.4      1.105      1.181
REMARK  Name = 
REMARK  5 active torsions:
REMARK  status: ('A' for Active; 'I' for Inactive)
REMARK    1  A    between atoms: C_2  and  C_3
REMARK    2  A    between atoms: C_3  and  S_4
REMARK    3  A    between atoms: S_4  and  C_5
REMARK    4  A    between atoms: C_7  and  O_8
REMARK    5  A    between atoms: C_10  and  C_11
REMARK                            x       y       z     vdW  Elec       q    Type
REMARK                         _______ _______ _______ _____ _____    ______ ____
ROOT
ATOM      1  C   UNL     1       6.954   4.745  14.844  0.00  0.00    +0.000 A 
ATOM      2  N   UNL     1       7.902   5.494  14.270  0.00  0.00    +0.000 NA
ATOM      3  C   UNL     1       7.942   5.451  12.942  0.00  0.00    +0.000 A 
ATOM      4  C   UNL     1       7.096   4.735  12.142  0.00  0.00    +0.000 A 
ATOM      5  C   UNL     1       6.132   4.008  12.809  0.00  0.00    +0.000 A 
ATOM      6  N   UNL     1       6.045   4.008  14.169  0.00  0.00    +0.000 NA
ENDROOT
BRANCH   5   7
ATOM      7  C   UNL     1       5.139   3.185  11.999  0.00  0.00    +0.000 C 
ATOM      8  F   UNL     1       4.796   3.769  10.811  0.00  0.00    +0.000 F 
ATOM      9  F   UNL     1       5.611   1.949  11.674  0.00  0.00    +0.000 F 
ATOM     10  F   UNL     1       3.962   2.981  12.655  0.00  0.00    +0.000 F 
ENDBRANCH   5   7
BRANCH   3  11
ATOM     11  O   UNL     1       8.926   6.205  12.392  0.00  0.00    +0.000 OA
ATOM     12  H   UNL     1       9.067   5.730  11.551  0.00  0.00    +0.000 HD
ENDBRANCH   3  11
BRANCH   1  13
ATOM     13  S   UNL     1       6.869   4.833  16.617  0.00  0.00    +0.000 S 
BRANCH  13  14
ATOM     14  C   UNL     1       5.209   4.154  16.899  0.00  0.00    +0.000 C 
BRANCH  14  16
ATOM     15  O   UNL     1       5.708   4.206  19.263  0.00  0.00    +0.000 OA
ATOM     16  C   UNL     1       4.889   3.946  18.378  0.00  0.00    +0.000 C 
ATOM     17  N   UNL     1       3.614   3.466  18.686  0.00  0.00    +0.000 N 
ATOM     18  C   UNL     1       2.583   3.161  17.695  0.00  0.00    +0.000 C 
ATOM     19  C   UNL     1       1.180   3.456  18.215  0.00  0.00    +0.000 C 
ATOM     20  C   UNL     1       0.927   2.844  19.588  0.00  0.00    +0.000 C 
ATOM     21  C   UNL     1       2.033   3.220  20.570  0.00  0.00    +0.000 C 
ATOM     22  C   UNL     1       3.408   2.882  20.009  0.00  0.00    +0.000 C 
ENDBRANCH  14  16
ENDBRANCH  13  14
ENDBRANCH   1  13
TORSDOF 5
ENDMDL
MODEL 4
REMARK VINA RESULT:      -7.4      1.051      1.703
REMARK  Name = 
REMARK  5 active torsions:
REMARK  status: ('A' for Active; 'I' for Inactive)
REMARK    1  A    between atoms: C_2  and  C_3
REMARK    2  A    between atoms: C_3  and  S_4
REMARK    3  A    between atoms: S_4  and  C_5
REMARK    4  A    between atoms: C_7  and  O_8
REMARK    5  A    between atoms: C_10  and  C_11
REMARK                            x       y       z     vdW  Elec       q    Type
REMARK                         _______ _______ _______ _____ _____    ______ ____
ROOT
ATOM      1  C   UNL     1       6.539   4.501  15.106  0.00  0.00    +0.000 A 
ATOM      2  N   UNL     1       7.600   5.228  14.734  0.00  0.00    +0.000 NA
ATOM      3  C   UNL     1       7.854   5.247  13.429  0.00  0.00    +0.000 A 
ATOM      4  C   UNL     1       7.120   4.615  12.465  0.00  0.00    +0.000 A 
ATOM      5  C   UNL     1       6.030   3.907  12.927  0.00  0.00    +0.000 A 
ATOM      6  N   UNL     1       5.723   3.846  14.254  0.00  0.00    +0.000 NA
ENDROOT
BRANCH   5   7
ATOM      7  C   UNL     1       5.148   3.176  11.924  0.00  0.00    +0.000 C 
ATOM      8  F   UNL     1       5.615   1.932  11.600  0.00  0.00    +0.000 F 
ATOM      9  F   UNL     1       3.877   2.981  12.373  0.00  0.00    +0.000 F 
ATOM     10  F   UNL     1       5.034   3.839  10.739  0.00  0.00    +0.000 F 
ENDBRANCH   5   7
BRANCH   3  11
ATOM     11  O   UNL     1       8.946   5.975  13.088  0.00  0.00    +0.000 OA
ATOM     12  H   UNL     1       8.850   6.735  13.693  0.00  0.00    +0.000 HD
ENDBRANCH   3  11
BRANCH   1  13
ATOM     13  S   UNL     1       6.171   4.508  16.844  0.00  0.00    +0.000 S 
BRANCH  13  14
ATOM     14  C   UNL     1       4.356   4.509  16.793  0.00  0.00    +0.000 C 
BRANCH  14  16
ATOM     15  O   UNL     1       4.092   2.171  17.346  0.00  0.00    +0.000 OA
ATOM     16  C   UNL     1       3.734   3.335  17.546  0.00  0.00    +0.000 C 
ATOM     17  N   UNL     1       2.751   3.640  18.490  0.00  0.00    +0.000 N 
ATOM     18  C   UNL     1       2.295   4.994  18.801  0.00  0.00    +0.000 C 
ATOM     19  C   UNL     1       1.916   5.151  20.271  0.00  0.00    +0.000 C 
ATOM     20  C   UNL     1       0.979   4.050  20.752  0.00  0.00    +0.000 C 
ATOM     21  C   UNL     1       1.531   2.669  20.408  0.00  0.00    +0.000 C 
ATOM     22  C   UNL     1       1.868   2.562  18.927  0.00  0.00    +0.000 C 
ENDBRANCH  14  16
ENDBRANCH  13  14
ENDBRANCH   1  13
TORSDOF 5
ENDMDL
MODEL 5
REMARK VINA RESULT:      -7.3      3.026      4.217
REMARK  Name = 
REMARK  5 active torsions:
REMARK  status: ('A' for Active; 'I' for Inactive)
REMARK    1  A    between atoms: C_2  and  C_3
REMARK    2  A    between atoms: C_3  and  S_4
REMARK    3  A    between atoms: S_4  and  C_5
REMARK    4  A    between atoms: C_7  and  O_8
REMARK    5  A    between atoms: C_10  and  C_11
REMARK                            x       y       z     vdW  Elec       q    Type
REMARK                         _______ _______ _______ _____ _____    ______ ____
ROOT
ATOM      1  C   UNL     1       4.674   3.085  18.100  0.00  0.00    +0.000 A 
ATOM      2  N   UNL     1       5.282   3.681  19.133  0.00  0.00    +0.000 NA
ATOM      3  C   UNL     1       6.023   4.742  18.828  0.00  0.00    +0.000 A 
ATOM      4  C   UNL     1       6.188   5.267  17.577  0.00  0.00    +0.000 A 
ATOM      5  C   UNL     1       5.510   4.610  16.571  0.00  0.00    +0.000 A 
ATOM      6  N   UNL     1       4.739   3.514  16.821  0.00  0.00    +0.000 NA
ENDROOT
BRANCH   5   7
ATOM      7  C   UNL     1       5.627   5.129  15.144  0.00  0.00    +0.000 C 
ATOM      8  F   UNL     1       6.920   5.235  14.713  0.00  0.00    +0.000 F 
ATOM      9  F   UNL     1       5.005   4.330  14.233  0.00  0.00    +0.000 F 
ATOM     10  F   UNL     1       5.091   6.372  14.988  0.00  0.00    +0.000 F 
ENDBRANCH   5   7
BRANCH   3  11
ATOM     11  O   UNL     1       6.641   5.309  19.894  0.00  0.00    +0.000 OA
ATOM     12  H   UNL     1       6.934   6.154  19.502  0.00  0.00    +0.000 HD
ENDBRANCH   3  11
BRANCH   1  13
ATOM     13  S   UNL     1       3.648   1.693  18.507  0.00  0.00    +0.000 S 
BRANCH  13  14
ATOM     14  C   UNL     1       2.012   2.482  18.508  0.00  0.00    +0.000 C 
BRANCH  14  16
ATOM     15  O   UNL     1       1.625   2.979  20.841  0.00  0.00    +0.000 OA
ATOM     16  C   UNL     1       1.796   3.413  19.699  0.00  0.00    +0.000 C 
ATOM     17  N   UNL     1       1.821   4.785  19.440  0.00  0.00    +0.000 N 
ATOM     18  C   UNL     1       2.045   5.374  18.120  0.00  0.00    +0.000 C 
ATOM     19  C   UNL     1       2.809   6.692  18.200  0.00  0.00    +0.000 C 
ATOM     20  C   UNL     1       2.208   7.653  19.219  0.00  0.00    +0.000 C 
ATOM     21  C   UNL     1       2.021   6.974  20.573  0.00  0.00    +0.000 C 
ATOM     22  C   UNL     1       1.233   5.677  20.436  0.00  0.00    +0.000 C 
ENDBRANCH  14  16
ENDBRANCH  13  14
ENDBRANCH   1  13
TORSDOF 5
ENDMDL
MODEL 6
REMARK VINA RESULT:      -7.1      3.091      4.324
REMARK  Name = 
REMARK  5 active torsions:
REMARK  status: ('A' for Active; 'I' for Inactive)
REMARK    1  A    between atoms: C_2  and  C_3
REMARK    2  A    between atoms: C_3  and  S_4
REMARK    3  A    between atoms: S_4  and  C_5
REMARK    4  A    between atoms: C_7  and  O_8
REMARK    5  A    between atoms: C_10  and  C_11
REMARK                            x       y       z     vdW  Elec       q    Type
REMARK                         _______ _______ _______ _____ _____    ______ ____
ROOT
ATOM      1  C   UNL     1       5.424   3.915  18.718  0.00  0.00    +0.000 A 
ATOM      2  N   UNL     1       6.324   4.610  19.425  0.00  0.00    +0.000 NA
ATOM      3  C   UNL     1       7.023   5.508  18.737  0.00  0.00    +0.000 A 
ATOM      4  C   UNL     1       6.879   5.782  17.406  0.00  0.00    +0.000 A 
ATOM      5  C   UNL     1       5.915   5.040  16.755  0.00  0.00    +0.000 A 
ATOM      6  N   UNL     1       5.171   4.100  17.405  0.00  0.00    +0.000 NA
ENDROOT
BRANCH   5   7
ATOM      7  C   UNL     1       5.679   5.282  15.271  0.00  0.00    +0.000 C 
ATOM      8  F   UNL     1       4.901   4.322  14.684  0.00  0.00    +0.000 F 
ATOM      9  F   UNL     1       5.051   6.463  15.016  0.00  0.00    +0.000 F 
ATOM     10  F   UNL     1       6.834   5.302  14.548  0.00  0.00    +0.000 F 
ENDBRANCH   5   7
BRANCH   3  11
ATOM     11  O   UNL     1       7.939   6.180  19.477  0.00  0.00    +0.000 OA
ATOM     12  H   UNL     1       8.516   5.445  19.758  0.00  0.00    +0.000 HD
ENDBRANCH   3  11
BRANCH   1  13
ATOM     13  S   UNL     1       4.458   2.744  19.641  0.00  0.00    +0.000 S 
BRANCH  13  14
ATOM     14  C   UNL     1       2.785   3.373  19.318  0.00  0.00    +0.000 C 
BRANCH  14  16
ATOM     15  O   UNL     1       2.267   4.312  21.483  0.00  0.00    +0.000 OA
ATOM     16  C   UNL     1       2.372   4.495  20.267  0.00  0.00    +0.000 C 
ATOM     17  N   UNL     1       2.138   5.749  19.699  0.00  0.00    +0.000 N 
ATOM     18  C   UNL     1       2.269   6.048  18.273  0.00  0.00    +0.000 C 
ATOM     19  C   UNL     1       2.763   7.470  18.026  0.00  0.00    +0.000 C 
ATOM     20  C   UNL     1       1.970   8.508  18.813  0.00  0.00    +0.000 C 
ATOM     21  C   UNL     1       1.893   8.137  20.291  0.00  0.00    +0.000 C 
ATOM     22  C   UNL     1       1.372   6.718  20.478  0.00  0.00    +0.000 C 
ENDBRANCH  14  16
ENDBRANCH  13  14
ENDBRANCH   1  13
TORSDOF 5
ENDMDL
MODEL 7
REMARK VINA RESULT:      -7.1      5.191      7.221
REMARK  Name = 
REMARK  5 active torsions:
REMARK  status: ('A' for Active; 'I' for Inactive)
REMARK    1  A    between atoms: C_2  and  C_3
REMARK    2  A    between atoms: C_3  and  S_4
REMARK    3  A    between atoms: S_4  and  C_5
REMARK    4  A    between atoms: C_7  and  O_8
REMARK    5  A    between atoms: C_10  and  C_11
REMARK                            x       y       z     vdW  Elec       q    Type
REMARK                         _______ _______ _______ _____ _____    ______ ____
ROOT
ATOM      1  C   UNL     1       3.117   5.740  18.758  0.00  0.00    +0.000 A 
ATOM      2  N   UNL     1       4.413   5.438  18.610  0.00  0.00    +0.000 NA
ATOM      3  C   UNL     1       4.754   4.198  18.946  0.00  0.00    +0.000 A 
ATOM      4  C   UNL     1       3.902   3.230  19.397  0.00  0.00    +0.000 A 
ATOM      5  C   UNL     1       2.580   3.613  19.499  0.00  0.00    +0.000 A 
ATOM      6  N   UNL     1       2.170   4.873  19.175  0.00  0.00    +0.000 NA
ENDROOT
BRANCH   5   7
ATOM      7  C   UNL     1       1.555   2.598  19.986  0.00  0.00    +0.000 C 
ATOM      8  F   UNL     1       1.683   2.296  21.313  0.00  0.00    +0.000 F 
ATOM      9  F   UNL     1       0.270   3.023  19.833  0.00  0.00    +0.000 F 
ATOM     10  F   UNL     1       1.641   1.405  19.333  0.00  0.00    +0.000 F 
ENDBRANCH   5   7
BRANCH   3  11
ATOM     11  O   UNL     1       6.076   3.930  18.803  0.00  0.00    +0.000 OA
ATOM     12  H   UNL     1       6.165   3.152  19.384  0.00  0.00    +0.000 HD
ENDBRANCH   3  11
BRANCH   1  13
ATOM     13  S   UNL     1       2.648   7.383  18.269  0.00  0.00    +0.000 S 
BRANCH  13  14
ATOM     14  C   UNL     1       1.937   7.996  19.824  0.00  0.00    +0.000 C 
BRANCH  14  16
ATOM     15  O   UNL     1       0.968   9.802  18.544  0.00  0.00    +0.000 OA
ATOM     16  C   UNL     1       1.143   9.288  19.652  0.00  0.00    +0.000 C 
ATOM     17  N   UNL     1       0.601   9.854  20.809  0.00  0.00    +0.000 N 
ATOM     18  C   UNL     1       0.742   9.289  22.150  0.00  0.00    +0.000 C 
ATOM     19  C   UNL     1      -0.491   9.541  23.013  0.00  0.00    +0.000 C 
ATOM     20  C   UNL     1      -0.929  11.001  22.992  0.00  0.00    +0.000 C 
ATOM     21  C   UNL     1      -1.071  11.512  21.562  0.00  0.00    +0.000 C 
ATOM     22  C   UNL     1       0.195  11.256  20.755  0.00  0.00    +0.000 C 
ENDBRANCH  14  16
ENDBRANCH  13  14
ENDBRANCH   1  13
TORSDOF 5
ENDMDL
MODEL 8
REMARK VINA RESULT:      -7.0      6.872      8.142
REMARK  Name = 
REMARK  5 active torsions:
REMARK  status: ('A' for Active; 'I' for Inactive)
REMARK    1  A    between atoms: C_2  and  C_3
REMARK    2  A    between atoms: C_3  and  S_4
REMARK    3  A    between atoms: S_4  and  C_5
REMARK    4  A    between atoms: C_7  and  O_8
REMARK    5  A    between atoms: C_10  and  C_11
REMARK                            x       y       z     vdW  Elec       q    Type
REMARK                         _______ _______ _______ _____ _____    ______ ____
ROOT
ATOM      1  C   UNL     1       7.770   7.696  17.721  0.00  0.00    +0.000 A 
ATOM      2  N   UNL     1       8.171   7.106  18.854  0.00  0.00    +0.000 NA
ATOM      3  C   UNL     1       7.989   5.790  18.910  0.00  0.00    +0.000 A 
ATOM      4  C   UNL     1       7.459   5.015  17.918  0.00  0.00    +0.000 A 
ATOM      5  C   UNL     1       7.093   5.694  16.774  0.00  0.00    +0.000 A 
ATOM      6  N   UNL     1       7.249   7.044  16.659  0.00  0.00    +0.000 NA
ENDROOT
BRANCH   5   7
ATOM      7  C   UNL     1       6.500   4.911  15.611  0.00  0.00    +0.000 C 
ATOM      8  F   UNL     1       6.129   3.640  15.949  0.00  0.00    +0.000 F 
ATOM      9  F   UNL     1       5.380   5.490  15.094  0.00  0.00    +0.000 F 
ATOM     10  F   UNL     1       7.369   4.771  14.570  0.00  0.00    +0.000 F 
ENDBRANCH   5   7
BRANCH   3  11
ATOM     11  O   UNL     1       8.387   5.226  20.078  0.00  0.00    +0.000 OA
ATOM     12  H   UNL     1       7.722   5.595  20.690  0.00  0.00    +0.000 HD
ENDBRANCH   3  11
BRANCH   1  13
ATOM     13  S   UNL     1       8.050   9.448  17.623  0.00  0.00    +0.000 S 
BRANCH  13  14
ATOM     14  C   UNL     1       9.149   9.683  19.050  0.00  0.00    +0.000 C 
BRANCH  14  16
ATOM     15  O   UNL     1      10.575  11.342  18.021  0.00  0.00    +0.000 OA
ATOM     16  C   UNL     1       9.913  11.004  19.007  0.00  0.00    +0.000 C 
ATOM     17  N   UNL     1       9.812  11.828  20.130  0.00  0.00    +0.000 N 
ATOM     18  C   UNL     1       9.027  11.509  21.322  0.00  0.00    +0.000 C 
ATOM     19  C   UNL     1       8.422  12.755  21.963  0.00  0.00    +0.000 C 
ATOM     20  C   UNL     1       9.451  13.861  22.170  0.00  0.00    +0.000 C 
ATOM     21  C   UNL     1      10.215  14.149  20.881  0.00  0.00    +0.000 C 
ATOM     22  C   UNL     1      10.816  12.876  20.299  0.00  0.00    +0.000 C 
ENDBRANCH  14  16
ENDBRANCH  13  14
ENDBRANCH   1  13
TORSDOF 5
ENDMDL
MODEL 9
REMARK VINA RESULT:      -7.0      4.969      6.810
REMARK  Name = 
REMARK  5 active torsions:
REMARK  status: ('A' for Active; 'I' for Inactive)
REMARK    1  A    between atoms: C_2  and  C_3
REMARK    2  A    between atoms: C_3  and  S_4
REMARK    3  A    between atoms: S_4  and  C_5
REMARK    4  A    between atoms: C_7  and  O_8
REMARK    5  A    between atoms: C_10  and  C_11
REMARK                            x       y       z     vdW  Elec       q    Type
REMARK                         _______ _______ _______ _____ _____    ______ ____
ROOT
ATOM      1  C   UNL     1       3.298   5.860  18.409  0.00  0.00    +0.000 A 
ATOM      2  N   UNL     1       4.581   5.516  18.242  0.00  0.00    +0.000 NA
ATOM      3  C   UNL     1       4.861   4.232  18.445  0.00  0.00    +0.000 A 
ATOM      4  C   UNL     1       3.959   3.262  18.778  0.00  0.00    +0.000 A 
ATOM      5  C   UNL     1       2.654   3.692  18.907  0.00  0.00    +0.000 A 
ATOM      6  N   UNL     1       2.306   4.997  18.719  0.00  0.00    +0.000 NA
ENDROOT
BRANCH   5   7
ATOM      7  C   UNL     1       1.577   2.679  19.270  0.00  0.00    +0.000 C 
ATOM      8  F   UNL     1       0.530   2.666  18.390  0.00  0.00    +0.000 F 
ATOM      9  F   UNL     1       2.039   1.398  19.303  0.00  0.00    +0.000 F 
ATOM     10  F   UNL     1       1.020   2.913  20.491  0.00  0.00    +0.000 F 
ENDBRANCH   5   7
BRANCH   3  11
ATOM     11  O   UNL     1       6.172   3.921  18.288  0.00  0.00    +0.000 OA
ATOM     12  H   UNL     1       6.576   4.510  18.952  0.00  0.00    +0.000 HD
ENDBRANCH   3  11
BRANCH   1  13
ATOM     13  S   UNL     1       2.911   7.566  18.098  0.00  0.00    +0.000 S 
BRANCH  13  14
ATOM     14  C   UNL     1       1.963   7.964  19.595  0.00  0.00    +0.000 C 
BRANCH  14  16
ATOM     15  O   UNL     1       1.036   9.854  18.408  0.00  0.00    +0.000 OA
ATOM     16  C   UNL     1       1.198   9.281  19.489  0.00  0.00    +0.000 C 
ATOM     17  N   UNL     1       0.670   9.801  20.673  0.00  0.00    +0.000 N 
ATOM     18  C   UNL     1       0.797   9.167  21.984  0.00  0.00    +0.000 C 
ATOM     19  C   UNL     1      -0.430   9.404  22.860  0.00  0.00    +0.000 C 
ATOM     20  C   UNL     1      -0.834  10.873  22.912  0.00  0.00    +0.000 C 
ATOM     21  C   UNL     1      -0.964  11.458  21.509  0.00  0.00    +0.000 C 
ATOM     22  C   UNL     1       0.296  11.214  20.689  0.00  0.00    +0.000 C 
ENDBRANCH  14  16
ENDBRANCH  13  14
ENDBRANCH   1  13
TORSDOF 5
ENDMDL
