MODEL 1
REMARK VINA RESULT:      -7.5      0.000      0.000
REMARK  Name = 
REMARK  9 active torsions:
REMARK  status: ('A' for Active; 'I' for Inactive)
REMARK    1  A    between atoms: C_1  and  C_2
REMARK    2  A    between atoms: C_2  and  C_4
REMARK    3  A    between atoms: C_5  and  C_6
REMARK    4  A    between atoms: C_8  and  C_9
REMARK    5  A    between atoms: C_9  and  C_11
REMARK    6  A    between atoms: C_11  and  O_12
REMARK    7  A    between atoms: O_12  and  C_13
REMARK    8  A    between atoms: C_13  and  C_15
REMARK    9  A    between atoms: C_22  and  C_23
REMARK                            x       y       z     vdW  Elec       q    Type
REMARK                         _______ _______ _______ _____ _____    ______ ____
ROOT
ATOM      1  C   UNL     1       4.470   2.296  19.092  0.00  0.00    +0.000 C 
ATOM      2  O   UNL     1       4.974   2.153  20.211  0.00  0.00    +0.000 OA
ENDROOT
BRANCH   1   7
ATOM      3  C   UNL     1       5.797   5.126  17.041  0.00  0.00    +0.000 A 
ATOM      4  C   UNL     1       5.594   4.119  16.105  0.00  0.00    +0.000 A 
ATOM      5  C   UNL     1       5.835   4.072  14.634  0.00  0.00    +0.000 C 
ATOM      6  N   UNL     1       5.097   3.021  16.759  0.00  0.00    +0.000 N 
ATOM      7  C   UNL     1       4.979   3.260  18.111  0.00  0.00    +0.000 A 
ATOM      8  C   UNL     1       5.420   4.571  18.321  0.00  0.00    +0.000 A 
ATOM      9  C   UNL     1       5.459   5.291  19.629  0.00  0.00    +0.000 C 
ATOM     10  H   UNL     1       4.854   2.158  16.290  0.00  0.00    +0.000 HD
BRANCH   3  12
ATOM     11  C   UNL     1       7.540   6.989  17.392  0.00  0.00    +0.000 C 
ATOM     12  C   UNL     1       6.294   6.477  16.715  0.00  0.00    +0.000 C 
ATOM     13  O   UNL     1       5.721   7.191  15.890  0.00  0.00    +0.000 OA
ENDBRANCH   3  12
ENDBRANCH   1   7
BRANCH   1  14
ATOM     14  C   UNL     1       3.237   1.466  18.712  0.00  0.00    +0.000 C 
BRANCH  14  15
ATOM     15  O   UNL     1       2.381   2.161  17.797  0.00  0.00    +0.000 OA
BRANCH  15  16
ATOM     16  C   UNL     1       1.293   2.734  18.362  0.00  0.00    +0.000 C 
ATOM     17  O   UNL     1       0.211   2.191  18.521  0.00  0.00    +0.000 OA
BRANCH  16  18
ATOM     18  C   UNL     1       1.585   4.091  18.863  0.00  0.00    +0.000 A 
ATOM     19  C   UNL     1       1.858   5.090  17.918  0.00  0.00    +0.000 A 
ATOM     20  C   UNL     1       2.175   6.379  18.337  0.00  0.00    +0.000 A 
ATOM     21  C   UNL     1       2.213   6.634  19.696  0.00  0.00    +0.000 A 
ATOM     22  N   UNL     1       1.964   5.698  20.636  0.00  0.00    +0.000 NA
ATOM     23  C   UNL     1       1.660   4.447  20.204  0.00  0.00    +0.000 A 
ATOM     24 CL   UNL     1       1.481   3.354  21.522  0.00  0.00    +0.000 Cl
ENDBRANCH  16  18
ENDBRANCH  15  16
ENDBRANCH  14  15
ENDBRANCH   1  14
TORSDOF 6
ENDMDL
MODEL 2
REMARK VINA RESULT:      -7.2      3.083      6.270
REMARK  Name = 
REMARK  9 active torsions:
REMARK  status: ('A' for Active; 'I' for Inactive)
REMARK    1  A    between atoms: C_1  and  C_2
REMARK    2  A    between atoms: C_2  and  C_4
REMARK    3  A    between atoms: C_5  and  C_6
REMARK    4  A    between atoms: C_8  and  C_9
REMARK    5  A    between atoms: C_9  and  C_11
REMARK    6  A    between atoms: C_11  and  O_12
REMARK    7  A    between atoms: O_12  and  C_13
REMARK    8  A    between atoms: C_13  and  C_15
REMARK    9  A    between atoms: C_22  and  C_23
REMARK                            x       y       z     vdW  Elec       q    Type
REMARK                         _______ _______ _______ _____ _____    ______ ____
ROOT
ATOM      1  C   UNL     1       6.651   5.317  18.858  0.00  0.00    +0.000 C 
ATOM      2  O   UNL     1       7.227   5.523  19.932  0.00  0.00    +0.000 OA
ENDROOT
BRANCH   1   7
ATOM      3  C   UNL     1       3.180   3.944  18.645  0.00  0.00    +0.000 A 
ATOM      4  C   UNL     1       3.976   2.804  18.657  0.00  0.00    +0.000 A 
ATOM      5  C   UNL     1       3.630   1.355  18.585  0.00  0.00    +0.000 C 
ATOM      6  N   UNL     1       5.287   3.198  18.740  0.00  0.00    +0.000 N 
ATOM      7  C   UNL     1       5.391   4.573  18.764  0.00  0.00    +0.000 A 
ATOM      8  C   UNL     1       4.085   5.070  18.696  0.00  0.00    +0.000 A 
ATOM      9  C   UNL     1       3.686   6.509  18.714  0.00  0.00    +0.000 C 
ATOM     10  H   UNL     1       6.061   2.549  18.778  0.00  0.00    +0.000 HD
BRANCH   3  12
ATOM     11  C   UNL     1       0.923   3.952  19.886  0.00  0.00    +0.000 C 
ATOM     12  C   UNL     1       1.706   3.929  18.597  0.00  0.00    +0.000 C 
ATOM     13  O   UNL     1       1.097   3.912  17.525  0.00  0.00    +0.000 OA
ENDBRANCH   3  12
ENDBRANCH   1   7
BRANCH   1  14
ATOM     14  C   UNL     1       7.287   5.820  17.556  0.00  0.00    +0.000 C 
BRANCH  14  15
ATOM     15  O   UNL     1       6.961   4.985  16.438  0.00  0.00    +0.000 OA
BRANCH  15  16
ATOM     16  C   UNL     1       6.237   5.591  15.469  0.00  0.00    +0.000 C 
ATOM     17  O   UNL     1       5.685   6.675  15.574  0.00  0.00    +0.000 OA
BRANCH  16  18
ATOM     18  C   UNL     1       6.260   4.827  14.206  0.00  0.00    +0.000 A 
ATOM     19  C   UNL     1       5.219   3.915  13.978  0.00  0.00    +0.000 A 
ATOM     20  C   UNL     1       5.211   3.143  12.819  0.00  0.00    +0.000 A 
ATOM     21  C   UNL     1       6.250   3.302  11.920  0.00  0.00    +0.000 A 
ATOM     22  N   UNL     1       7.272   4.162  12.108  0.00  0.00    +0.000 NA
ATOM     23  C   UNL     1       7.261   4.904  13.246  0.00  0.00    +0.000 A 
ATOM     24 CL   UNL     1       8.684   5.862  13.385  0.00  0.00    +0.000 Cl
ENDBRANCH  16  18
ENDBRANCH  15  16
ENDBRANCH  14  15
ENDBRANCH   1  14
TORSDOF 6
ENDMDL
MODEL 3
REMARK VINA RESULT:      -6.9      2.735      4.575
REMARK  Name = 
REMARK  9 active torsions:
REMARK  status: ('A' for Active; 'I' for Inactive)
REMARK    1  A    between atoms: C_1  and  C_2
REMARK    2  A    between atoms: C_2  and  C_4
REMARK    3  A    between atoms: C_5  and  C_6
REMARK    4  A    between atoms: C_8  and  C_9
REMARK    5  A    between atoms: C_9  and  C_11
REMARK    6  A    between atoms: C_11  and  O_12
REMARK    7  A    between atoms: O_12  and  C_13
REMARK    8  A    between atoms: C_13  and  C_15
REMARK    9  A    between atoms: C_22  and  C_23
REMARK                            x       y       z     vdW  Elec       q    Type
REMARK                         _______ _______ _______ _____ _____    ______ ____
ROOT
ATOM      1  C   UNL     1       7.328   5.022  16.809  0.00  0.00    +0.000 C 
ATOM      2  O   UNL     1       8.135   4.370  17.480  0.00  0.00    +0.000 OA
ENDROOT
BRANCH   1   7
ATOM      3  C   UNL     1       6.407   3.989  13.336  0.00  0.00    +0.000 A 
ATOM      4  C   UNL     1       7.354   4.987  13.134  0.00  0.00    +0.000 A 
ATOM      5  C   UNL     1       7.912   5.583  11.886  0.00  0.00    +0.000 C 
ATOM      6  N   UNL     1       7.768   5.439  14.360  0.00  0.00    +0.000 N 
ATOM      7  C   UNL     1       7.111   4.783  15.379  0.00  0.00    +0.000 A 
ATOM      8  C   UNL     1       6.241   3.873  14.767  0.00  0.00    +0.000 A 
ATOM      9  C   UNL     1       5.329   2.917  15.464  0.00  0.00    +0.000 C 
ATOM     10  H   UNL     1       8.468   6.159  14.480  0.00  0.00    +0.000 HD
BRANCH   3  12
ATOM     11  C   UNL     1       4.373   3.645  11.795  0.00  0.00    +0.000 C 
ATOM     12  C   UNL     1       5.750   3.235  12.252  0.00  0.00    +0.000 C 
ATOM     13  O   UNL     1       6.307   2.284  11.701  0.00  0.00    +0.000 OA
ENDBRANCH   3  12
ENDBRANCH   1   7
BRANCH   1  14
ATOM     14  C   UNL     1       6.541   6.158  17.476  0.00  0.00    +0.000 C 
BRANCH  14  15
ATOM     15  O   UNL     1       5.183   5.787  17.744  0.00  0.00    +0.000 OA
BRANCH  15  16
ATOM     16  C   UNL     1       5.018   4.974  18.814  0.00  0.00    +0.000 C 
ATOM     17  O   UNL     1       5.743   4.944  19.796  0.00  0.00    +0.000 OA
BRANCH  16  18
ATOM     18  C   UNL     1       3.785   4.170  18.708  0.00  0.00    +0.000 A 
ATOM     19  C   UNL     1       3.907   2.777  18.803  0.00  0.00    +0.000 A 
ATOM     20  C   UNL     1       2.780   1.968  18.674  0.00  0.00    +0.000 A 
ATOM     21  C   UNL     1       1.559   2.578  18.450  0.00  0.00    +0.000 A 
ATOM     22  N   UNL     1       1.404   3.914  18.345  0.00  0.00    +0.000 NA
ATOM     23  C   UNL     1       2.517   4.683  18.472  0.00  0.00    +0.000 A 
ATOM     24 CL   UNL     1       2.163   6.347  18.202  0.00  0.00    +0.000 Cl
ENDBRANCH  16  18
ENDBRANCH  15  16
ENDBRANCH  14  15
ENDBRANCH   1  14
TORSDOF 6
ENDMDL
MODEL 4
REMARK VINA RESULT:      -6.9      2.557      4.178
REMARK  Name = 
REMARK  9 active torsions:
REMARK  status: ('A' for Active; 'I' for Inactive)
REMARK    1  A    between atoms: C_1  and  C_2
REMARK    2  A    between atoms: C_2  and  C_4
REMARK    3  A    between atoms: C_5  and  C_6
REMARK    4  A    between atoms: C_8  and  C_9
REMARK    5  A    between atoms: C_9  and  C_11
REMARK    6  A    between atoms: C_11  and  O_12
REMARK    7  A    between atoms: O_12  and  C_13
REMARK    8  A    between atoms: C_13  and  C_15
REMARK    9  A    between atoms: C_22  and  C_23
REMARK                            x       y       z     vdW  Elec       q    Type
REMARK                         _______ _______ _______ _____ _____    ______ ____
ROOT
ATOM      1  C   UNL     1       7.100   5.090  17.047  0.00  0.00    +0.000 C 
ATOM      2  O   UNL     1       8.024   4.631  17.726  0.00  0.00    +0.000 OA
ENDROOT
BRANCH   1   7
ATOM      3  C   UNL     1       6.415   4.079  13.513  0.00  0.00    +0.000 A 
ATOM      4  C   UNL     1       7.402   5.050  13.384  0.00  0.00    +0.000 A 
ATOM      5  C   UNL     1       8.069   5.629  12.183  0.00  0.00    +0.000 C 
ATOM      6  N   UNL     1       7.735   5.491  14.639  0.00  0.00    +0.000 N 
ATOM      7  C   UNL     1       6.984   4.855  15.604  0.00  0.00    +0.000 A 
ATOM      8  C   UNL     1       6.138   3.969  14.928  0.00  0.00    +0.000 A 
ATOM      9  C   UNL     1       5.150   3.040  15.553  0.00  0.00    +0.000 C 
ATOM     10  H   UNL     1       8.444   6.192  14.812  0.00  0.00    +0.000 HD
BRANCH   3  12
ATOM     11  C   UNL     1       6.669   2.367  11.606  0.00  0.00    +0.000 C 
ATOM     12  C   UNL     1       5.820   3.343  12.382  0.00  0.00    +0.000 C 
ATOM     13  O   UNL     1       4.639   3.495  12.066  0.00  0.00    +0.000 OA
ENDBRANCH   3  12
ENDBRANCH   1   7
BRANCH   1  14
ATOM     14  C   UNL     1       6.042   5.976  17.719  0.00  0.00    +0.000 C 
BRANCH  14  15
ATOM     15  O   UNL     1       5.041   5.203  18.393  0.00  0.00    +0.000 OA
BRANCH  15  16
ATOM     16  C   UNL     1       3.780   5.676  18.268  0.00  0.00    +0.000 C 
ATOM     17  O   UNL     1       3.475   6.757  17.789  0.00  0.00    +0.000 OA
BRANCH  16  18
ATOM     18  C   UNL     1       2.775   4.685  18.700  0.00  0.00    +0.000 A 
ATOM     19  C   UNL     1       2.683   3.491  17.971  0.00  0.00    +0.000 A 
ATOM     20  C   UNL     1       1.729   2.536  18.313  0.00  0.00    +0.000 A 
ATOM     21  C   UNL     1       0.887   2.805  19.377  0.00  0.00    +0.000 A 
ATOM     22  N   UNL     1       0.940   3.945  20.097  0.00  0.00    +0.000 NA
ATOM     23  C   UNL     1       1.877   4.863  19.744  0.00  0.00    +0.000 A 
ATOM     24 CL   UNL     1       1.736   6.298  20.685  0.00  0.00    +0.000 Cl
ENDBRANCH  16  18
ENDBRANCH  15  16
ENDBRANCH  14  15
ENDBRANCH   1  14
TORSDOF 6
ENDMDL
MODEL 5
REMARK VINA RESULT:      -6.8      2.375      5.937
REMARK  Name = 
REMARK  9 active torsions:
REMARK  status: ('A' for Active; 'I' for Inactive)
REMARK    1  A    between atoms: C_1  and  C_2
REMARK    2  A    between atoms: C_2  and  C_4
REMARK    3  A    between atoms: C_5  and  C_6
REMARK    4  A    between atoms: C_8  and  C_9
REMARK    5  A    between atoms: C_9  and  C_11
REMARK    6  A    between atoms: C_11  and  O_12
REMARK    7  A    between atoms: O_12  and  C_13
REMARK    8  A    between atoms: C_13  and  C_15
REMARK    9  A    between atoms: C_22  and  C_23
REMARK                            x       y       z     vdW  Elec       q    Type
REMARK                         _______ _______ _______ _____ _____    ______ ____
ROOT
ATOM      1  C   UNL     1       6.755   5.409  19.213  0.00  0.00    +0.000 C 
ATOM      2  O   UNL     1       7.394   5.360  20.269  0.00  0.00    +0.000 OA
ENDROOT
BRANCH   1   7
ATOM      3  C   UNL     1       3.313   4.042  18.701  0.00  0.00    +0.000 A 
ATOM      4  C   UNL     1       4.107   2.902  18.754  0.00  0.00    +0.000 A 
ATOM      5  C   UNL     1       3.770   1.454  18.628  0.00  0.00    +0.000 C 
ATOM      6  N   UNL     1       5.407   3.294  18.947  0.00  0.00    +0.000 N 
ATOM      7  C   UNL     1       5.507   4.667  19.006  0.00  0.00    +0.000 A 
ATOM      8  C   UNL     1       4.210   5.166  18.844  0.00  0.00    +0.000 A 
ATOM      9  C   UNL     1       3.809   6.605  18.857  0.00  0.00    +0.000 C 
ATOM     10  H   UNL     1       6.176   2.643  19.034  0.00  0.00    +0.000 HD
BRANCH   3  12
ATOM     11  C   UNL     1       0.969   3.831  19.746  0.00  0.00    +0.000 C 
ATOM     12  C   UNL     1       1.848   4.027  18.536  0.00  0.00    +0.000 C 
ATOM     13  O   UNL     1       1.323   4.188  17.432  0.00  0.00    +0.000 OA
ENDBRANCH   3  12
ENDBRANCH   1   7
BRANCH   1  14
ATOM     14  C   UNL     1       7.295   6.247  18.046  0.00  0.00    +0.000 C 
BRANCH  14  15
ATOM     15  O   UNL     1       7.334   5.503  16.821  0.00  0.00    +0.000 OA
BRANCH  15  16
ATOM     16  C   UNL     1       6.490   5.947  15.861  0.00  0.00    +0.000 C 
ATOM     17  O   UNL     1       5.799   6.951  15.938  0.00  0.00    +0.000 OA
BRANCH  16  18
ATOM     18  C   UNL     1       6.560   5.119  14.642  0.00  0.00    +0.000 A 
ATOM     19  C   UNL     1       7.537   5.444  13.689  0.00  0.00    +0.000 A 
ATOM     20  C   UNL     1       7.624   4.719  12.504  0.00  0.00    +0.000 A 
ATOM     21  C   UNL     1       6.726   3.686  12.302  0.00  0.00    +0.000 A 
ATOM     22  N   UNL     1       5.768   3.348  13.190  0.00  0.00    +0.000 NA
ATOM     23  C   UNL     1       5.700   4.072  14.339  0.00  0.00    +0.000 A 
ATOM     24 CL   UNL     1       4.361   3.588  15.306  0.00  0.00    +0.000 Cl
ENDBRANCH  16  18
ENDBRANCH  15  16
ENDBRANCH  14  15
ENDBRANCH   1  14
TORSDOF 6
ENDMDL
MODEL 6
REMARK VINA RESULT:      -6.8      3.651      6.747
REMARK  Name = 
REMARK  9 active torsions:
REMARK  status: ('A' for Active; 'I' for Inactive)
REMARK    1  A    between atoms: C_1  and  C_2
REMARK    2  A    between atoms: C_2  and  C_4
REMARK    3  A    between atoms: C_5  and  C_6
REMARK    4  A    between atoms: C_8  and  C_9
REMARK    5  A    between atoms: C_9  and  C_11
REMARK    6  A    between atoms: C_11  and  O_12
REMARK    7  A    between atoms: O_12  and  C_13
REMARK    8  A    between atoms: C_13  and  C_15
REMARK    9  A    between atoms: C_22  and  C_23
REMARK                            x       y       z     vdW  Elec       q    Type
REMARK                         _______ _______ _______ _____ _____    ______ ____
ROOT
ATOM      1  C   UNL     1       2.557   6.165  19.423  0.00  0.00    +0.000 C 
ATOM      2  O   UNL     1       1.959   5.087  19.338  0.00  0.00    +0.000 OA
ENDROOT
BRANCH   1   7
ATOM      3  C   UNL     1       0.989   9.478  20.160  0.00  0.00    +0.000 A 
ATOM      4  C   UNL     1       1.014   8.851  21.401  0.00  0.00    +0.000 A 
ATOM      5  C   UNL     1       0.540   9.295  22.744  0.00  0.00    +0.000 C 
ATOM      6  N   UNL     1       1.582   7.613  21.244  0.00  0.00    +0.000 N 
ATOM      7  C   UNL     1       1.922   7.386  19.928  0.00  0.00    +0.000 A 
ATOM      8  C   UNL     1       1.552   8.535  19.220  0.00  0.00    +0.000 A 
ATOM      9  C   UNL     1       1.741   8.771  17.757  0.00  0.00    +0.000 C 
ATOM     10  H   UNL     1       1.726   6.967  22.009  0.00  0.00    +0.000 HD
BRANCH   3  12
ATOM     11  C   UNL     1       1.438  12.006  19.961  0.00  0.00    +0.000 C 
ATOM     12  C   UNL     1       0.479  10.842  19.928  0.00  0.00    +0.000 C 
ATOM     13  O   UNL     1      -0.712  11.052  19.692  0.00  0.00    +0.000 OA
ENDBRANCH   3  12
ENDBRANCH   1   7
BRANCH   1  14
ATOM     14  C   UNL     1       4.014   6.255  18.951  0.00  0.00    +0.000 C 
BRANCH  14  15
ATOM     15  O   UNL     1       4.813   5.179  19.460  0.00  0.00    +0.000 OA
BRANCH  15  16
ATOM     16  C   UNL     1       6.128   5.251  19.145  0.00  0.00    +0.000 C 
ATOM     17  O   UNL     1       7.043   5.329  19.950  0.00  0.00    +0.000 OA
BRANCH  16  18
ATOM     18  C   UNL     1       6.353   5.130  17.692  0.00  0.00    +0.000 A 
ATOM     19  C   UNL     1       5.870   3.980  17.051  0.00  0.00    +0.000 A 
ATOM     20  C   UNL     1       6.085   3.798  15.688  0.00  0.00    +0.000 A 
ATOM     21  C   UNL     1       6.785   4.775  15.001  0.00  0.00    +0.000 A 
ATOM     22  N   UNL     1       7.273   5.889  15.583  0.00  0.00    +0.000 NA
ATOM     23  C   UNL     1       7.052   6.045  16.915  0.00  0.00    +0.000 A 
ATOM     24 CL   UNL     1       7.831   7.456  17.520  0.00  0.00    +0.000 Cl
ENDBRANCH  16  18
ENDBRANCH  15  16
ENDBRANCH  14  15
ENDBRANCH   1  14
TORSDOF 6
ENDMDL
MODEL 7
REMARK VINA RESULT:      -6.7      3.451      6.569
REMARK  Name = 
REMARK  9 active torsions:
REMARK  status: ('A' for Active; 'I' for Inactive)
REMARK    1  A    between atoms: C_1  and  C_2
REMARK    2  A    between atoms: C_2  and  C_4
REMARK    3  A    between atoms: C_5  and  C_6
REMARK    4  A    between atoms: C_8  and  C_9
REMARK    5  A    between atoms: C_9  and  C_11
REMARK    6  A    between atoms: C_11  and  O_12
REMARK    7  A    between atoms: O_12  and  C_13
REMARK    8  A    between atoms: C_13  and  C_15
REMARK    9  A    between atoms: C_22  and  C_23
REMARK                            x       y       z     vdW  Elec       q    Type
REMARK                         _______ _______ _______ _____ _____    ______ ____
ROOT
ATOM      1  C   UNL     1       2.561   6.068  19.812  0.00  0.00    +0.000 C 
ATOM      2  O   UNL     1       2.274   5.031  20.419  0.00  0.00    +0.000 OA
ENDROOT
BRANCH   1   7
ATOM      3  C   UNL     1       1.070   9.490  20.009  0.00  0.00    +0.000 A 
ATOM      4  C   UNL     1       0.957   9.016  21.310  0.00  0.00    +0.000 A 
ATOM      5  C   UNL     1       0.382   9.631  22.541  0.00  0.00    +0.000 C 
ATOM      6  N   UNL     1       1.486   7.751  21.352  0.00  0.00    +0.000 N 
ATOM      7  C   UNL     1       1.933   7.359  20.109  0.00  0.00    +0.000 A 
ATOM      8  C   UNL     1       1.677   8.426  19.241  0.00  0.00    +0.000 A 
ATOM      9  C   UNL     1       2.006   8.480  17.785  0.00  0.00    +0.000 C 
ATOM     10  H   UNL     1       1.533   7.197  22.196  0.00  0.00    +0.000 HD
BRANCH   3  12
ATOM     11  C   UNL     1      -0.644  10.982  18.797  0.00  0.00    +0.000 C 
ATOM     12  C   UNL     1       0.640  10.833  19.572  0.00  0.00    +0.000 C 
ATOM     13  O   UNL     1       1.300  11.838  19.840  0.00  0.00    +0.000 OA
ENDBRANCH   3  12
ENDBRANCH   1   7
BRANCH   1  14
ATOM     14  C   UNL     1       3.585   6.011  18.671  0.00  0.00    +0.000 C 
BRANCH  14  15
ATOM     15  O   UNL     1       4.905   5.713  19.146  0.00  0.00    +0.000 OA
BRANCH  15  16
ATOM     16  C   UNL     1       5.432   4.562  18.668  0.00  0.00    +0.000 C 
ATOM     17  O   UNL     1       5.412   3.484  19.241  0.00  0.00    +0.000 OA
BRANCH  16  18
ATOM     18  C   UNL     1       5.970   4.729  17.303  0.00  0.00    +0.000 A 
ATOM     19  C   UNL     1       5.475   3.884  16.300  0.00  0.00    +0.000 A 
ATOM     20  C   UNL     1       5.972   3.974  15.003  0.00  0.00    +0.000 A 
ATOM     21  C   UNL     1       6.959   4.909  14.745  0.00  0.00    +0.000 A 
ATOM     22  N   UNL     1       7.466   5.734  15.685  0.00  0.00    +0.000 NA
ATOM     23  C   UNL     1       6.967   5.626  16.944  0.00  0.00    +0.000 A 
ATOM     24 CL   UNL     1       7.796   6.666  18.038  0.00  0.00    +0.000 Cl
ENDBRANCH  16  18
ENDBRANCH  15  16
ENDBRANCH  14  15
ENDBRANCH   1  14
TORSDOF 6
ENDMDL
MODEL 8
REMARK VINA RESULT:      -6.7      1.922      2.283
REMARK  Name = 
REMARK  9 active torsions:
REMARK  status: ('A' for Active; 'I' for Inactive)
REMARK    1  A    between atoms: C_1  and  C_2
REMARK    2  A    between atoms: C_2  and  C_4
REMARK    3  A    between atoms: C_5  and  C_6
REMARK    4  A    between atoms: C_8  and  C_9
REMARK    5  A    between atoms: C_9  and  C_11
REMARK    6  A    between atoms: C_11  and  O_12
REMARK    7  A    between atoms: O_12  and  C_13
REMARK    8  A    between atoms: C_13  and  C_15
REMARK    9  A    between atoms: C_22  and  C_23
REMARK                            x       y       z     vdW  Elec       q    Type
REMARK                         _______ _______ _______ _____ _____    ______ ____
ROOT
ATOM      1  C   UNL     1       4.350   2.824  19.485  0.00  0.00    +0.000 C 
ATOM      2  O   UNL     1       4.999   2.061  20.208  0.00  0.00    +0.000 OA
ENDROOT
BRANCH   1   7
ATOM      3  C   UNL     1       6.133   5.040  17.059  0.00  0.00    +0.000 A 
ATOM      4  C   UNL     1       5.400   4.191  16.239  0.00  0.00    +0.000 A 
ATOM      5  C   UNL     1       5.299   4.092  14.754  0.00  0.00    +0.000 C 
ATOM      6  N   UNL     1       4.695   3.327  17.038  0.00  0.00    +0.000 N 
ATOM      7  C   UNL     1       4.950   3.564  18.371  0.00  0.00    +0.000 A 
ATOM      8  C   UNL     1       5.858   4.628  18.417  0.00  0.00    +0.000 A 
ATOM      9  C   UNL     1       6.418   5.259  19.650  0.00  0.00    +0.000 C 
ATOM     10  H   UNL     1       4.072   2.618  16.675  0.00  0.00    +0.000 HD
BRANCH   3  12
ATOM     11  C   UNL     1       7.012   7.449  17.302  0.00  0.00    +0.000 C 
ATOM     12  C   UNL     1       6.995   6.132  16.568  0.00  0.00    +0.000 C 
ATOM     13  O   UNL     1       7.714   5.987  15.578  0.00  0.00    +0.000 OA
ENDBRANCH   3  12
ENDBRANCH   1   7
BRANCH   1  14
ATOM     14  C   UNL     1       2.859   3.046  19.776  0.00  0.00    +0.000 C 
BRANCH  14  15
ATOM     15  O   UNL     1       2.376   4.270  19.207  0.00  0.00    +0.000 OA
BRANCH  15  16
ATOM     16  C   UNL     1       2.327   5.314  20.067  0.00  0.00    +0.000 C 
ATOM     17  O   UNL     1       2.378   5.229  21.285  0.00  0.00    +0.000 OA
BRANCH  16  18
ATOM     18  C   UNL     1       2.297   6.608  19.360  0.00  0.00    +0.000 A 
ATOM     19  C   UNL     1       2.984   6.700  18.140  0.00  0.00    +0.000 A 
ATOM     20  C   UNL     1       3.018   7.908  17.448  0.00  0.00    +0.000 A 
ATOM     21  C   UNL     1       2.365   8.996  17.999  0.00  0.00    +0.000 A 
ATOM     22  N   UNL     1       1.702   8.949  19.173  0.00  0.00    +0.000 NA
ATOM     23  C   UNL     1       1.684   7.761  19.832  0.00  0.00    +0.000 A 
ATOM     24 CL   UNL     1       0.896   7.902  21.357  0.00  0.00    +0.000 Cl
ENDBRANCH  16  18
ENDBRANCH  15  16
ENDBRANCH  14  15
ENDBRANCH   1  14
TORSDOF 6
ENDMDL
MODEL 9
REMARK VINA RESULT:      -6.7      2.637      4.408
REMARK  Name = 
REMARK  9 active torsions:
REMARK  status: ('A' for Active; 'I' for Inactive)
REMARK    1  A    between atoms: C_1  and  C_2
REMARK    2  A    between atoms: C_2  and  C_4
REMARK    3  A    between atoms: C_5  and  C_6
REMARK    4  A    between atoms: C_8  and  C_9
REMARK    5  A    between atoms: C_9  and  C_11
REMARK    6  A    between atoms: C_11  and  O_12
REMARK    7  A    between atoms: O_12  and  C_13
REMARK    8  A    between atoms: C_13  and  C_15
REMARK    9  A    between atoms: C_22  and  C_23
REMARK                            x       y       z     vdW  Elec       q    Type
REMARK                         _______ _______ _______ _____ _____    ______ ____
ROOT
ATOM      1  C   UNL     1       7.220   5.003  16.865  0.00  0.00    +0.000 C 
ATOM      2  O   UNL     1       8.103   4.434  17.514  0.00  0.00    +0.000 OA
ENDROOT
BRANCH   1   7
ATOM      3  C   UNL     1       6.307   3.987  13.385  0.00  0.00    +0.000 A 
ATOM      4  C   UNL     1       7.285   4.956  13.190  0.00  0.00    +0.000 A 
ATOM      5  C   UNL     1       7.874   5.531  11.947  0.00  0.00    +0.000 C 
ATOM      6  N   UNL     1       7.698   5.399  14.420  0.00  0.00    +0.000 N 
ATOM      7  C   UNL     1       7.011   4.766  15.433  0.00  0.00    +0.000 A 
ATOM      8  C   UNL     1       6.122   3.880  14.814  0.00  0.00    +0.000 A 
ATOM      9  C   UNL     1       5.175   2.953  15.504  0.00  0.00    +0.000 C 
ATOM     10  H   UNL     1       8.417   6.099  14.545  0.00  0.00    +0.000 HD
BRANCH   3  12
ATOM     11  C   UNL     1       6.380   2.139  11.592  0.00  0.00    +0.000 C 
ATOM     12  C   UNL     1       5.640   3.248  12.296  0.00  0.00    +0.000 C 
ATOM     13  O   UNL     1       4.483   3.507  11.958  0.00  0.00    +0.000 OA
ENDBRANCH   3  12
ENDBRANCH   1   7
BRANCH   1  14
ATOM     14  C   UNL     1       6.320   6.033  17.562  0.00  0.00    +0.000 C 
BRANCH  14  15
ATOM     15  O   UNL     1       5.066   5.468  17.963  0.00  0.00    +0.000 OA
BRANCH  15  16
ATOM     16  C   UNL     1       5.057   4.931  19.205  0.00  0.00    +0.000 C 
ATOM     17  O   UNL     1       6.011   4.901  19.968  0.00  0.00    +0.000 OA
BRANCH  16  18
ATOM     18  C   UNL     1       3.715   4.453  19.589  0.00  0.00    +0.000 A 
ATOM     19  C   UNL     1       3.518   3.068  19.679  0.00  0.00    +0.000 A 
ATOM     20  C   UNL     1       2.262   2.561  20.003  0.00  0.00    +0.000 A 
ATOM     21  C   UNL     1       1.232   3.458  20.224  0.00  0.00    +0.000 A 
ATOM     22  N   UNL     1       1.380   4.796  20.138  0.00  0.00    +0.000 NA
ATOM     23  C   UNL     1       2.614   5.268  19.819  0.00  0.00    +0.000 A 
ATOM     24 CL   UNL     1       2.605   6.980  19.642  0.00  0.00    +0.000 Cl
ENDBRANCH  16  18
ENDBRANCH  15  16
ENDBRANCH  14  15
ENDBRANCH   1  14
TORSDOF 6
ENDMDL
