MODEL 1
REMARK VINA RESULT:      -7.9      0.000      0.000
REMARK  Name = 
REMARK  6 active torsions:
REMARK  status: ('A' for Active; 'I' for Inactive)
REMARK    1  A    between atoms: C_2  and  C_3
REMARK    2  A    between atoms: C_3  and  N_4
REMARK    3  A    between atoms: N_10  and  C_11
REMARK    4  A    between atoms: C_14  and  N_15
REMARK    5  A    between atoms: N_21  and  C_22
REMARK    6  A    between atoms: C_22  and  C_23
REMARK                            x       y       z     vdW  Elec       q    Type
REMARK                         _______ _______ _______ _____ _____    ______ ____
ROOT
ATOM      1  C   UNL     1       0.582   9.608  19.242  0.00  0.00    +0.000 A 
ATOM      2  C   UNL     1       0.898   8.863  20.373  0.00  0.00    +0.000 A 
ATOM      3  C   UNL     1       1.877   7.881  20.326  0.00  0.00    +0.000 A 
ATOM      4  C   UNL     1       2.478   7.502  19.125  0.00  0.00    +0.000 A 
ATOM      5  C   UNL     1       2.195   8.265  17.993  0.00  0.00    +0.000 A 
ATOM      6  C   UNL     1       1.261   9.319  18.050  0.00  0.00    +0.000 A 
ENDROOT
BRANCH   4   7
ATOM      7  N   UNL     1       3.427   6.461  19.078  0.00  0.00    +0.000 NA
ATOM      8  C   UNL     1       3.112   5.213  19.224  0.00  0.00    +0.000 C 
ATOM      9  S   UNL     1       1.514   4.491  19.278  0.00  0.00    +0.000 S 
ATOM     10  C   UNL     1       2.126   2.939  19.935  0.00  0.00    +0.000 C 
ATOM     11  C   UNL     1       3.613   2.976  19.722  0.00  0.00    +0.000 C 
ATOM     12  O   UNL     1       4.323   1.986  19.878  0.00  0.00    +0.000 OA
ATOM     13  N   UNL     1       4.054   4.231  19.355  0.00  0.00    +0.000 N 
BRANCH  13  14
ATOM     14  C   UNL     1       5.460   4.462  19.075  0.00  0.00    +0.000 C 
BRANCH  14  15
ATOM     15  C   UNL     1       5.756   4.473  17.603  0.00  0.00    +0.000 A 
ATOM     16  C   UNL     1       4.895   4.211  16.553  0.00  0.00    +0.000 A 
ATOM     17  C   UNL     1       5.566   4.152  15.298  0.00  0.00    +0.000 A 
ATOM     18  C   UNL     1       6.912   4.411  15.423  0.00  0.00    +0.000 A 
ATOM     19  S   UNL     1       7.355   4.737  17.041  0.00  0.00    +0.000 S 
ENDBRANCH  14  15
ENDBRANCH  13  14
ENDBRANCH   4   7
BRANCH   1  22
ATOM     20  O   UNL     1      -1.905   9.784  17.690  0.00  0.00    +0.000 OA
ATOM     21  C   UNL     1      -1.519  10.673  18.460  0.00  0.00    +0.000 C 
ATOM     22  N   UNL     1      -0.404  10.619  19.276  0.00  0.00    +0.000 N 
ATOM     23  H   UNL     1      -0.324  11.321  20.004  0.00  0.00    +0.000 HD
BRANCH  21  24
ATOM     24  C   UNL     1      -2.326  11.971  18.554  0.00  0.00    +0.000 C 
BRANCH  24  25
ATOM     25  N   UNL     1      -3.458  11.873  19.513  0.00  0.00    +0.000 NA
ATOM     26  C   UNL     1      -4.756  12.004  18.799  0.00  0.00    +0.000 C 
ATOM     27  C   UNL     1      -5.989  11.891  19.706  0.00  0.00    +0.000 C 
ATOM     28  S   UNL     1      -6.054  13.216  20.944  0.00  0.00    +0.000 S 
ATOM     29  C   UNL     1      -4.380  12.980  21.607  0.00  0.00    +0.000 C 
ATOM     30  C   UNL     1      -3.315  12.969  20.504  0.00  0.00    +0.000 C 
ENDBRANCH  24  25
ENDBRANCH  21  24
ENDBRANCH   1  22
TORSDOF 6
ENDMDL
MODEL 2
REMARK VINA RESULT:      -7.9      0.847      1.311
REMARK  Name = 
REMARK  6 active torsions:
REMARK  status: ('A' for Active; 'I' for Inactive)
REMARK    1  A    between atoms: C_2  and  C_3
REMARK    2  A    between atoms: C_3  and  N_4
REMARK    3  A    between atoms: N_10  and  C_11
REMARK    4  A    between atoms: C_14  and  N_15
REMARK    5  A    between atoms: N_21  and  C_22
REMARK    6  A    between atoms: C_22  and  C_23
REMARK                            x       y       z     vdW  Elec       q    Type
REMARK                         _______ _______ _______ _____ _____    ______ ____
ROOT
ATOM      1  C   UNL     1       0.777   9.563  19.267  0.00  0.00    +0.000 A 
ATOM      2  C   UNL     1       1.410   9.282  18.062  0.00  0.00    +0.000 A 
ATOM      3  C   UNL     1       2.240   8.177  17.936  0.00  0.00    +0.000 A 
ATOM      4  C   UNL     1       2.586   7.392  19.035  0.00  0.00    +0.000 A 
ATOM      5  C   UNL     1       1.929   7.641  20.239  0.00  0.00    +0.000 A 
ATOM      6  C   UNL     1       1.022   8.714  20.356  0.00  0.00    +0.000 A 
ENDROOT
BRANCH   4   7
ATOM      7  N   UNL     1       3.478   6.308  18.909  0.00  0.00    +0.000 NA
ATOM      8  C   UNL     1       3.088   5.072  18.887  0.00  0.00    +0.000 C 
ATOM      9  S   UNL     1       1.453   4.448  18.772  0.00  0.00    +0.000 S 
ATOM     10  C   UNL     1       1.941   2.794  19.265  0.00  0.00    +0.000 C 
ATOM     11  C   UNL     1       3.438   2.766  19.133  0.00  0.00    +0.000 C 
ATOM     12  O   UNL     1       4.083   1.723  19.202  0.00  0.00    +0.000 OA
ATOM     13  N   UNL     1       3.967   4.026  18.944  0.00  0.00    +0.000 N 
BRANCH  13  14
ATOM     14  C   UNL     1       5.396   4.203  18.765  0.00  0.00    +0.000 C 
BRANCH  14  15
ATOM     15  C   UNL     1       5.776   4.377  17.322  0.00  0.00    +0.000 A 
ATOM     16  C   UNL     1       5.247   3.740  16.215  0.00  0.00    +0.000 A 
ATOM     17  C   UNL     1       5.967   4.034  15.021  0.00  0.00    +0.000 A 
ATOM     18  C   UNL     1       6.999   4.917  15.248  0.00  0.00    +0.000 A 
ATOM     19  S   UNL     1       7.083   5.397  16.885  0.00  0.00    +0.000 S 
ENDBRANCH  14  15
ENDBRANCH  13  14
ENDBRANCH   4   7
BRANCH   1  22
ATOM     20  O   UNL     1      -1.911   9.950  18.151  0.00  0.00    +0.000 OA
ATOM     21  C   UNL     1      -1.308  10.821  18.791  0.00  0.00    +0.000 C 
ATOM     22  N   UNL     1      -0.080  10.677  19.409  0.00  0.00    +0.000 N 
ATOM     23  H   UNL     1       0.197  11.394  20.071  0.00  0.00    +0.000 HD
BRANCH  21  24
ATOM     24  C   UNL     1      -1.950  12.203  18.946  0.00  0.00    +0.000 C 
BRANCH  24  25
ATOM     25  N   UNL     1      -2.621  12.379  20.262  0.00  0.00    +0.000 NA
ATOM     26  C   UNL     1      -4.074  12.631  20.075  0.00  0.00    +0.000 C 
ATOM     27  C   UNL     1      -4.858  12.802  21.384  0.00  0.00    +0.000 C 
ATOM     28  S   UNL     1      -4.300  14.244  22.334  0.00  0.00    +0.000 S 
ATOM     29  C   UNL     1      -2.533  13.826  22.350  0.00  0.00    +0.000 C 
ATOM     30  C   UNL     1      -1.992  13.538  20.944  0.00  0.00    +0.000 C 
ENDBRANCH  24  25
ENDBRANCH  21  24
ENDBRANCH   1  22
TORSDOF 6
ENDMDL
MODEL 3
REMARK VINA RESULT:      -7.9      0.930      1.418
REMARK  Name = 
REMARK  6 active torsions:
REMARK  status: ('A' for Active; 'I' for Inactive)
REMARK    1  A    between atoms: C_2  and  C_3
REMARK    2  A    between atoms: C_3  and  N_4
REMARK    3  A    between atoms: N_10  and  C_11
REMARK    4  A    between atoms: C_14  and  N_15
REMARK    5  A    between atoms: N_21  and  C_22
REMARK    6  A    between atoms: C_22  and  C_23
REMARK                            x       y       z     vdW  Elec       q    Type
REMARK                         _______ _______ _______ _____ _____    ______ ____
ROOT
ATOM      1  C   UNL     1       0.422   9.592  19.108  0.00  0.00    +0.000 A 
ATOM      2  C   UNL     1       1.105   9.291  17.935  0.00  0.00    +0.000 A 
ATOM      3  C   UNL     1       2.066   8.292  17.909  0.00  0.00    +0.000 A 
ATOM      4  C   UNL     1       2.489   7.652  19.074  0.00  0.00    +0.000 A 
ATOM      5  C   UNL     1       1.787   7.918  20.248  0.00  0.00    +0.000 A 
ATOM      6  C   UNL     1       0.752   8.875  20.267  0.00  0.00    +0.000 A 
ENDROOT
BRANCH   4   7
ATOM      7  N   UNL     1       3.511   6.681  19.046  0.00  0.00    +0.000 NA
ATOM      8  C   UNL     1       3.291   5.421  19.252  0.00  0.00    +0.000 C 
ATOM      9  S   UNL     1       1.752   4.588  19.375  0.00  0.00    +0.000 S 
ATOM     10  C   UNL     1       2.491   3.114  20.080  0.00  0.00    +0.000 C 
ATOM     11  C   UNL     1       3.966   3.249  19.829  0.00  0.00    +0.000 C 
ATOM     12  O   UNL     1       4.750   2.321  20.008  0.00  0.00    +0.000 OA
ATOM     13  N   UNL     1       4.306   4.515  19.399  0.00  0.00    +0.000 N 
BRANCH  13  14
ATOM     14  C   UNL     1       5.684   4.836  19.076  0.00  0.00    +0.000 C 
BRANCH  14  15
ATOM     15  C   UNL     1       6.008   4.577  17.632  0.00  0.00    +0.000 A 
ATOM     16  C   UNL     1       7.203   4.792  16.970  0.00  0.00    +0.000 A 
ATOM     17  C   UNL     1       7.093   4.585  15.565  0.00  0.00    +0.000 A 
ATOM     18  C   UNL     1       5.828   4.181  15.203  0.00  0.00    +0.000 A 
ATOM     19  S   UNL     1       4.790   4.037  16.552  0.00  0.00    +0.000 S 
ENDBRANCH  14  15
ENDBRANCH  13  14
ENDBRANCH   4   7
BRANCH   1  22
ATOM     20  O   UNL     1      -2.238   9.586  17.863  0.00  0.00    +0.000 OA
ATOM     21  C   UNL     1      -1.775  10.557  18.475  0.00  0.00    +0.000 C 
ATOM     22  N   UNL     1      -0.569  10.599  19.149  0.00  0.00    +0.000 N 
ATOM     23  H   UNL     1      -0.412  11.379  19.778  0.00  0.00    +0.000 HD
BRANCH  21  24
ATOM     24  C   UNL     1      -2.585  11.856  18.522  0.00  0.00    +0.000 C 
BRANCH  24  25
ATOM     25  N   UNL     1      -4.022  11.624  18.828  0.00  0.00    +0.000 NA
ATOM     26  C   UNL     1      -4.855  11.861  17.619  0.00  0.00    +0.000 C 
ATOM     27  C   UNL     1      -6.357  11.622  17.832  0.00  0.00    +0.000 C 
ATOM     28  S   UNL     1      -7.064  12.756  19.059  0.00  0.00    +0.000 S 
ATOM     29  C   UNL     1      -5.868  12.421  20.384  0.00  0.00    +0.000 C 
ATOM     30  C   UNL     1      -4.418  12.566  19.905  0.00  0.00    +0.000 C 
ENDBRANCH  24  25
ENDBRANCH  21  24
ENDBRANCH   1  22
TORSDOF 6
ENDMDL
MODEL 4
REMARK VINA RESULT:      -7.8      1.155      1.341
REMARK  Name = 
REMARK  6 active torsions:
REMARK  status: ('A' for Active; 'I' for Inactive)
REMARK    1  A    between atoms: C_2  and  C_3
REMARK    2  A    between atoms: C_3  and  N_4
REMARK    3  A    between atoms: N_10  and  C_11
REMARK    4  A    between atoms: C_14  and  N_15
REMARK    5  A    between atoms: N_21  and  C_22
REMARK    6  A    between atoms: C_22  and  C_23
REMARK                            x       y       z     vdW  Elec       q    Type
REMARK                         _______ _______ _______ _____ _____    ______ ____
ROOT
ATOM      1  C   UNL     1       0.911   9.566  19.225  0.00  0.00    +0.000 A 
ATOM      2  C   UNL     1       1.042   8.720  20.320  0.00  0.00    +0.000 A 
ATOM      3  C   UNL     1       1.905   7.635  20.281  0.00  0.00    +0.000 A 
ATOM      4  C   UNL     1       2.563   7.264  19.108  0.00  0.00    +0.000 A 
ATOM      5  C   UNL     1       2.469   8.125  18.015  0.00  0.00    +0.000 A 
ATOM      6  C   UNL     1       1.657   9.275  18.073  0.00  0.00    +0.000 A 
ENDROOT
BRANCH   4   7
ATOM      7  N   UNL     1       3.390   6.124  19.062  0.00  0.00    +0.000 NA
ATOM      8  C   UNL     1       2.973   4.966  18.655  0.00  0.00    +0.000 C 
ATOM      9  S   UNL     1       1.452   4.567  17.880  0.00  0.00    +0.000 S 
ATOM     10  C   UNL     1       1.659   2.806  18.151  0.00  0.00    +0.000 C 
ATOM     11  C   UNL     1       3.105   2.628  18.519  0.00  0.00    +0.000 C 
ATOM     12  O   UNL     1       3.635   1.522  18.579  0.00  0.00    +0.000 OA
ATOM     13  N   UNL     1       3.726   3.831  18.781  0.00  0.00    +0.000 N 
BRANCH  13  14
ATOM     14  C   UNL     1       5.136   3.870  19.126  0.00  0.00    +0.000 C 
BRANCH  14  15
ATOM     15  C   UNL     1       5.959   4.583  18.092  0.00  0.00    +0.000 A 
ATOM     16  C   UNL     1       6.808   5.660  18.265  0.00  0.00    +0.000 A 
ATOM     17  C   UNL     1       7.294   6.176  17.030  0.00  0.00    +0.000 A 
ATOM     18  C   UNL     1       6.833   5.452  15.954  0.00  0.00    +0.000 A 
ATOM     19  S   UNL     1       5.836   4.151  16.436  0.00  0.00    +0.000 S 
ENDBRANCH  14  15
ENDBRANCH  13  14
ENDBRANCH   4   7
BRANCH   1  22
ATOM     20  O   UNL     1      -1.870   9.740  18.300  0.00  0.00    +0.000 OA
ATOM     21  C   UNL     1      -1.234  10.711  18.729  0.00  0.00    +0.000 C 
ATOM     22  N   UNL     1       0.045  10.682  19.252  0.00  0.00    +0.000 N 
ATOM     23  H   UNL     1       0.362  11.502  19.758  0.00  0.00    +0.000 HD
BRANCH  21  24
ATOM     24  C   UNL     1      -1.891  12.094  18.706  0.00  0.00    +0.000 C 
BRANCH  24  25
ATOM     25  N   UNL     1      -2.624  12.401  19.963  0.00  0.00    +0.000 NA
ATOM     26  C   UNL     1      -4.089  12.451  19.711  0.00  0.00    +0.000 C 
ATOM     27  C   UNL     1      -4.934  12.740  20.959  0.00  0.00    +0.000 C 
ATOM     28  S   UNL     1      -4.574  14.370  21.669  0.00  0.00    +0.000 S 
ATOM     29  C   UNL     1      -2.773  14.166  21.786  0.00  0.00    +0.000 C 
ATOM     30  C   UNL     1      -2.153  13.719  20.457  0.00  0.00    +0.000 C 
ENDBRANCH  24  25
ENDBRANCH  21  24
ENDBRANCH   1  22
TORSDOF 6
ENDMDL
MODEL 5
REMARK VINA RESULT:      -7.7      1.680      2.020
REMARK  Name = 
REMARK  6 active torsions:
REMARK  status: ('A' for Active; 'I' for Inactive)
REMARK    1  A    between atoms: C_2  and  C_3
REMARK    2  A    between atoms: C_3  and  N_4
REMARK    3  A    between atoms: N_10  and  C_11
REMARK    4  A    between atoms: C_14  and  N_15
REMARK    5  A    between atoms: N_21  and  C_22
REMARK    6  A    between atoms: C_22  and  C_23
REMARK                            x       y       z     vdW  Elec       q    Type
REMARK                         _______ _______ _______ _____ _____    ______ ____
ROOT
ATOM      1  C   UNL     1       1.044   9.576  19.110  0.00  0.00    +0.000 A 
ATOM      2  C   UNL     1       1.221   8.628  20.111  0.00  0.00    +0.000 A 
ATOM      3  C   UNL     1       2.079   7.553  19.928  0.00  0.00    +0.000 A 
ATOM      4  C   UNL     1       2.681   7.298  18.696  0.00  0.00    +0.000 A 
ATOM      5  C   UNL     1       2.539   8.260  17.697  0.00  0.00    +0.000 A 
ATOM      6  C   UNL     1       1.734   9.399  17.902  0.00  0.00    +0.000 A 
ENDROOT
BRANCH   4   7
ATOM      7  N   UNL     1       3.501   6.169  18.502  0.00  0.00    +0.000 NA
ATOM      8  C   UNL     1       3.028   4.982  18.286  0.00  0.00    +0.000 C 
ATOM      9  S   UNL     1       1.370   4.514  17.957  0.00  0.00    +0.000 S 
ATOM     10  C   UNL     1       1.692   2.777  18.267  0.00  0.00    +0.000 C 
ATOM     11  C   UNL     1       3.189   2.642  18.255  0.00  0.00    +0.000 C 
ATOM     12  O   UNL     1       3.749   1.550  18.239  0.00  0.00    +0.000 OA
ATOM     13  N   UNL     1       3.821   3.868  18.276  0.00  0.00    +0.000 N 
BRANCH  13  14
ATOM     14  C   UNL     1       5.270   3.948  18.240  0.00  0.00    +0.000 C 
BRANCH  14  15
ATOM     15  C   UNL     1       5.792   4.249  16.864  0.00  0.00    +0.000 A 
ATOM     16  C   UNL     1       5.484   3.618  15.673  0.00  0.00    +0.000 A 
ATOM     17  C   UNL     1       6.296   4.065  14.592  0.00  0.00    +0.000 A 
ATOM     18  C   UNL     1       7.173   5.052  14.983  0.00  0.00    +0.000 A 
ATOM     19  S   UNL     1       7.001   5.444  16.637  0.00  0.00    +0.000 S 
ENDBRANCH  14  15
ENDBRANCH  13  14
ENDBRANCH   4   7
BRANCH   1  22
ATOM     20  O   UNL     1      -1.661   9.972  18.037  0.00  0.00    +0.000 OA
ATOM     21  C   UNL     1      -1.054  10.833  18.687  0.00  0.00    +0.000 C 
ATOM     22  N   UNL     1       0.184  10.683  19.285  0.00  0.00    +0.000 N 
ATOM     23  H   UNL     1       0.466  11.389  19.957  0.00  0.00    +0.000 HD
BRANCH  21  24
ATOM     24  C   UNL     1      -1.700  12.209  18.877  0.00  0.00    +0.000 C 
BRANCH  24  25
ATOM     25  N   UNL     1      -1.301  12.857  20.154  0.00  0.00    +0.000 NA
ATOM     26  C   UNL     1      -2.445  12.883  21.104  0.00  0.00    +0.000 C 
ATOM     27  C   UNL     1      -2.121  13.515  22.465  0.00  0.00    +0.000 C 
ATOM     28  S   UNL     1      -1.657  15.263  22.316  0.00  0.00    +0.000 S 
ATOM     29  C   UNL     1      -0.367  15.043  21.057  0.00  0.00    +0.000 C 
ATOM     30  C   UNL     1      -0.869  14.244  19.848  0.00  0.00    +0.000 C 
ENDBRANCH  24  25
ENDBRANCH  21  24
ENDBRANCH   1  22
TORSDOF 6
ENDMDL
MODEL 6
REMARK VINA RESULT:      -7.7      1.089      1.270
REMARK  Name = 
REMARK  6 active torsions:
REMARK  status: ('A' for Active; 'I' for Inactive)
REMARK    1  A    between atoms: C_2  and  C_3
REMARK    2  A    between atoms: C_3  and  N_4
REMARK    3  A    between atoms: N_10  and  C_11
REMARK    4  A    between atoms: C_14  and  N_15
REMARK    5  A    between atoms: N_21  and  C_22
REMARK    6  A    between atoms: C_22  and  C_23
REMARK                            x       y       z     vdW  Elec       q    Type
REMARK                         _______ _______ _______ _____ _____    ______ ____
ROOT
ATOM      1  C   UNL     1       0.636   9.499  19.220  0.00  0.00    +0.000 A 
ATOM      2  C   UNL     1       0.852   8.714  20.347  0.00  0.00    +0.000 A 
ATOM      3  C   UNL     1       1.784   7.686  20.328  0.00  0.00    +0.000 A 
ATOM      4  C   UNL     1       2.432   7.306  19.153  0.00  0.00    +0.000 A 
ATOM      5  C   UNL     1       2.251   8.108  18.027  0.00  0.00    +0.000 A 
ATOM      6  C   UNL     1       1.366   9.205  18.060  0.00  0.00    +0.000 A 
ENDROOT
BRANCH   4   7
ATOM      7  N   UNL     1       3.331   6.220  19.131  0.00  0.00    +0.000 NA
ATOM      8  C   UNL     1       2.998   5.038  18.719  0.00  0.00    +0.000 C 
ATOM      9  S   UNL     1       1.524   4.541  17.909  0.00  0.00    +0.000 S 
ATOM     10  C   UNL     1       1.836   2.797  18.192  0.00  0.00    +0.000 C 
ATOM     11  C   UNL     1       3.281   2.712  18.595  0.00  0.00    +0.000 C 
ATOM     12  O   UNL     1       3.878   1.642  18.672  0.00  0.00    +0.000 OA
ATOM     13  N   UNL     1       3.818   3.953  18.867  0.00  0.00    +0.000 N 
BRANCH  13  14
ATOM     14  C   UNL     1       5.213   4.082  19.246  0.00  0.00    +0.000 C 
BRANCH  14  15
ATOM     15  C   UNL     1       6.030   4.779  18.195  0.00  0.00    +0.000 A 
ATOM     16  C   UNL     1       6.837   5.892  18.336  0.00  0.00    +0.000 A 
ATOM     17  C   UNL     1       7.328   6.372  17.087  0.00  0.00    +0.000 A 
ATOM     18  C   UNL     1       6.912   5.586  16.036  0.00  0.00    +0.000 A 
ATOM     19  S   UNL     1       5.952   4.273  16.558  0.00  0.00    +0.000 S 
ENDBRANCH  14  15
ENDBRANCH  13  14
ENDBRANCH   4   7
BRANCH   1  22
ATOM     20  O   UNL     1      -2.037   9.576  18.007  0.00  0.00    +0.000 OA
ATOM     21  C   UNL     1      -1.516  10.548  18.568  0.00  0.00    +0.000 C 
ATOM     22  N   UNL     1      -0.300  10.557  19.226  0.00  0.00    +0.000 N 
ATOM     23  H   UNL     1      -0.095  11.356  19.816  0.00  0.00    +0.000 HD
BRANCH  21  24
ATOM     24  C   UNL     1      -2.257  11.889  18.564  0.00  0.00    +0.000 C 
BRANCH  24  25
ATOM     25  N   UNL     1      -3.694  11.750  18.920  0.00  0.00    +0.000 NA
ATOM     26  C   UNL     1      -4.550  11.958  17.722  0.00  0.00    +0.000 C 
ATOM     27  C   UNL     1      -6.054  11.810  17.988  0.00  0.00    +0.000 C 
ATOM     28  S   UNL     1      -6.668  13.049  19.164  0.00  0.00    +0.000 S 
ATOM     29  C   UNL     1      -5.451  12.730  20.474  0.00  0.00    +0.000 C 
ATOM     30  C   UNL     1      -4.010  12.772  19.949  0.00  0.00    +0.000 C 
ENDBRANCH  24  25
ENDBRANCH  21  24
ENDBRANCH   1  22
TORSDOF 6
ENDMDL
MODEL 7
REMARK VINA RESULT:      -7.7      1.945      2.353
REMARK  Name = 
REMARK  6 active torsions:
REMARK  status: ('A' for Active; 'I' for Inactive)
REMARK    1  A    between atoms: C_2  and  C_3
REMARK    2  A    between atoms: C_3  and  N_4
REMARK    3  A    between atoms: N_10  and  C_11
REMARK    4  A    between atoms: C_14  and  N_15
REMARK    5  A    between atoms: N_21  and  C_22
REMARK    6  A    between atoms: C_22  and  C_23
REMARK                            x       y       z     vdW  Elec       q    Type
REMARK                         _______ _______ _______ _____ _____    ______ ____
ROOT
ATOM      1  C   UNL     1       0.634   9.505  19.602  0.00  0.00    +0.000 A 
ATOM      2  C   UNL     1       1.264   9.267  18.386  0.00  0.00    +0.000 A 
ATOM      3  C   UNL     1       2.125   8.190  18.231  0.00  0.00    +0.000 A 
ATOM      4  C   UNL     1       2.505   7.394  19.312  0.00  0.00    +0.000 A 
ATOM      5  C   UNL     1       1.852   7.601  20.526  0.00  0.00    +0.000 A 
ATOM      6  C   UNL     1       0.914   8.643  20.672  0.00  0.00    +0.000 A 
ENDROOT
BRANCH   4   7
ATOM      7  N   UNL     1       3.427   6.340  19.157  0.00  0.00    +0.000 NA
ATOM      8  C   UNL     1       3.079   5.092  19.158  0.00  0.00    +0.000 C 
ATOM      9  S   UNL     1       1.463   4.412  19.115  0.00  0.00    +0.000 S 
ATOM     10  C   UNL     1       2.028   2.780  19.599  0.00  0.00    +0.000 C 
ATOM     11  C   UNL     1       3.518   2.801  19.406  0.00  0.00    +0.000 C 
ATOM     12  O   UNL     1       4.200   1.781  19.456  0.00  0.00    +0.000 OA
ATOM     13  N   UNL     1       3.995   4.076  19.186  0.00  0.00    +0.000 N 
BRANCH  13  14
ATOM     14  C   UNL     1       5.409   4.301  18.948  0.00  0.00    +0.000 C 
BRANCH  14  15
ATOM     15  C   UNL     1       5.733   4.413  17.486  0.00  0.00    +0.000 A 
ATOM     16  C   UNL     1       5.056   3.862  16.414  0.00  0.00    +0.000 A 
ATOM     17  C   UNL     1       5.747   4.042  15.181  0.00  0.00    +0.000 A 
ATOM     18  C   UNL     1       6.910   4.760  15.345  0.00  0.00    +0.000 A 
ATOM     19  S   UNL     1       7.153   5.225  16.971  0.00  0.00    +0.000 S 
ENDBRANCH  14  15
ENDBRANCH  13  14
ENDBRANCH   4   7
BRANCH   1  22
ATOM     20  O   UNL     1       1.206  12.180  20.669  0.00  0.00    +0.000 OA
ATOM     21  C   UNL     1       0.071  11.802  20.353  0.00  0.00    +0.000 C 
ATOM     22  N   UNL     1      -0.255  10.590  19.773  0.00  0.00    +0.000 N 
ATOM     23  H   UNL     1      -1.183  10.497  19.376  0.00  0.00    +0.000 HD
BRANCH  21  24
ATOM     24  C   UNL     1      -1.116  12.737  20.603  0.00  0.00    +0.000 C 
BRANCH  24  25
ATOM     25  N   UNL     1      -1.493  12.813  22.040  0.00  0.00    +0.000 NA
ATOM     26  C   UNL     1      -2.952  12.580  22.208  0.00  0.00    +0.000 C 
ATOM     27  C   UNL     1      -3.432  12.616  23.666  0.00  0.00    +0.000 C 
ATOM     28  S   UNL     1      -3.175  14.240  24.433  0.00  0.00    +0.000 S 
ATOM     29  C   UNL     1      -1.412  14.399  24.025  0.00  0.00    +0.000 C 
ATOM     30  C   UNL     1      -1.139  14.168  22.534  0.00  0.00    +0.000 C 
ENDBRANCH  24  25
ENDBRANCH  21  24
ENDBRANCH   1  22
TORSDOF 6
ENDMDL
MODEL 8
REMARK VINA RESULT:      -7.7      1.467      1.674
REMARK  Name = 
REMARK  6 active torsions:
REMARK  status: ('A' for Active; 'I' for Inactive)
REMARK    1  A    between atoms: C_2  and  C_3
REMARK    2  A    between atoms: C_3  and  N_4
REMARK    3  A    between atoms: N_10  and  C_11
REMARK    4  A    between atoms: C_14  and  N_15
REMARK    5  A    between atoms: N_21  and  C_22
REMARK    6  A    between atoms: C_22  and  C_23
REMARK                            x       y       z     vdW  Elec       q    Type
REMARK                         _______ _______ _______ _____ _____    ______ ____
ROOT
ATOM      1  C   UNL     1       0.566   9.623  19.155  0.00  0.00    +0.000 A 
ATOM      2  C   UNL     1       0.873   8.899  20.301  0.00  0.00    +0.000 A 
ATOM      3  C   UNL     1       1.867   7.931  20.285  0.00  0.00    +0.000 A 
ATOM      4  C   UNL     1       2.493   7.544  19.100  0.00  0.00    +0.000 A 
ATOM      5  C   UNL     1       2.220   8.287  17.953  0.00  0.00    +0.000 A 
ATOM      6  C   UNL     1       1.270   9.328  17.979  0.00  0.00    +0.000 A 
ENDROOT
BRANCH   4   7
ATOM      7  N   UNL     1       3.458   6.516  19.084  0.00  0.00    +0.000 NA
ATOM      8  C   UNL     1       3.154   5.262  19.203  0.00  0.00    +0.000 C 
ATOM      9  S   UNL     1       1.565   4.519  19.179  0.00  0.00    +0.000 S 
ATOM     10  C   UNL     1       2.169   2.967  19.845  0.00  0.00    +0.000 C 
ATOM     11  C   UNL     1       3.664   3.027  19.699  0.00  0.00    +0.000 C 
ATOM     12  O   UNL     1       4.379   2.045  19.875  0.00  0.00    +0.000 OA
ATOM     13  N   UNL     1       4.103   4.291  19.365  0.00  0.00    +0.000 N 
BRANCH  13  14
ATOM     14  C   UNL     1       5.516   4.544  19.151  0.00  0.00    +0.000 C 
BRANCH  14  15
ATOM     15  C   UNL     1       5.908   4.416  17.706  0.00  0.00    +0.000 A 
ATOM     16  C   UNL     1       7.132   4.688  17.123  0.00  0.00    +0.000 A 
ATOM     17  C   UNL     1       7.088   4.608  15.701  0.00  0.00    +0.000 A 
ATOM     18  C   UNL     1       5.843   4.240  15.245  0.00  0.00    +0.000 A 
ATOM     19  S   UNL     1       4.743   3.977  16.526  0.00  0.00    +0.000 S 
ENDBRANCH  14  15
ENDBRANCH  13  14
ENDBRANCH   4   7
BRANCH   1  22
ATOM     20  O   UNL     1       0.877  12.518  19.532  0.00  0.00    +0.000 OA
ATOM     21  C   UNL     1      -0.222  11.962  19.415  0.00  0.00    +0.000 C 
ATOM     22  N   UNL     1      -0.435  10.620  19.157  0.00  0.00    +0.000 N 
ATOM     23  H   UNL     1      -1.369  10.341  18.879  0.00  0.00    +0.000 HD
BRANCH  21  24
ATOM     24  C   UNL     1      -1.495  12.801  19.556  0.00  0.00    +0.000 C 
BRANCH  24  25
ATOM     25  N   UNL     1      -2.376  12.327  20.655  0.00  0.00    +0.000 NA
ATOM     26  C   UNL     1      -3.637  13.114  20.689  0.00  0.00    +0.000 C 
ATOM     27  C   UNL     1      -4.624  12.679  21.781  0.00  0.00    +0.000 C 
ATOM     28  S   UNL     1      -3.944  12.903  23.448  0.00  0.00    +0.000 S 
ATOM     29  C   UNL     1      -2.393  11.999  23.176  0.00  0.00    +0.000 C 
ATOM     30  C   UNL     1      -1.642  12.496  21.935  0.00  0.00    +0.000 C 
ENDBRANCH  24  25
ENDBRANCH  21  24
ENDBRANCH   1  22
TORSDOF 6
ENDMDL
MODEL 9
REMARK VINA RESULT:      -7.7      1.923      2.630
REMARK  Name = 
REMARK  6 active torsions:
REMARK  status: ('A' for Active; 'I' for Inactive)
REMARK    1  A    between atoms: C_2  and  C_3
REMARK    2  A    between atoms: C_3  and  N_4
REMARK    3  A    between atoms: N_10  and  C_11
REMARK    4  A    between atoms: C_14  and  N_15
REMARK    5  A    between atoms: N_21  and  C_22
REMARK    6  A    between atoms: C_22  and  C_23
REMARK                            x       y       z     vdW  Elec       q    Type
REMARK                         _______ _______ _______ _____ _____    ______ ____
ROOT
ATOM      1  C   UNL     1       0.776   9.432  19.542  0.00  0.00    +0.000 A 
ATOM      2  C   UNL     1       1.389   9.206  18.315  0.00  0.00    +0.000 A 
ATOM      3  C   UNL     1       2.205   8.101  18.122  0.00  0.00    +0.000 A 
ATOM      4  C   UNL     1       2.560   7.259  19.175  0.00  0.00    +0.000 A 
ATOM      5  C   UNL     1       1.923   7.454  20.400  0.00  0.00    +0.000 A 
ATOM      6  C   UNL     1       1.029   8.528  20.584  0.00  0.00    +0.000 A 
ENDROOT
BRANCH   4   7
ATOM      7  N   UNL     1       3.439   6.174  18.982  0.00  0.00    +0.000 NA
ATOM      8  C   UNL     1       3.035   4.946  18.896  0.00  0.00    +0.000 C 
ATOM      9  S   UNL     1       1.392   4.345  18.765  0.00  0.00    +0.000 S 
ATOM     10  C   UNL     1       1.867   2.662  19.162  0.00  0.00    +0.000 C 
ATOM     11  C   UNL     1       3.362   2.626  19.014  0.00  0.00    +0.000 C 
ATOM     12  O   UNL     1       3.996   1.575  19.020  0.00  0.00    +0.000 OA
ATOM     13  N   UNL     1       3.903   3.889  18.888  0.00  0.00    +0.000 N 
BRANCH  13  14
ATOM     14  C   UNL     1       5.333   4.061  18.705  0.00  0.00    +0.000 C 
BRANCH  14  15
ATOM     15  C   UNL     1       5.701   4.301  17.269  0.00  0.00    +0.000 A 
ATOM     16  C   UNL     1       4.949   4.045  16.137  0.00  0.00    +0.000 A 
ATOM     17  C   UNL     1       5.686   4.247  14.935  0.00  0.00    +0.000 A 
ATOM     18  C   UNL     1       6.966   4.687  15.185  0.00  0.00    +0.000 A 
ATOM     19  S   UNL     1       7.265   4.871  16.857  0.00  0.00    +0.000 S 
ENDBRANCH  14  15
ENDBRANCH  13  14
ENDBRANCH   4   7
BRANCH   1  22
ATOM     20  O   UNL     1      -1.796  10.040  18.263  0.00  0.00    +0.000 OA
ATOM     21  C   UNL     1      -1.234  10.805  19.057  0.00  0.00    +0.000 C 
ATOM     22  N   UNL     1      -0.067  10.546  19.753  0.00  0.00    +0.000 N 
ATOM     23  H   UNL     1       0.165  11.166  20.522  0.00  0.00    +0.000 HD
BRANCH  21  24
ATOM     24  C   UNL     1      -1.859  12.176  19.333  0.00  0.00    +0.000 C 
BRANCH  24  25
ATOM     25  N   UNL     1      -0.861  13.178  19.794  0.00  0.00    +0.000 NA
ATOM     26  C   UNL     1      -1.498  14.164  20.706  0.00  0.00    +0.000 C 
ATOM     27  C   UNL     1      -0.538  15.228  21.255  0.00  0.00    +0.000 C 
ATOM     28  S   UNL     1       0.162  16.264  19.939  0.00  0.00    +0.000 S 
ATOM     29  C   UNL     1       0.767  14.909  18.891  0.00  0.00    +0.000 C 
ATOM     30  C   UNL     1      -0.325  13.872  18.597  0.00  0.00    +0.000 C 
ENDBRANCH  24  25
ENDBRANCH  21  24
ENDBRANCH   1  22
TORSDOF 6
ENDMDL
