MODEL 1
REMARK VINA RESULT:      -8.1      0.000      0.000
REMARK  Name = 
REMARK  4 active torsions:
REMARK  status: ('A' for Active; 'I' for Inactive)
REMARK    1  A    between atoms: C_2  and  C_3
REMARK    2  A    between atoms: C_11  and  C_13
REMARK    3  A    between atoms: C_16  and  O_17
REMARK    4  A    between atoms: O_17  and  C_18
REMARK                            x       y       z     vdW  Elec       q    Type
REMARK                         _______ _______ _______ _____ _____    ______ ____
ROOT
ATOM      1  C   UNL     1      -0.755  12.057  21.138  0.00  0.00    +0.000 C 
ATOM      2  C   UNL     1       0.159  13.054  21.885  0.00  0.00    +0.000 C 
ATOM      3  C   UNL     1       1.279  13.391  20.917  0.00  0.00    +0.000 C 
ATOM      4  O   UNL     1       0.972  14.479  20.049  0.00  0.00    +0.000 OA
ATOM      5  C   UNL     1       1.511  14.174  18.755  0.00  0.00    +0.000 C 
ATOM      6  C   UNL     1       1.826  12.693  18.701  0.00  0.00    +0.000 C 
ATOM      7  C   UNL     1       1.400  12.163  20.050  0.00  0.00    +0.000 C 
ATOM      8  N   UNL     1       0.077  11.540  20.043  0.00  0.00    +0.000 N 
ATOM      9  C   UNL     1      -0.197  10.273  19.491  0.00  0.00    +0.000 C 
ATOM     10  O   UNL     1      -1.355   9.851  19.480  0.00  0.00    +0.000 OA
ENDROOT
BRANCH   1  12
ATOM     11  O   UNL     1      -2.461  13.252  19.959  0.00  0.00    +0.000 OA
ATOM     12  C   UNL     1      -2.167  12.702  21.032  0.00  0.00    +0.000 C 
ATOM     13  N   UNL     1      -3.148  12.469  21.966  0.00  0.00    +0.000 N 
ATOM     14  C   UNL     1      -4.509  12.930  21.761  0.00  0.00    +0.000 C 
ATOM     15  C   UNL     1      -4.771  13.738  23.018  0.00  0.00    +0.000 C 
ATOM     16  C   UNL     1      -4.051  12.937  24.100  0.00  0.00    +0.000 C 
ATOM     17  C   UNL     1      -2.964  12.151  23.362  0.00  0.00    +0.000 C 
ENDBRANCH   1  12
BRANCH   9  18
ATOM     18  C   UNL     1       0.918   9.501  18.945  0.00  0.00    +0.000 A 
ATOM     19  C   UNL     1       1.645   9.607  17.770  0.00  0.00    +0.000 A 
ATOM     20  C   UNL     1       2.607   8.554  17.781  0.00  0.00    +0.000 A 
ATOM     21  C   UNL     1       2.380   7.830  18.927  0.00  0.00    +0.000 A 
ATOM     22  O   UNL     1       1.368   8.397  19.619  0.00  0.00    +0.000 OA
BRANCH  21  23
ATOM     23  O   UNL     1       2.881   6.749  19.517  0.00  0.00    +0.000 OA
BRANCH  23  24
ATOM     24  C   UNL     1       2.229   5.543  19.470  0.00  0.00    +0.000 A 
ATOM     25  C   UNL     1       2.193   4.888  18.236  0.00  0.00    +0.000 A 
ATOM     26  C   UNL     1       1.576   3.640  18.132  0.00  0.00    +0.000 A 
ATOM     27  C   UNL     1       1.008   3.046  19.260  0.00  0.00    +0.000 A 
ATOM     28  C   UNL     1       1.073   3.684  20.494  0.00  0.00    +0.000 A 
ATOM     29  C   UNL     1       1.697   4.926  20.602  0.00  0.00    +0.000 A 
ENDBRANCH  23  24
ENDBRANCH  21  23
ENDBRANCH   9  18
TORSDOF 4
ENDMDL
MODEL 2
REMARK VINA RESULT:      -8.1      4.941      8.500
REMARK  Name = 
REMARK  4 active torsions:
REMARK  status: ('A' for Active; 'I' for Inactive)
REMARK    1  A    between atoms: C_2  and  C_3
REMARK    2  A    between atoms: C_11  and  C_13
REMARK    3  A    between atoms: C_16  and  O_17
REMARK    4  A    between atoms: O_17  and  C_18
REMARK                            x       y       z     vdW  Elec       q    Type
REMARK                         _______ _______ _______ _____ _____    ______ ____
ROOT
ATOM      1  C   UNL     1       2.332   5.499  18.356  0.00  0.00    +0.000 C 
ATOM      2  C   UNL     1       1.466   4.220  18.302  0.00  0.00    +0.000 C 
ATOM      3  C   UNL     1       2.437   3.060  18.428  0.00  0.00    +0.000 C 
ATOM      4  O   UNL     1       2.713   2.694  19.778  0.00  0.00    +0.000 OA
ATOM      5  C   UNL     1       4.104   2.357  19.866  0.00  0.00    +0.000 C 
ATOM      6  C   UNL     1       4.809   2.893  18.636  0.00  0.00    +0.000 C 
ATOM      7  C   UNL     1       3.724   3.590  17.849  0.00  0.00    +0.000 C 
ATOM      8  N   UNL     1       3.693   5.038  18.050  0.00  0.00    +0.000 N 
ATOM      9  C   UNL     1       4.629   5.934  17.497  0.00  0.00    +0.000 C 
ATOM     10  O   UNL     1       4.557   7.134  17.766  0.00  0.00    +0.000 OA
ENDROOT
BRANCH   1  12
ATOM     11  O   UNL     1       1.698   5.720  20.652  0.00  0.00    +0.000 OA
ATOM     12  C   UNL     1       1.866   6.330  19.585  0.00  0.00    +0.000 C 
ATOM     13  N   UNL     1       1.879   7.705  19.584  0.00  0.00    +0.000 N 
ATOM     14  C   UNL     1       1.614   8.463  20.793  0.00  0.00    +0.000 C 
ATOM     15  C   UNL     1       0.482   9.377  20.363  0.00  0.00    +0.000 C 
ATOM     16  C   UNL     1       0.852   9.730  18.923  0.00  0.00    +0.000 C 
ATOM     17  C   UNL     1       1.737   8.577  18.442  0.00  0.00    +0.000 C 
ENDBRANCH   1  12
BRANCH   9  18
ATOM     18  C   UNL     1       5.663   5.394  16.615  0.00  0.00    +0.000 A 
ATOM     19  C   UNL     1       6.898   4.816  16.861  0.00  0.00    +0.000 A 
ATOM     20  C   UNL     1       7.469   4.498  15.594  0.00  0.00    +0.000 A 
ATOM     21  C   UNL     1       6.584   4.951  14.644  0.00  0.00    +0.000 A 
ATOM     22  O   UNL     1       5.508   5.488  15.257  0.00  0.00    +0.000 OA
BRANCH  21  23
ATOM     23  O   UNL     1       6.511   4.995  13.317  0.00  0.00    +0.000 OA
BRANCH  23  24
ATOM     24  C   UNL     1       6.324   3.858  12.574  0.00  0.00    +0.000 A 
ATOM     25  C   UNL     1       5.004   3.496  12.287  0.00  0.00    +0.000 A 
ATOM     26  C   UNL     1       4.749   2.369  11.505  0.00  0.00    +0.000 A 
ATOM     27  C   UNL     1       5.810   1.614  11.002  0.00  0.00    +0.000 A 
ATOM     28  C   UNL     1       7.123   1.994  11.260  0.00  0.00    +0.000 A 
ATOM     29  C   UNL     1       7.380   3.124  12.034  0.00  0.00    +0.000 A 
ENDBRANCH  23  24
ENDBRANCH  21  23
ENDBRANCH   9  18
TORSDOF 4
ENDMDL
MODEL 3
REMARK VINA RESULT:      -8.0      3.537      9.545
REMARK  Name = 
REMARK  4 active torsions:
REMARK  status: ('A' for Active; 'I' for Inactive)
REMARK    1  A    between atoms: C_2  and  C_3
REMARK    2  A    between atoms: C_11  and  C_13
REMARK    3  A    between atoms: C_16  and  O_17
REMARK    4  A    between atoms: O_17  and  C_18
REMARK                            x       y       z     vdW  Elec       q    Type
REMARK                         _______ _______ _______ _____ _____    ______ ____
ROOT
ATOM      1  C   UNL     1       4.189   4.611  18.704  0.00  0.00    +0.000 C 
ATOM      2  C   UNL     1       4.383   3.494  19.754  0.00  0.00    +0.000 C 
ATOM      3  C   UNL     1       3.046   3.355  20.458  0.00  0.00    +0.000 C 
ATOM      4  O   UNL     1       2.154   2.451  19.811  0.00  0.00    +0.000 OA
ATOM      5  C   UNL     1       0.831   3.001  19.899  0.00  0.00    +0.000 C 
ATOM      6  C   UNL     1       0.942   4.467  20.267  0.00  0.00    +0.000 C 
ATOM      7  C   UNL     1       2.428   4.726  20.354  0.00  0.00    +0.000 C 
ATOM      8  N   UNL     1       2.989   5.333  19.148  0.00  0.00    +0.000 N 
ATOM      9  C   UNL     1       2.805   6.680  18.781  0.00  0.00    +0.000 C 
ATOM     10  O   UNL     1       3.269   7.091  17.716  0.00  0.00    +0.000 OA
ENDROOT
BRANCH   1  12
ATOM     11  O   UNL     1       3.829   2.965  17.006  0.00  0.00    +0.000 OA
ATOM     12  C   UNL     1       4.459   3.991  17.303  0.00  0.00    +0.000 C 
ATOM     13  N   UNL     1       5.159   4.664  16.330  0.00  0.00    +0.000 N 
ATOM     14  C   UNL     1       5.250   4.151  14.975  0.00  0.00    +0.000 C 
ATOM     15  C   UNL     1       6.748   4.103  14.744  0.00  0.00    +0.000 C 
ATOM     16  C   UNL     1       7.249   5.354  15.463  0.00  0.00    +0.000 C 
ATOM     17  C   UNL     1       6.189   5.657  16.526  0.00  0.00    +0.000 C 
ENDBRANCH   1  12
BRANCH   9  18
ATOM     18  C   UNL     1       2.059   7.548  19.691  0.00  0.00    +0.000 A 
ATOM     19  C   UNL     1       1.592   7.371  20.983  0.00  0.00    +0.000 A 
ATOM     20  C   UNL     1       0.914   8.571  21.349  0.00  0.00    +0.000 A 
ATOM     21  C   UNL     1       0.950   9.390  20.245  0.00  0.00    +0.000 A 
ATOM     22  O   UNL     1       1.633   8.775  19.256  0.00  0.00    +0.000 OA
BRANCH  21  23
ATOM     23  O   UNL     1       0.503  10.596  19.906  0.00  0.00    +0.000 OA
BRANCH  23  24
ATOM     24  C   UNL     1      -0.685  10.755  19.240  0.00  0.00    +0.000 A 
ATOM     25  C   UNL     1      -1.586  11.688  19.760  0.00  0.00    +0.000 A 
ATOM     26  C   UNL     1      -2.796  11.922  19.106  0.00  0.00    +0.000 A 
ATOM     27  C   UNL     1      -3.099  11.234  17.930  0.00  0.00    +0.000 A 
ATOM     28  C   UNL     1      -2.187  10.329  17.395  0.00  0.00    +0.000 A 
ATOM     29  C   UNL     1      -0.974  10.101  18.042  0.00  0.00    +0.000 A 
ENDBRANCH  23  24
ENDBRANCH  21  23
ENDBRANCH   9  18
TORSDOF 4
ENDMDL
MODEL 4
REMARK VINA RESULT:      -8.0      4.837      8.264
REMARK  Name = 
REMARK  4 active torsions:
REMARK  status: ('A' for Active; 'I' for Inactive)
REMARK    1  A    between atoms: C_2  and  C_3
REMARK    2  A    between atoms: C_11  and  C_13
REMARK    3  A    between atoms: C_16  and  O_17
REMARK    4  A    between atoms: O_17  and  C_18
REMARK                            x       y       z     vdW  Elec       q    Type
REMARK                         _______ _______ _______ _____ _____    ______ ____
ROOT
ATOM      1  C   UNL     1       2.404   6.072  18.062  0.00  0.00    +0.000 C 
ATOM      2  C   UNL     1       1.386   4.927  17.865  0.00  0.00    +0.000 C 
ATOM      3  C   UNL     1       2.173   3.642  18.041  0.00  0.00    +0.000 C 
ATOM      4  O   UNL     1       2.249   3.202  19.395  0.00  0.00    +0.000 OA
ATOM      5  C   UNL     1       3.565   2.675  19.612  0.00  0.00    +0.000 C 
ATOM      6  C   UNL     1       4.465   3.143  18.486  0.00  0.00    +0.000 C 
ATOM      7  C   UNL     1       3.575   4.005  17.622  0.00  0.00    +0.000 C 
ATOM      8  N   UNL     1       3.717   5.437  17.880  0.00  0.00    +0.000 N 
ATOM      9  C   UNL     1       4.819   6.211  17.466  0.00  0.00    +0.000 C 
ATOM     10  O   UNL     1       4.880   7.402  17.778  0.00  0.00    +0.000 OA
ENDROOT
BRANCH   1  12
ATOM     11  O   UNL     1       1.931   6.383  20.387  0.00  0.00    +0.000 OA
ATOM     12  C   UNL     1       1.923   6.925  19.271  0.00  0.00    +0.000 C 
ATOM     13  N   UNL     1       1.738   8.284  19.178  0.00  0.00    +0.000 N 
ATOM     14  C   UNL     1       1.463   9.090  20.354  0.00  0.00    +0.000 C 
ATOM     15  C   UNL     1       0.181   9.802  19.969  0.00  0.00    +0.000 C 
ATOM     16  C   UNL     1       0.379  10.090  18.482  0.00  0.00    +0.000 C 
ATOM     17  C   UNL     1       1.380   9.036  17.999  0.00  0.00    +0.000 C 
ENDBRANCH   1  12
BRANCH   9  18
ATOM     18  C   UNL     1       5.861   5.559  16.674  0.00  0.00    +0.000 A 
ATOM     19  C   UNL     1       6.990   4.837  17.023  0.00  0.00    +0.000 A 
ATOM     20  C   UNL     1       7.637   4.463  15.808  0.00  0.00    +0.000 A 
ATOM     21  C   UNL     1       6.905   5.024  14.789  0.00  0.00    +0.000 A 
ATOM     22  O   UNL     1       5.845   5.680  15.310  0.00  0.00    +0.000 OA
BRANCH  21  23
ATOM     23  O   UNL     1       6.963   5.087  13.461  0.00  0.00    +0.000 OA
BRANCH  23  24
ATOM     24  C   UNL     1       6.475   4.073  12.678  0.00  0.00    +0.000 A 
ATOM     25  C   UNL     1       7.410   3.223  12.081  0.00  0.00    +0.000 A 
ATOM     26  C   UNL     1       6.975   2.150  11.303  0.00  0.00    +0.000 A 
ATOM     27  C   UNL     1       5.609   1.921  11.132  0.00  0.00    +0.000 A 
ATOM     28  C   UNL     1       4.678   2.747  11.754  0.00  0.00    +0.000 A 
ATOM     29  C   UNL     1       5.111   3.814  12.538  0.00  0.00    +0.000 A 
ENDBRANCH  23  24
ENDBRANCH  21  23
ENDBRANCH   9  18
TORSDOF 4
ENDMDL
MODEL 5
REMARK VINA RESULT:      -7.9      1.744      2.498
REMARK  Name = 
REMARK  4 active torsions:
REMARK  status: ('A' for Active; 'I' for Inactive)
REMARK    1  A    between atoms: C_2  and  C_3
REMARK    2  A    between atoms: C_11  and  C_13
REMARK    3  A    between atoms: C_16  and  O_17
REMARK    4  A    between atoms: O_17  and  C_18
REMARK                            x       y       z     vdW  Elec       q    Type
REMARK                         _______ _______ _______ _____ _____    ______ ____
ROOT
ATOM      1  C   UNL     1      -1.209  12.234  20.121  0.00  0.00    +0.000 C 
ATOM      2  C   UNL     1      -1.626  13.059  18.883  0.00  0.00    +0.000 C 
ATOM      3  C   UNL     1      -1.810  12.053  17.762  0.00  0.00    +0.000 C 
ATOM      4  O   UNL     1      -3.122  11.497  17.706  0.00  0.00    +0.000 OA
ATOM      5  C   UNL     1      -2.996  10.108  17.368  0.00  0.00    +0.000 C 
ATOM      6  C   UNL     1      -1.559   9.685  17.594  0.00  0.00    +0.000 C 
ATOM      7  C   UNL     1      -0.874  10.926  18.117  0.00  0.00    +0.000 C 
ATOM      8  N   UNL     1      -0.743  10.952  19.573  0.00  0.00    +0.000 N 
ATOM      9  C   UNL     1       0.179  10.173  20.299  0.00  0.00    +0.000 C 
ATOM     10  O   UNL     1       0.181  10.219  21.530  0.00  0.00    +0.000 OA
ENDROOT
BRANCH   1  12
ATOM     11  O   UNL     1      -3.444  12.095  20.964  0.00  0.00    +0.000 OA
ATOM     12  C   UNL     1      -2.286  12.459  21.221  0.00  0.00    +0.000 C 
ATOM     13  N   UNL     1      -1.952  12.804  22.509  0.00  0.00    +0.000 N 
ATOM     14  C   UNL     1      -2.950  12.836  23.563  0.00  0.00    +0.000 C 
ATOM     15  C   UNL     1      -2.799  14.242  24.112  0.00  0.00    +0.000 C 
ATOM     16  C   UNL     1      -1.293  14.481  24.040  0.00  0.00    +0.000 C 
ATOM     17  C   UNL     1      -0.789  13.542  22.940  0.00  0.00    +0.000 C 
ENDBRANCH   1  12
BRANCH   9  18
ATOM     18  C   UNL     1       1.109   9.328  19.550  0.00  0.00    +0.000 A 
ATOM     19  C   UNL     1       1.636   9.417  18.272  0.00  0.00    +0.000 A 
ATOM     20  C   UNL     1       2.481   8.283  18.091  0.00  0.00    +0.000 A 
ATOM     21  C   UNL     1       2.380   7.534  19.239  0.00  0.00    +0.000 A 
ATOM     22  O   UNL     1       1.557   8.160  20.108  0.00  0.00    +0.000 OA
BRANCH  21  23
ATOM     23  O   UNL     1       2.867   6.388  19.707  0.00  0.00    +0.000 OA
BRANCH  23  24
ATOM     24  C   UNL     1       2.168   5.215  19.587  0.00  0.00    +0.000 A 
ATOM     25  C   UNL     1       2.060   4.668  18.305  0.00  0.00    +0.000 A 
ATOM     26  C   UNL     1       1.393   3.456  18.123  0.00  0.00    +0.000 A 
ATOM     27  C   UNL     1       0.847   2.787  19.220  0.00  0.00    +0.000 A 
ATOM     28  C   UNL     1       0.984   3.316  20.500  0.00  0.00    +0.000 A 
ATOM     29  C   UNL     1       1.657   4.522  20.684  0.00  0.00    +0.000 A 
ENDBRANCH  23  24
ENDBRANCH  21  23
ENDBRANCH   9  18
TORSDOF 4
ENDMDL
MODEL 6
REMARK VINA RESULT:      -7.9      0.850      1.262
REMARK  Name = 
REMARK  4 active torsions:
REMARK  status: ('A' for Active; 'I' for Inactive)
REMARK    1  A    between atoms: C_2  and  C_3
REMARK    2  A    between atoms: C_11  and  C_13
REMARK    3  A    between atoms: C_16  and  O_17
REMARK    4  A    between atoms: O_17  and  C_18
REMARK                            x       y       z     vdW  Elec       q    Type
REMARK                         _______ _______ _______ _____ _____    ______ ____
ROOT
ATOM      1  C   UNL     1       0.119  12.831  21.041  0.00  0.00    +0.000 C 
ATOM      2  C   UNL     1       1.282  13.710  21.553  0.00  0.00    +0.000 C 
ATOM      3  C   UNL     1       2.303  13.736  20.430  0.00  0.00    +0.000 C 
ATOM      4  O   UNL     1       2.074  14.771  19.477  0.00  0.00    +0.000 OA
ATOM      5  C   UNL     1       2.374  14.246  18.176  0.00  0.00    +0.000 C 
ATOM      6  C   UNL     1       2.421  12.734  18.267  0.00  0.00    +0.000 C 
ATOM      7  C   UNL     1       2.095  12.428  19.710  0.00  0.00    +0.000 C 
ATOM      8  N   UNL     1       0.696  12.062  19.930  0.00  0.00    +0.000 N 
ATOM      9  C   UNL     1       0.137  10.820  19.571  0.00  0.00    +0.000 C 
ATOM     10  O   UNL     1      -1.066  10.620  19.743  0.00  0.00    +0.000 OA
ENDROOT
BRANCH   1  12
ATOM     11  O   UNL     1      -1.141  14.728  20.307  0.00  0.00    +0.000 OA
ATOM     12  C   UNL     1      -1.162  13.712  21.020  0.00  0.00    +0.000 C 
ATOM     13  N   UNL     1      -2.355  13.279  21.549  0.00  0.00    +0.000 N 
ATOM     14  C   UNL     1      -3.580  14.034  21.364  0.00  0.00    +0.000 C 
ATOM     15  C   UNL     1      -4.061  14.231  22.789  0.00  0.00    +0.000 C 
ATOM     16  C   UNL     1      -3.695  12.910  23.462  0.00  0.00    +0.000 C 
ATOM     17  C   UNL     1      -2.539  12.344  22.633  0.00  0.00    +0.000 C 
ENDBRANCH   1  12
BRANCH   9  18
ATOM     18  C   UNL     1       1.021   9.805  18.998  0.00  0.00    +0.000 A 
ATOM     19  C   UNL     1       1.539   9.623  17.727  0.00  0.00    +0.000 A 
ATOM     20  C   UNL     1       2.331   8.437  17.766  0.00  0.00    +0.000 A 
ATOM     21  C   UNL     1       2.207   7.929  19.037  0.00  0.00    +0.000 A 
ATOM     22  O   UNL     1       1.422   8.747  19.770  0.00  0.00    +0.000 OA
BRANCH  21  23
ATOM     23  O   UNL     1       2.647   6.873  19.717  0.00  0.00    +0.000 OA
BRANCH  23  24
ATOM     24  C   UNL     1       2.161   5.614  19.471  0.00  0.00    +0.000 A 
ATOM     25  C   UNL     1       1.561   4.944  20.540  0.00  0.00    +0.000 A 
ATOM     26  C   UNL     1       1.014   3.675  20.344  0.00  0.00    +0.000 A 
ATOM     27  C   UNL     1       1.056   3.085  19.079  0.00  0.00    +0.000 A 
ATOM     28  C   UNL     1       1.623   3.767  18.008  0.00  0.00    +0.000 A 
ATOM     29  C   UNL     1       2.162   5.038  18.200  0.00  0.00    +0.000 A 
ENDBRANCH  23  24
ENDBRANCH  21  23
ENDBRANCH   9  18
TORSDOF 4
ENDMDL
MODEL 7
REMARK VINA RESULT:      -7.8      3.445      9.611
REMARK  Name = 
REMARK  4 active torsions:
REMARK  status: ('A' for Active; 'I' for Inactive)
REMARK    1  A    between atoms: C_2  and  C_3
REMARK    2  A    between atoms: C_11  and  C_13
REMARK    3  A    between atoms: C_16  and  O_17
REMARK    4  A    between atoms: O_17  and  C_18
REMARK                            x       y       z     vdW  Elec       q    Type
REMARK                         _______ _______ _______ _____ _____    ______ ____
ROOT
ATOM      1  C   UNL     1       4.073   4.892  18.570  0.00  0.00    +0.000 C 
ATOM      2  C   UNL     1       4.363   3.730  19.546  0.00  0.00    +0.000 C 
ATOM      3  C   UNL     1       3.084   3.526  20.336  0.00  0.00    +0.000 C 
ATOM      4  O   UNL     1       2.165   2.634  19.709  0.00  0.00    +0.000 OA
ATOM      5  C   UNL     1       0.842   3.149  19.918  0.00  0.00    +0.000 C 
ATOM      6  C   UNL     1       0.951   4.597  20.350  0.00  0.00    +0.000 C 
ATOM      7  C   UNL     1       2.433   4.886  20.344  0.00  0.00    +0.000 C 
ATOM      8  N   UNL     1       2.894   5.563  19.133  0.00  0.00    +0.000 N 
ATOM      9  C   UNL     1       2.658   6.922  18.848  0.00  0.00    +0.000 C 
ATOM     10  O   UNL     1       3.036   7.395  17.774  0.00  0.00    +0.000 OA
ENDROOT
BRANCH   1  12
ATOM     11  O   UNL     1       3.416   3.526  16.718  0.00  0.00    +0.000 OA
ATOM     12  C   UNL     1       4.253   4.347  17.124  0.00  0.00    +0.000 C 
ATOM     13  N   UNL     1       5.133   4.916  16.234  0.00  0.00    +0.000 N 
ATOM     14  C   UNL     1       5.161   4.513  14.840  0.00  0.00    +0.000 C 
ATOM     15  C   UNL     1       6.616   4.133  14.640  0.00  0.00    +0.000 C 
ATOM     16  C   UNL     1       7.361   5.166  15.483  0.00  0.00    +0.000 C 
ATOM     17  C   UNL     1       6.355   5.618  16.545  0.00  0.00    +0.000 C 
ENDBRANCH   1  12
BRANCH   9  18
ATOM     18  C   UNL     1       1.962   7.727  19.851  0.00  0.00    +0.000 A 
ATOM     19  C   UNL     1       1.934   7.682  21.235  0.00  0.00    +0.000 A 
ATOM     20  C   UNL     1       1.056   8.719  21.668  0.00  0.00    +0.000 A 
ATOM     21  C   UNL     1       0.551   9.301  20.530  0.00  0.00    +0.000 A 
ATOM     22  O   UNL     1       1.093   8.705  19.446  0.00  0.00    +0.000 OA
BRANCH  21  23
ATOM     23  O   UNL     1      -0.306  10.272  20.225  0.00  0.00    +0.000 OA
BRANCH  23  24
ATOM     24  C   UNL     1       0.130  11.485  19.755  0.00  0.00    +0.000 A 
ATOM     25  C   UNL     1      -0.678  12.129  18.813  0.00  0.00    +0.000 A 
ATOM     26  C   UNL     1      -0.308  13.383  18.325  0.00  0.00    +0.000 A 
ATOM     27  C   UNL     1       0.859  13.995  18.786  0.00  0.00    +0.000 A 
ATOM     28  C   UNL     1       1.645  13.367  19.747  0.00  0.00    +0.000 A 
ATOM     29  C   UNL     1       1.272  12.119  20.242  0.00  0.00    +0.000 A 
ENDBRANCH  23  24
ENDBRANCH  21  23
ENDBRANCH   9  18
TORSDOF 4
ENDMDL
MODEL 8
REMARK VINA RESULT:      -7.7      3.349      9.659
REMARK  Name = 
REMARK  4 active torsions:
REMARK  status: ('A' for Active; 'I' for Inactive)
REMARK    1  A    between atoms: C_2  and  C_3
REMARK    2  A    between atoms: C_11  and  C_13
REMARK    3  A    between atoms: C_16  and  O_17
REMARK    4  A    between atoms: O_17  and  C_18
REMARK                            x       y       z     vdW  Elec       q    Type
REMARK                         _______ _______ _______ _____ _____    ______ ____
ROOT
ATOM      1  C   UNL     1       4.025   4.974  18.547  0.00  0.00    +0.000 C 
ATOM      2  C   UNL     1       4.358   3.806  19.502  0.00  0.00    +0.000 C 
ATOM      3  C   UNL     1       3.104   3.579  20.327  0.00  0.00    +0.000 C 
ATOM      4  O   UNL     1       2.178   2.682  19.718  0.00  0.00    +0.000 OA
ATOM      5  C   UNL     1       0.856   3.178  19.970  0.00  0.00    +0.000 C 
ATOM      6  C   UNL     1       0.960   4.623  20.413  0.00  0.00    +0.000 C 
ATOM      7  C   UNL     1       2.438   4.931  20.367  0.00  0.00    +0.000 C 
ATOM      8  N   UNL     1       2.855   5.625  19.150  0.00  0.00    +0.000 N 
ATOM      9  C   UNL     1       2.594   6.984  18.885  0.00  0.00    +0.000 C 
ATOM     10  O   UNL     1       2.935   7.471  17.806  0.00  0.00    +0.000 OA
ENDROOT
BRANCH   1  12
ATOM     11  O   UNL     1       3.264   3.715  16.659  0.00  0.00    +0.000 OA
ATOM     12  C   UNL     1       4.170   4.445  17.091  0.00  0.00    +0.000 C 
ATOM     13  N   UNL     1       5.109   4.948  16.222  0.00  0.00    +0.000 N 
ATOM     14  C   UNL     1       5.115   4.573  14.819  0.00  0.00    +0.000 C 
ATOM     15  C   UNL     1       6.531   4.063  14.624  0.00  0.00    +0.000 C 
ATOM     16  C   UNL     1       7.359   5.004  15.497  0.00  0.00    +0.000 C 
ATOM     17  C   UNL     1       6.388   5.526  16.559  0.00  0.00    +0.000 C 
ENDBRANCH   1  12
BRANCH   9  18
ATOM     18  C   UNL     1       1.918   7.771  19.916  0.00  0.00    +0.000 A 
ATOM     19  C   UNL     1       1.911   7.695  21.299  0.00  0.00    +0.000 A 
ATOM     20  C   UNL     1       1.045   8.727  21.768  0.00  0.00    +0.000 A 
ATOM     21  C   UNL     1       0.526   9.337  20.650  0.00  0.00    +0.000 A 
ATOM     22  O   UNL     1       1.049   8.762  19.546  0.00  0.00    +0.000 OA
BRANCH  21  23
ATOM     23  O   UNL     1      -0.329  10.319  20.379  0.00  0.00    +0.000 OA
BRANCH  23  24
ATOM     24  C   UNL     1      -0.415  11.430  21.178  0.00  0.00    +0.000 A 
ATOM     25  C   UNL     1       0.393  12.520  20.840  0.00  0.00    +0.000 A 
ATOM     26  C   UNL     1       0.323  13.693  21.592  0.00  0.00    +0.000 A 
ATOM     27  C   UNL     1      -0.559  13.780  22.670  0.00  0.00    +0.000 A 
ATOM     28  C   UNL     1      -1.387  12.707  22.985  0.00  0.00    +0.000 A 
ATOM     29  C   UNL     1      -1.325  11.538  22.229  0.00  0.00    +0.000 A 
ENDBRANCH  23  24
ENDBRANCH  21  23
ENDBRANCH   9  18
TORSDOF 4
ENDMDL
MODEL 9
REMARK VINA RESULT:      -7.6      3.527      9.724
REMARK  Name = 
REMARK  4 active torsions:
REMARK  status: ('A' for Active; 'I' for Inactive)
REMARK    1  A    between atoms: C_2  and  C_3
REMARK    2  A    between atoms: C_11  and  C_13
REMARK    3  A    between atoms: C_16  and  O_17
REMARK    4  A    between atoms: O_17  and  C_18
REMARK                            x       y       z     vdW  Elec       q    Type
REMARK                         _______ _______ _______ _____ _____    ______ ____
ROOT
ATOM      1  C   UNL     1       4.152   4.634  18.645  0.00  0.00    +0.000 C 
ATOM      2  C   UNL     1       4.354   3.496  19.671  0.00  0.00    +0.000 C 
ATOM      3  C   UNL     1       3.030   3.360  20.400  0.00  0.00    +0.000 C 
ATOM      4  O   UNL     1       2.113   2.478  19.756  0.00  0.00    +0.000 OA
ATOM      5  C   UNL     1       0.800   3.042  19.880  0.00  0.00    +0.000 C 
ATOM      6  C   UNL     1       0.936   4.499  20.272  0.00  0.00    +0.000 C 
ATOM      7  C   UNL     1       2.426   4.740  20.333  0.00  0.00    +0.000 C 
ATOM      8  N   UNL     1       2.969   5.361  19.126  0.00  0.00    +0.000 N 
ATOM      9  C   UNL     1       2.794   6.717  18.786  0.00  0.00    +0.000 C 
ATOM     10  O   UNL     1       3.241   7.141  17.719  0.00  0.00    +0.000 OA
ENDROOT
BRANCH   1  12
ATOM     11  O   UNL     1       3.694   3.058  16.903  0.00  0.00    +0.000 OA
ATOM     12  C   UNL     1       4.385   4.036  17.228  0.00  0.00    +0.000 C 
ATOM     13  N   UNL     1       5.127   4.689  16.273  0.00  0.00    +0.000 N 
ATOM     14  C   UNL     1       5.188   4.208  14.905  0.00  0.00    +0.000 C 
ATOM     15  C   UNL     1       6.681   4.074  14.673  0.00  0.00    +0.000 C 
ATOM     16  C   UNL     1       7.256   5.272  15.425  0.00  0.00    +0.000 C 
ATOM     17  C   UNL     1       6.215   5.612  16.495  0.00  0.00    +0.000 C 
ENDBRANCH   1  12
BRANCH   9  18
ATOM     18  C   UNL     1       2.077   7.577  19.727  0.00  0.00    +0.000 A 
ATOM     19  C   UNL     1       1.786   7.454  21.076  0.00  0.00    +0.000 A 
ATOM     20  C   UNL     1       1.039   8.610  21.447  0.00  0.00    +0.000 A 
ATOM     21  C   UNL     1       0.861   9.345  20.299  0.00  0.00    +0.000 A 
ATOM     22  O   UNL     1       1.481   8.724  19.272  0.00  0.00    +0.000 OA
BRANCH  21  23
ATOM     23  O   UNL     1       0.259  10.476  19.944  0.00  0.00    +0.000 OA
BRANCH  23  24
ATOM     24  C   UNL     1       0.967  11.639  19.778  0.00  0.00    +0.000 A 
ATOM     25  C   UNL     1       1.082  12.478  20.891  0.00  0.00    +0.000 A 
ATOM     26  C   UNL     1       1.822  13.657  20.796  0.00  0.00    +0.000 A 
ATOM     27  C   UNL     1       2.454  13.990  19.597  0.00  0.00    +0.000 A 
ATOM     28  C   UNL     1       2.367  13.139  18.500  0.00  0.00    +0.000 A 
ATOM     29  C   UNL     1       1.635  11.956  18.596  0.00  0.00    +0.000 A 
ENDBRANCH  23  24
ENDBRANCH  21  23
ENDBRANCH   9  18
TORSDOF 4
ENDMDL
