MODEL 1
REMARK VINA RESULT:      -7.9      0.000      0.000
REMARK  Name = 
REMARK  5 active torsions:
REMARK  status: ('A' for Active; 'I' for Inactive)
REMARK    1  A    between atoms: C_1  and  O_2
REMARK    2  A    between atoms: O_2  and  C_3
REMARK    3  A    between atoms: C_7  and  C_8
REMARK    4  A    between atoms: C_11  and  O_12
REMARK    5  A    between atoms: C_13  and  C_14
REMARK                            x       y       z     vdW  Elec       q    Type
REMARK                         _______ _______ _______ _____ _____    ______ ____
ROOT
ATOM      1  C   UNL     1       1.812   6.389  20.331  0.00  0.00    +0.000 A 
ATOM      2  C   UNL     1       2.678   6.927  19.393  0.00  0.00    +0.000 A 
ATOM      3  C   UNL     1       3.347   6.082  18.506  0.00  0.00    +0.000 A 
ATOM      4  C   UNL     1       3.228   4.673  18.571  0.00  0.00    +0.000 A 
ATOM      5  C   UNL     1       3.973   3.750  17.764  0.00  0.00    +0.000 A 
ATOM      6  C   UNL     1       3.678   2.384  17.905  0.00  0.00    +0.000 A 
ATOM      7  C   UNL     1       2.711   1.985  18.807  0.00  0.00    +0.000 A 
ATOM      8  N   UNL     1       2.037   2.832  19.603  0.00  0.00    +0.000 NA
ATOM      9  C   UNL     1       2.299   4.143  19.500  0.00  0.00    +0.000 A 
ATOM     10  C   UNL     1       1.616   5.007  20.350  0.00  0.00    +0.000 A 
ENDROOT
BRANCH   5  11
ATOM     11  C   UNL     1       5.048   4.156  16.810  0.00  0.00    +0.000 A 
ATOM     12  C   UNL     1       6.186   4.868  17.226  0.00  0.00    +0.000 A 
ATOM     13  C   UNL     1       7.150   5.317  16.317  0.00  0.00    +0.000 A 
ATOM     14  C   UNL     1       7.044   4.973  14.974  0.00  0.00    +0.000 A 
ATOM     15  C   UNL     1       5.985   4.186  14.526  0.00  0.00    +0.000 A 
ATOM     16  C   UNL     1       5.893   3.695  13.110  0.00  0.00    +0.000 C 
ATOM     17  C   UNL     1       4.984   3.810  15.444  0.00  0.00    +0.000 A 
BRANCH  14  18
ATOM     18  O   UNL     1       7.986   5.397  14.084  0.00  0.00    +0.000 OA
ATOM     19  H   UNL     1       8.621   5.969  14.546  0.00  0.00    +0.000 HD
ENDBRANCH  14  18
ENDBRANCH   5  11
BRANCH   1  21
ATOM     20  C   UNL     1       1.158   8.520  21.145  0.00  0.00    +0.000 C 
ATOM     21  O   UNL     1       1.101   7.102  21.256  0.00  0.00    +0.000 OA
ENDBRANCH   1  21
TORSDOF 3
ENDMDL
MODEL 2
REMARK VINA RESULT:      -7.9      2.633      6.845
REMARK  Name = 
REMARK  5 active torsions:
REMARK  status: ('A' for Active; 'I' for Inactive)
REMARK    1  A    between atoms: C_1  and  O_2
REMARK    2  A    between atoms: O_2  and  C_3
REMARK    3  A    between atoms: C_7  and  C_8
REMARK    4  A    between atoms: C_11  and  O_12
REMARK    5  A    between atoms: C_13  and  C_14
REMARK                            x       y       z     vdW  Elec       q    Type
REMARK                         _______ _______ _______ _____ _____    ______ ____
ROOT
ATOM      1  C   UNL     1       6.662   4.604  14.210  0.00  0.00    +0.000 A 
ATOM      2  C   UNL     1       5.343   4.231  14.415  0.00  0.00    +0.000 A 
ATOM      3  C   UNL     1       4.793   4.317  15.694  0.00  0.00    +0.000 A 
ATOM      4  C   UNL     1       5.555   4.711  16.820  0.00  0.00    +0.000 A 
ATOM      5  C   UNL     1       5.078   4.713  18.173  0.00  0.00    +0.000 A 
ATOM      6  C   UNL     1       5.944   5.205  19.163  0.00  0.00    +0.000 A 
ATOM      7  C   UNL     1       7.203   5.648  18.808  0.00  0.00    +0.000 A 
ATOM      8  N   UNL     1       7.682   5.611  17.553  0.00  0.00    +0.000 NA
ATOM      9  C   UNL     1       6.885   5.140  16.584  0.00  0.00    +0.000 A 
ATOM     10  C   UNL     1       7.402   5.079  15.294  0.00  0.00    +0.000 A 
ENDROOT
BRANCH   5  11
ATOM     11  C   UNL     1       3.736   4.204  18.584  0.00  0.00    +0.000 A 
ATOM     12  C   UNL     1       2.650   4.154  17.693  0.00  0.00    +0.000 A 
ATOM     13  C   UNL     1       1.375   3.753  18.103  0.00  0.00    +0.000 A 
ATOM     14  C   UNL     1       1.181   3.295  19.401  0.00  0.00    +0.000 A 
ATOM     15  C   UNL     1       2.246   3.233  20.297  0.00  0.00    +0.000 A 
ATOM     16  C   UNL     1       2.108   2.638  21.669  0.00  0.00    +0.000 C 
ATOM     17  C   UNL     1       3.505   3.715  19.887  0.00  0.00    +0.000 A 
BRANCH  14  18
ATOM     18  O   UNL     1      -0.058   2.892  19.805  0.00  0.00    +0.000 OA
ATOM     19  H   UNL     1      -0.514   2.478  19.054  0.00  0.00    +0.000 HD
ENDBRANCH  14  18
ENDBRANCH   5  11
BRANCH   1  21
ATOM     20  C   UNL     1       6.831   3.639  12.049  0.00  0.00    +0.000 C 
ATOM     21  O   UNL     1       7.321   4.564  13.013  0.00  0.00    +0.000 OA
ENDBRANCH   1  21
TORSDOF 3
ENDMDL
MODEL 3
REMARK VINA RESULT:      -7.8      2.210      6.848
REMARK  Name = 
REMARK  5 active torsions:
REMARK  status: ('A' for Active; 'I' for Inactive)
REMARK    1  A    between atoms: C_1  and  O_2
REMARK    2  A    between atoms: O_2  and  C_3
REMARK    3  A    between atoms: C_7  and  C_8
REMARK    4  A    between atoms: C_11  and  O_12
REMARK    5  A    between atoms: C_13  and  C_14
REMARK                            x       y       z     vdW  Elec       q    Type
REMARK                         _______ _______ _______ _____ _____    ______ ____
ROOT
ATOM      1  C   UNL     1       6.318   4.256  14.377  0.00  0.00    +0.000 A 
ATOM      2  C   UNL     1       5.091   3.870  14.890  0.00  0.00    +0.000 A 
ATOM      3  C   UNL     1       4.797   4.112  16.233  0.00  0.00    +0.000 A 
ATOM      4  C   UNL     1       5.740   4.681  17.121  0.00  0.00    +0.000 A 
ATOM      5  C   UNL     1       5.539   4.852  18.532  0.00  0.00    +0.000 A 
ATOM      6  C   UNL     1       6.551   5.503  19.255  0.00  0.00    +0.000 A 
ATOM      7  C   UNL     1       7.686   5.936  18.600  0.00  0.00    +0.000 A 
ATOM      8  N   UNL     1       7.912   5.745  17.289  0.00  0.00    +0.000 NA
ATOM      9  C   UNL     1       6.970   5.118  16.569  0.00  0.00    +0.000 A 
ATOM     10  C   UNL     1       7.227   4.900  15.220  0.00  0.00    +0.000 A 
ENDROOT
BRANCH   5  11
ATOM     11  C   UNL     1       4.336   4.359  19.267  0.00  0.00    +0.000 A 
ATOM     12  C   UNL     1       4.187   3.011  19.638  0.00  0.00    +0.000 A 
ATOM     13  C   UNL     1       3.023   2.539  20.254  0.00  0.00    +0.000 A 
ATOM     14  C   UNL     1       2.018   3.432  20.605  0.00  0.00    +0.000 A 
ATOM     15  C   UNL     1       2.159   4.794  20.348  0.00  0.00    +0.000 A 
ATOM     16  C   UNL     1       1.153   5.807  20.812  0.00  0.00    +0.000 C 
ATOM     17  C   UNL     1       3.304   5.238  19.656  0.00  0.00    +0.000 A 
BRANCH  14  18
ATOM     18  O   UNL     1       0.886   2.980  21.216  0.00  0.00    +0.000 OA
ATOM     19  H   UNL     1       0.126   3.144  20.635  0.00  0.00    +0.000 HD
ENDBRANCH  14  18
ENDBRANCH   5  11
BRANCH   1  21
ATOM     20  C   UNL     1       5.878   3.304  12.249  0.00  0.00    +0.000 C 
ATOM     21  O   UNL     1       6.732   4.076  13.086  0.00  0.00    +0.000 OA
ENDBRANCH   1  21
TORSDOF 3
ENDMDL
MODEL 4
REMARK VINA RESULT:      -7.7      1.781      6.552
REMARK  Name = 
REMARK  5 active torsions:
REMARK  status: ('A' for Active; 'I' for Inactive)
REMARK    1  A    between atoms: C_1  and  O_2
REMARK    2  A    between atoms: O_2  and  C_3
REMARK    3  A    between atoms: C_7  and  C_8
REMARK    4  A    between atoms: C_11  and  O_12
REMARK    5  A    between atoms: C_13  and  C_14
REMARK                            x       y       z     vdW  Elec       q    Type
REMARK                         _______ _______ _______ _____ _____    ______ ____
ROOT
ATOM      1  C   UNL     1       6.327   5.170  16.121  0.00  0.00    +0.000 A 
ATOM      2  C   UNL     1       6.056   6.441  16.601  0.00  0.00    +0.000 A 
ATOM      3  C   UNL     1       4.895   6.666  17.342  0.00  0.00    +0.000 A 
ATOM      4  C   UNL     1       3.935   5.650  17.568  0.00  0.00    +0.000 A 
ATOM      5  C   UNL     1       2.674   5.846  18.224  0.00  0.00    +0.000 A 
ATOM      6  C   UNL     1       1.870   4.713  18.431  0.00  0.00    +0.000 A 
ATOM      7  C   UNL     1       2.307   3.479  17.994  0.00  0.00    +0.000 A 
ATOM      8  N   UNL     1       3.464   3.284  17.339  0.00  0.00    +0.000 NA
ATOM      9  C   UNL     1       4.252   4.346  17.116  0.00  0.00    +0.000 A 
ATOM     10  C   UNL     1       5.433   4.137  16.411  0.00  0.00    +0.000 A 
ENDROOT
BRANCH   5  11
ATOM     11  C   UNL     1       2.165   7.177  18.671  0.00  0.00    +0.000 A 
ATOM     12  C   UNL     1       1.928   8.228  17.770  0.00  0.00    +0.000 A 
ATOM     13  C   UNL     1       1.529   9.498  18.202  0.00  0.00    +0.000 A 
ATOM     14  C   UNL     1       1.261   9.714  19.549  0.00  0.00    +0.000 A 
ATOM     15  C   UNL     1       1.387   8.677  20.472  0.00  0.00    +0.000 A 
ATOM     16  C   UNL     1       0.998   8.835  21.913  0.00  0.00    +0.000 C 
ATOM     17  C   UNL     1       1.865   7.429  20.026  0.00  0.00    +0.000 A 
BRANCH  14  18
ATOM     18  O   UNL     1       0.861  10.946  19.975  0.00  0.00    +0.000 OA
ATOM     19  H   UNL     1       0.690  10.908  20.931  0.00  0.00    +0.000 HD
ENDBRANCH  14  18
ENDBRANCH   5  11
BRANCH   1  21
ATOM     20  C   UNL     1       7.256   4.805  13.968  0.00  0.00    +0.000 C 
ATOM     21  O   UNL     1       7.422   4.817  15.382  0.00  0.00    +0.000 OA
ENDBRANCH   1  21
TORSDOF 3
ENDMDL
MODEL 5
REMARK VINA RESULT:      -7.6      2.168      6.670
REMARK  Name = 
REMARK  5 active torsions:
REMARK  status: ('A' for Active; 'I' for Inactive)
REMARK    1  A    between atoms: C_1  and  O_2
REMARK    2  A    between atoms: O_2  and  C_3
REMARK    3  A    between atoms: C_7  and  C_8
REMARK    4  A    between atoms: C_11  and  O_12
REMARK    5  A    between atoms: C_13  and  C_14
REMARK                            x       y       z     vdW  Elec       q    Type
REMARK                         _______ _______ _______ _____ _____    ______ ____
ROOT
ATOM      1  C   UNL     1       6.505   4.499  14.324  0.00  0.00    +0.000 A 
ATOM      2  C   UNL     1       5.189   4.242  14.673  0.00  0.00    +0.000 A 
ATOM      3  C   UNL     1       4.772   4.447  15.988  0.00  0.00    +0.000 A 
ATOM      4  C   UNL     1       5.665   4.846  17.011  0.00  0.00    +0.000 A 
ATOM      5  C   UNL     1       5.322   4.965  18.399  0.00  0.00    +0.000 A 
ATOM      6  C   UNL     1       6.313   5.444  19.271  0.00  0.00    +0.000 A 
ATOM      7  C   UNL     1       7.560   5.765  18.774  0.00  0.00    +0.000 A 
ATOM      8  N   UNL     1       7.913   5.618  17.486  0.00  0.00    +0.000 NA
ATOM      9  C   UNL     1       6.994   5.154  16.627  0.00  0.00    +0.000 A 
ATOM     10  C   UNL     1       7.379   4.977  15.302  0.00  0.00    +0.000 A 
ENDROOT
BRANCH   5  11
ATOM     11  C   UNL     1       3.992   4.588  18.963  0.00  0.00    +0.000 A 
ATOM     12  C   UNL     1       3.255   5.458  19.785  0.00  0.00    +0.000 A 
ATOM     13  C   UNL     1       2.048   5.070  20.377  0.00  0.00    +0.000 A 
ATOM     14  C   UNL     1       1.500   3.829  20.075  0.00  0.00    +0.000 A 
ATOM     15  C   UNL     1       2.143   2.967  19.189  0.00  0.00    +0.000 A 
ATOM     16  C   UNL     1       1.532   1.669  18.746  0.00  0.00    +0.000 C 
ATOM     17  C   UNL     1       3.395   3.345  18.666  0.00  0.00    +0.000 A 
BRANCH  14  18
ATOM     18  O   UNL     1       0.317   3.450  20.639  0.00  0.00    +0.000 OA
ATOM     19  H   UNL     1      -0.036   2.689  20.150  0.00  0.00    +0.000 HD
ENDBRANCH  14  18
ENDBRANCH   5  11
BRANCH   1  21
ATOM     20  C   UNL     1       6.378   3.419  12.215  0.00  0.00    +0.000 C 
ATOM     21  O   UNL     1       7.042   4.337  13.077  0.00  0.00    +0.000 OA
ENDBRANCH   1  21
TORSDOF 3
ENDMDL
MODEL 6
REMARK VINA RESULT:      -7.5      1.138      1.252
REMARK  Name = 
REMARK  5 active torsions:
REMARK  status: ('A' for Active; 'I' for Inactive)
REMARK    1  A    between atoms: C_1  and  O_2
REMARK    2  A    between atoms: O_2  and  C_3
REMARK    3  A    between atoms: C_7  and  C_8
REMARK    4  A    between atoms: C_11  and  O_12
REMARK    5  A    between atoms: C_13  and  C_14
REMARK                            x       y       z     vdW  Elec       q    Type
REMARK                         _______ _______ _______ _____ _____    ______ ____
ROOT
ATOM      1  C   UNL     1       1.465   7.690  20.203  0.00  0.00    +0.000 A 
ATOM      2  C   UNL     1       2.248   7.960  19.092  0.00  0.00    +0.000 A 
ATOM      3  C   UNL     1       3.051   6.954  18.553  0.00  0.00    +0.000 A 
ATOM      4  C   UNL     1       3.153   5.672  19.144  0.00  0.00    +0.000 A 
ATOM      5  C   UNL     1       4.042   4.635  18.704  0.00  0.00    +0.000 A 
ATOM      6  C   UNL     1       3.964   3.395  19.358  0.00  0.00    +0.000 A 
ATOM      7  C   UNL     1       3.061   3.225  20.389  0.00  0.00    +0.000 A 
ATOM      8  N   UNL     1       2.253   4.197  20.843  0.00  0.00    +0.000 NA
ATOM      9  C   UNL     1       2.308   5.397  20.247  0.00  0.00    +0.000 A 
ATOM     10  C   UNL     1       1.488   6.404  20.746  0.00  0.00    +0.000 A 
ENDROOT
BRANCH   5  11
ATOM     11  C   UNL     1       5.052   4.809  17.617  0.00  0.00    +0.000 A 
ATOM     12  C   UNL     1       6.313   5.382  17.853  0.00  0.00    +0.000 A 
ATOM     13  C   UNL     1       7.223   5.618  16.817  0.00  0.00    +0.000 A 
ATOM     14  C   UNL     1       6.927   5.189  15.529  0.00  0.00    +0.000 A 
ATOM     15  C   UNL     1       5.730   4.528  15.260  0.00  0.00    +0.000 A 
ATOM     16  C   UNL     1       5.420   3.946  13.911  0.00  0.00    +0.000 C 
ATOM     17  C   UNL     1       4.794   4.371  16.302  0.00  0.00    +0.000 A 
BRANCH  14  18
ATOM     18  O   UNL     1       7.815   5.405  14.516  0.00  0.00    +0.000 OA
ATOM     19  H   UNL     1       8.650   5.728  14.893  0.00  0.00    +0.000 HD
ENDBRANCH  14  18
ENDBRANCH   5  11
BRANCH   1  21
ATOM     20  C   UNL     1       1.006   8.967  22.151  0.00  0.00    +0.000 C 
ATOM     21  O   UNL     1       0.641   8.583  20.829  0.00  0.00    +0.000 OA
ENDBRANCH   1  21
TORSDOF 3
ENDMDL
MODEL 7
REMARK VINA RESULT:      -7.5      1.779      6.440
REMARK  Name = 
REMARK  5 active torsions:
REMARK  status: ('A' for Active; 'I' for Inactive)
REMARK    1  A    between atoms: C_1  and  O_2
REMARK    2  A    between atoms: O_2  and  C_3
REMARK    3  A    between atoms: C_7  and  C_8
REMARK    4  A    between atoms: C_11  and  O_12
REMARK    5  A    between atoms: C_13  and  C_14
REMARK                            x       y       z     vdW  Elec       q    Type
REMARK                         _______ _______ _______ _____ _____    ______ ____
ROOT
ATOM      1  C   UNL     1       6.386   5.483  16.029  0.00  0.00    +0.000 A 
ATOM      2  C   UNL     1       6.098   6.630  16.752  0.00  0.00    +0.000 A 
ATOM      3  C   UNL     1       4.938   6.686  17.525  0.00  0.00    +0.000 A 
ATOM      4  C   UNL     1       3.994   5.631  17.548  0.00  0.00    +0.000 A 
ATOM      5  C   UNL     1       2.733   5.673  18.231  0.00  0.00    +0.000 A 
ATOM      6  C   UNL     1       1.948   4.510  18.212  0.00  0.00    +0.000 A 
ATOM      7  C   UNL     1       2.402   3.393  17.539  0.00  0.00    +0.000 A 
ATOM      8  N   UNL     1       3.558   3.350  16.856  0.00  0.00    +0.000 NA
ATOM      9  C   UNL     1       4.329   4.447  16.846  0.00  0.00    +0.000 A 
ATOM     10  C   UNL     1       5.509   4.400  16.111  0.00  0.00    +0.000 A 
ENDROOT
BRANCH   5  11
ATOM     11  C   UNL     1       2.207   6.882  18.934  0.00  0.00    +0.000 A 
ATOM     12  C   UNL     1       1.909   6.878  20.307  0.00  0.00    +0.000 A 
ATOM     13  C   UNL     1       1.340   7.987  20.943  0.00  0.00    +0.000 A 
ATOM     14  C   UNL     1       1.150   9.166  20.232  0.00  0.00    +0.000 A 
ATOM     15  C   UNL     1       1.519   9.253  18.891  0.00  0.00    +0.000 A 
ATOM     16  C   UNL     1       1.439  10.538  18.118  0.00  0.00    +0.000 C 
ATOM     17  C   UNL     1       2.018   8.101  18.250  0.00  0.00    +0.000 A 
BRANCH  14  18
ATOM     18  O   UNL     1       0.607  10.255  20.849  0.00  0.00    +0.000 OA
ATOM     19  H   UNL     1       0.899  11.057  20.387  0.00  0.00    +0.000 HD
ENDBRANCH  14  18
ENDBRANCH   5  11
BRANCH   1  21
ATOM     20  C   UNL     1       7.233   4.868  13.900  0.00  0.00    +0.000 C 
ATOM     21  O   UNL     1       7.482   5.301  15.233  0.00  0.00    +0.000 OA
ENDBRANCH   1  21
TORSDOF 3
ENDMDL
MODEL 8
REMARK VINA RESULT:      -7.4      1.781      2.413
REMARK  Name = 
REMARK  5 active torsions:
REMARK  status: ('A' for Active; 'I' for Inactive)
REMARK    1  A    between atoms: C_1  and  O_2
REMARK    2  A    between atoms: O_2  and  C_3
REMARK    3  A    between atoms: C_7  and  C_8
REMARK    4  A    between atoms: C_11  and  O_12
REMARK    5  A    between atoms: C_13  and  C_14
REMARK                            x       y       z     vdW  Elec       q    Type
REMARK                         _______ _______ _______ _____ _____    ______ ____
ROOT
ATOM      1  C   UNL     1       1.311   9.298  19.109  0.00  0.00    +0.000 A 
ATOM      2  C   UNL     1       2.180   9.242  18.031  0.00  0.00    +0.000 A 
ATOM      3  C   UNL     1       2.951   8.097  17.826  0.00  0.00    +0.000 A 
ATOM      4  C   UNL     1       2.933   7.003  18.724  0.00  0.00    +0.000 A 
ATOM      5  C   UNL     1       3.782   5.850  18.629  0.00  0.00    +0.000 A 
ATOM      6  C   UNL     1       3.582   4.821  19.563  0.00  0.00    +0.000 A 
ATOM      7  C   UNL     1       2.604   4.958  20.529  0.00  0.00    +0.000 A 
ATOM      8  N   UNL     1       1.831   6.049  20.660  0.00  0.00    +0.000 NA
ATOM      9  C   UNL     1       2.001   7.055  19.790  0.00  0.00    +0.000 A 
ATOM     10  C   UNL     1       1.216   8.191  19.955  0.00  0.00    +0.000 A 
ENDROOT
BRANCH   5  11
ATOM     11  C   UNL     1       4.870   5.698  17.618  0.00  0.00    +0.000 A 
ATOM     12  C   UNL     1       6.173   6.171  17.844  0.00  0.00    +0.000 A 
ATOM     13  C   UNL     1       7.167   6.099  16.862  0.00  0.00    +0.000 A 
ATOM     14  C   UNL     1       6.902   5.456  15.660  0.00  0.00    +0.000 A 
ATOM     15  C   UNL     1       5.654   4.883  15.422  0.00  0.00    +0.000 A 
ATOM     16  C   UNL     1       5.360   4.080  14.188  0.00  0.00    +0.000 C 
ATOM     17  C   UNL     1       4.643   5.035  16.393  0.00  0.00    +0.000 A 
BRANCH  14  18
ATOM     18  O   UNL     1       7.870   5.371  14.702  0.00  0.00    +0.000 OA
ATOM     19  H   UNL     1       8.687   5.039  15.109  0.00  0.00    +0.000 HD
ENDBRANCH  14  18
ENDBRANCH   5  11
BRANCH   1  21
ATOM     20  C   UNL     1       0.360  10.653  20.808  0.00  0.00    +0.000 C 
ATOM     21  O   UNL     1       0.505  10.356  19.424  0.00  0.00    +0.000 OA
ENDBRANCH   1  21
TORSDOF 3
ENDMDL
MODEL 9
REMARK VINA RESULT:      -7.2      3.933      5.881
REMARK  Name = 
REMARK  5 active torsions:
REMARK  status: ('A' for Active; 'I' for Inactive)
REMARK    1  A    between atoms: C_1  and  O_2
REMARK    2  A    between atoms: O_2  and  C_3
REMARK    3  A    between atoms: C_7  and  C_8
REMARK    4  A    between atoms: C_11  and  O_12
REMARK    5  A    between atoms: C_13  and  C_14
REMARK                            x       y       z     vdW  Elec       q    Type
REMARK                         _______ _______ _______ _____ _____    ______ ____
ROOT
ATOM      1  C   UNL     1       0.180  10.284  22.205  0.00  0.00    +0.000 A 
ATOM      2  C   UNL     1       0.730   9.082  22.621  0.00  0.00    +0.000 A 
ATOM      3  C   UNL     1       1.389   8.269  21.698  0.00  0.00    +0.000 A 
ATOM      4  C   UNL     1       1.461   8.594  20.322  0.00  0.00    +0.000 A 
ATOM      5  C   UNL     1       2.025   7.749  19.309  0.00  0.00    +0.000 A 
ATOM      6  C   UNL     1       2.083   8.257  18.001  0.00  0.00    +0.000 A 
ATOM      7  C   UNL     1       1.592   9.521  17.739  0.00  0.00    +0.000 A 
ATOM      8  N   UNL     1       1.019  10.307  18.666  0.00  0.00    +0.000 NA
ATOM      9  C   UNL     1       0.940   9.850  19.924  0.00  0.00    +0.000 A 
ATOM     10  C   UNL     1       0.319  10.661  20.868  0.00  0.00    +0.000 A 
ENDROOT
BRANCH   5  11
ATOM     11  C   UNL     1       2.527   6.365  19.563  0.00  0.00    +0.000 A 
ATOM     12  C   UNL     1       3.822   5.960  19.196  0.00  0.00    +0.000 A 
ATOM     13  C   UNL     1       4.259   4.642  19.362  0.00  0.00    +0.000 A 
ATOM     14  C   UNL     1       3.437   3.718  19.996  0.00  0.00    +0.000 A 
ATOM     15  C   UNL     1       2.180   4.094  20.467  0.00  0.00    +0.000 A 
ATOM     16  C   UNL     1       1.309   3.163  21.259  0.00  0.00    +0.000 C 
ATOM     17  C   UNL     1       1.729   5.406  20.220  0.00  0.00    +0.000 A 
BRANCH  14  18
ATOM     18  O   UNL     1       3.862   2.434  20.172  0.00  0.00    +0.000 OA
ATOM     19  H   UNL     1       3.464   1.874  19.486  0.00  0.00    +0.000 HD
ENDBRANCH  14  18
ENDBRANCH   5  11
BRANCH   1  21
ATOM     20  C   UNL     1      -1.181  12.223  22.342  0.00  0.00    +0.000 C 
ATOM     21  O   UNL     1      -0.492  11.168  23.004  0.00  0.00    +0.000 OA
ENDBRANCH   1  21
TORSDOF 3
ENDMDL
