MODEL 1
REMARK VINA RESULT:      -6.7      0.000      0.000
REMARK  Name = 
REMARK  2 active torsions:
REMARK  status: ('A' for Active; 'I' for Inactive)
REMARK    1  A    between atoms: C_1  and  C_2
REMARK    2  A    between atoms: C_7  and  C_8
REMARK                            x       y       z     vdW  Elec       q    Type
REMARK                         _______ _______ _______ _____ _____    ______ ____
ROOT
ATOM      1  C   UNL     1       7.848   7.939  17.279  0.00  0.00    +0.000 C 
ATOM      2  C   UNL     1       6.745   6.947  17.411  0.00  0.00    +0.000 C 
ATOM      3  N   UNL     1       6.937   5.878  18.115  0.00  0.00    +0.000 NA
ATOM      4  N   UNL     1       5.692   5.314  18.282  0.00  0.00    +0.000 N 
ATOM      5  C   UNL     1       5.510   4.119  17.553  0.00  0.00    +0.000 C 
ATOM      6  O   UNL     1       6.202   3.783  16.586  0.00  0.00    +0.000 OA
ATOM      7  C   UNL     1       4.395   3.272  18.071  0.00  0.00    +0.000 C 
ATOM      8  C   UNL     1       4.599   2.997  19.569  0.00  0.00    +0.000 C 
ATOM      9  O   UNL     1       3.135   3.814  17.664  0.00  0.00    +0.000 OA
ATOM     10  C   UNL     1       2.673   4.818  18.458  0.00  0.00    +0.000 A 
ATOM     11  C   UNL     1       1.600   4.500  19.314  0.00  0.00    +0.000 A 
ATOM     12 BR   UNL     1       0.861   2.747  19.388  0.00  0.00    +0.000 Br
ATOM     13  C   UNL     1       1.138   5.428  20.240  0.00  0.00    +0.000 A 
ATOM     14  C   UNL     1       1.643   6.720  20.200  0.00  0.00    +0.000 A 
ATOM     15 BR   UNL     1       1.117   7.965  21.523  0.00  0.00    +0.000 Br
ATOM     16  C   UNL     1       2.634   7.074  19.280  0.00  0.00    +0.000 A 
ATOM     17  C   UNL     1       3.264   6.095  18.475  0.00  0.00    +0.000 A 
ATOM     18  C   UNL     1       4.704   6.395  18.091  0.00  0.00    +0.000 C 
ATOM     19  C   UNL     1       5.320   7.143  16.910  0.00  0.00    +0.000 C 
ENDROOT
TORSDOF 0
ENDMDL
MODEL 2
REMARK VINA RESULT:      -6.5      2.872      4.657
REMARK  Name = 
REMARK  2 active torsions:
REMARK  status: ('A' for Active; 'I' for Inactive)
REMARK    1  A    between atoms: C_1  and  C_2
REMARK    2  A    between atoms: C_7  and  C_8
REMARK                            x       y       z     vdW  Elec       q    Type
REMARK                         _______ _______ _______ _____ _____    ______ ____
ROOT
ATOM      1  C   UNL     1       0.848   2.274  22.417  0.00  0.00    +0.000 C 
ATOM      2  C   UNL     1       1.803   2.834  21.421  0.00  0.00    +0.000 C 
ATOM      3  N   UNL     1       1.780   2.391  20.205  0.00  0.00    +0.000 NA
ATOM      4  N   UNL     1       2.553   3.267  19.476  0.00  0.00    +0.000 N 
ATOM      5  C   UNL     1       3.782   2.719  19.052  0.00  0.00    +0.000 C 
ATOM      6  O   UNL     1       4.311   1.724  19.559  0.00  0.00    +0.000 OA
ATOM      7  C   UNL     1       4.395   3.452  17.905  0.00  0.00    +0.000 C 
ATOM      8  C   UNL     1       3.389   3.548  16.748  0.00  0.00    +0.000 C 
ATOM      9  O   UNL     1       4.996   4.667  18.362  0.00  0.00    +0.000 OA
ATOM     10  C   UNL     1       4.129   5.707  18.496  0.00  0.00    +0.000 A 
ATOM     11  C   UNL     1       4.204   6.720  17.521  0.00  0.00    +0.000 A 
ATOM     12 BR   UNL     1       5.428   6.622  16.065  0.00  0.00    +0.000 Br
ATOM     13  C   UNL     1       3.283   7.761  17.512  0.00  0.00    +0.000 A 
ATOM     14  C   UNL     1       2.390   7.872  18.568  0.00  0.00    +0.000 A 
ATOM     15 BR   UNL     1       1.052   9.207  18.519  0.00  0.00    +0.000 Br
ATOM     16  C   UNL     1       2.378   6.927  19.599  0.00  0.00    +0.000 A 
ATOM     17  C   UNL     1       3.162   5.751  19.518  0.00  0.00    +0.000 A 
ATOM     18  C   UNL     1       2.587   4.536  20.230  0.00  0.00    +0.000 C 
ATOM     19  C   UNL     1       2.731   4.018  21.660  0.00  0.00    +0.000 C 
ENDROOT
TORSDOF 0
ENDMDL
MODEL 3
REMARK VINA RESULT:      -6.1      3.445      5.743
REMARK  Name = 
REMARK  2 active torsions:
REMARK  status: ('A' for Active; 'I' for Inactive)
REMARK    1  A    between atoms: C_1  and  C_2
REMARK    2  A    between atoms: C_7  and  C_8
REMARK                            x       y       z     vdW  Elec       q    Type
REMARK                         _______ _______ _______ _____ _____    ______ ____
ROOT
ATOM      1  C   UNL     1       0.736   1.750  18.575  0.00  0.00    +0.000 C 
ATOM      2  C   UNL     1       1.742   2.846  18.523  0.00  0.00    +0.000 C 
ATOM      3  N   UNL     1       2.788   2.780  19.284  0.00  0.00    +0.000 NA
ATOM      4  N   UNL     1       3.644   3.757  18.824  0.00  0.00    +0.000 N 
ATOM      5  C   UNL     1       3.774   4.854  19.701  0.00  0.00    +0.000 C 
ATOM      6  O   UNL     1       2.963   5.132  20.591  0.00  0.00    +0.000 OA
ATOM      7  C   UNL     1       5.006   5.662  19.463  0.00  0.00    +0.000 C 
ATOM      8  C   UNL     1       6.244   4.752  19.508  0.00  0.00    +0.000 C 
ATOM      9  O   UNL     1       4.837   6.492  18.310  0.00  0.00    +0.000 OA
ATOM     10  C   UNL     1       5.081   5.866  17.127  0.00  0.00    +0.000 A 
ATOM     11  C   UNL     1       6.282   6.202  16.472  0.00  0.00    +0.000 A 
ATOM     12 BR   UNL     1       7.521   7.438  17.223  0.00  0.00    +0.000 Br
ATOM     13  C   UNL     1       6.668   5.531  15.318  0.00  0.00    +0.000 A 
ATOM     14  C   UNL     1       5.780   4.638  14.736  0.00  0.00    +0.000 A 
ATOM     15 BR   UNL     1       6.328   3.626  13.235  0.00  0.00    +0.000 Br
ATOM     16  C   UNL     1       4.538   4.376  15.322  0.00  0.00    +0.000 A 
ATOM     17  C   UNL     1       4.215   4.888  16.602  0.00  0.00    +0.000 A 
ATOM     18  C   UNL     1       3.264   4.033  17.424  0.00  0.00    +0.000 C 
ATOM     19  C   UNL     1       1.740   3.998  17.527  0.00  0.00    +0.000 C 
ENDROOT
TORSDOF 0
ENDMDL
MODEL 4
REMARK VINA RESULT:      -6.1      7.765     10.495
REMARK  Name = 
REMARK  2 active torsions:
REMARK  status: ('A' for Active; 'I' for Inactive)
REMARK    1  A    between atoms: C_1  and  C_2
REMARK    2  A    between atoms: C_7  and  C_8
REMARK                            x       y       z     vdW  Elec       q    Type
REMARK                         _______ _______ _______ _____ _____    ______ ____
ROOT
ATOM      1  C   UNL     1       8.207   9.066  17.955  0.00  0.00    +0.000 C 
ATOM      2  C   UNL     1       8.913  10.291  18.423  0.00  0.00    +0.000 C 
ATOM      3  N   UNL     1       8.693  11.416  17.821  0.00  0.00    +0.000 NA
ATOM      4  N   UNL     1       9.249  12.384  18.629  0.00  0.00    +0.000 N 
ATOM      5  C   UNL     1      10.412  12.972  18.088  0.00  0.00    +0.000 C 
ATOM      6  O   UNL     1      11.098  12.461  17.196  0.00  0.00    +0.000 OA
ATOM      7  C   UNL     1      10.743  14.296  18.691  0.00  0.00    +0.000 C 
ATOM      8  C   UNL     1       9.531  15.236  18.585  0.00  0.00    +0.000 C 
ATOM      9  O   UNL     1      11.330  14.117  19.984  0.00  0.00    +0.000 OA
ATOM     10  C   UNL     1      10.429  13.942  20.989  0.00  0.00    +0.000 A 
ATOM     11  C   UNL     1      10.245  15.028  21.867  0.00  0.00    +0.000 A 
ATOM     12 BR   UNL     1      11.177  16.673  21.635  0.00  0.00    +0.000 Br
ATOM     13  C   UNL     1       9.267  14.981  22.852  0.00  0.00    +0.000 A 
ATOM     14  C   UNL     1       8.583  13.791  23.059  0.00  0.00    +0.000 A 
ATOM     15 BR   UNL     1       7.168  13.738  24.311  0.00  0.00    +0.000 Br
ATOM     16  C   UNL     1       8.835  12.672  22.261  0.00  0.00    +0.000 A 
ATOM     17  C   UNL     1       9.672  12.763  21.123  0.00  0.00    +0.000 A 
ATOM     18  C   UNL     1       9.332  11.810  19.987  0.00  0.00    +0.000 C 
ATOM     19  C   UNL     1       9.781  10.384  19.670  0.00  0.00    +0.000 C 
ENDROOT
TORSDOF 0
ENDMDL
MODEL 5
REMARK VINA RESULT:      -5.9      8.435     11.304
REMARK  Name = 
REMARK  2 active torsions:
REMARK  status: ('A' for Active; 'I' for Inactive)
REMARK    1  A    between atoms: C_1  and  C_2
REMARK    2  A    between atoms: C_7  and  C_8
REMARK                            x       y       z     vdW  Elec       q    Type
REMARK                         _______ _______ _______ _____ _____    ______ ____
ROOT
ATOM      1  C   UNL     1       8.546   9.605  18.195  0.00  0.00    +0.000 C 
ATOM      2  C   UNL     1       9.259  10.889  18.441  0.00  0.00    +0.000 C 
ATOM      3  N   UNL     1       8.915  11.941  17.769  0.00  0.00    +0.000 NA
ATOM      4  N   UNL     1       9.534  13.000  18.395  0.00  0.00    +0.000 N 
ATOM      5  C   UNL     1      10.590  13.561  17.647  0.00  0.00    +0.000 C 
ATOM      6  O   UNL     1      11.171  12.982  16.722  0.00  0.00    +0.000 OA
ATOM      7  C   UNL     1      10.944  14.949  18.067  0.00  0.00    +0.000 C 
ATOM      8  C   UNL     1       9.692  15.840  18.037  0.00  0.00    +0.000 C 
ATOM      9  O   UNL     1      11.705  14.918  19.279  0.00  0.00    +0.000 OA
ATOM     10  C   UNL     1      10.954  14.821  20.410  0.00  0.00    +0.000 A 
ATOM     11  C   UNL     1      10.845  15.986  21.195  0.00  0.00    +0.000 A 
ATOM     12 BR   UNL     1      11.670  17.624  20.679  0.00  0.00    +0.000 Br
ATOM     13  C   UNL     1      10.009  16.013  22.304  0.00  0.00    +0.000 A 
ATOM     14  C   UNL     1       9.408  14.833  22.717  0.00  0.00    +0.000 A 
ATOM     15 BR   UNL     1       8.174  14.869  24.150  0.00  0.00    +0.000 Br
ATOM     16  C   UNL     1       9.596  13.645  22.004  0.00  0.00    +0.000 A 
ATOM     17  C   UNL     1      10.270  13.642  20.759  0.00  0.00    +0.000 A 
ATOM     18  C   UNL     1       9.820  12.570  19.778  0.00  0.00    +0.000 C 
ATOM     19  C   UNL     1      10.280  11.132  19.544  0.00  0.00    +0.000 C 
ENDROOT
TORSDOF 0
ENDMDL
MODEL 6
REMARK VINA RESULT:      -5.6      2.090      3.689
REMARK  Name = 
REMARK  2 active torsions:
REMARK  status: ('A' for Active; 'I' for Inactive)
REMARK    1  A    between atoms: C_1  and  C_2
REMARK    2  A    between atoms: C_7  and  C_8
REMARK                            x       y       z     vdW  Elec       q    Type
REMARK                         _______ _______ _______ _____ _____    ______ ____
ROOT
ATOM      1  C   UNL     1       6.702   3.971  13.865  0.00  0.00    +0.000 C 
ATOM      2  C   UNL     1       6.128   4.604  15.084  0.00  0.00    +0.000 C 
ATOM      3  N   UNL     1       5.399   5.667  14.961  0.00  0.00    +0.000 NA
ATOM      4  N   UNL     1       4.797   5.849  16.187  0.00  0.00    +0.000 N 
ATOM      5  C   UNL     1       5.294   6.959  16.902  0.00  0.00    +0.000 C 
ATOM      6  O   UNL     1       6.381   7.501  16.675  0.00  0.00    +0.000 OA
ATOM      7  C   UNL     1       4.368   7.441  17.969  0.00  0.00    +0.000 C 
ATOM      8  C   UNL     1       2.982   7.727  17.369  0.00  0.00    +0.000 C 
ATOM      9  O   UNL     1       4.431   6.572  19.104  0.00  0.00    +0.000 OA
ATOM     10  C   UNL     1       3.654   5.460  19.004  0.00  0.00    +0.000 A 
ATOM     11  C   UNL     1       2.481   5.437  19.784  0.00  0.00    +0.000 A 
ATOM     12 BR   UNL     1       1.985   6.906  20.891  0.00  0.00    +0.000 Br
ATOM     13  C   UNL     1       1.571   4.395  19.660  0.00  0.00    +0.000 A 
ATOM     14  C   UNL     1       1.910   3.301  18.875  0.00  0.00    +0.000 A 
ATOM     15 BR   UNL     1       0.641   1.927  18.597  0.00  0.00    +0.000 Br
ATOM     16  C   UNL     1       3.122   3.266  18.180  0.00  0.00    +0.000 A 
ATOM     17  C   UNL     1       3.963   4.404  18.126  0.00  0.00    +0.000 A 
ATOM     18  C   UNL     1       4.800   4.535  16.863  0.00  0.00    +0.000 C 
ATOM     19  C   UNL     1       6.190   4.023  16.490  0.00  0.00    +0.000 C 
ENDROOT
TORSDOF 0
ENDMDL
MODEL 7
REMARK VINA RESULT:      -5.5      7.570      9.713
REMARK  Name = 
REMARK  2 active torsions:
REMARK  status: ('A' for Active; 'I' for Inactive)
REMARK    1  A    between atoms: C_1  and  C_2
REMARK    2  A    between atoms: C_7  and  C_8
REMARK                            x       y       z     vdW  Elec       q    Type
REMARK                         _______ _______ _______ _____ _____    ______ ____
ROOT
ATOM      1  C   UNL     1      -4.749  13.991  22.790  0.00  0.00    +0.000 C 
ATOM      2  C   UNL     1      -3.534  13.368  22.197  0.00  0.00    +0.000 C 
ATOM      3  N   UNL     1      -3.095  12.251  22.682  0.00  0.00    +0.000 NA
ATOM      4  N   UNL     1      -2.163  11.793  21.777  0.00  0.00    +0.000 N 
ATOM      5  C   UNL     1      -0.835  11.866  22.248  0.00  0.00    +0.000 C 
ATOM      6  O   UNL     1      -0.467  12.585  23.183  0.00  0.00    +0.000 OA
ATOM      7  C   UNL     1       0.106  10.970  21.512  0.00  0.00    +0.000 C 
ATOM      8  C   UNL     1      -0.424   9.528  21.530  0.00  0.00    +0.000 C 
ATOM      9  O   UNL     1       0.434  11.539  20.240  0.00  0.00    +0.000 OA
ATOM     10  C   UNL     1      -0.482  11.295  19.264  0.00  0.00    +0.000 A 
ATOM     11  C   UNL     1      -0.120  10.352  18.282  0.00  0.00    +0.000 A 
ATOM     12 BR   UNL     1       1.548   9.434  18.340  0.00  0.00    +0.000 Br
ATOM     13  C   UNL     1      -1.033   9.957  17.312  0.00  0.00    +0.000 A 
ATOM     14  C   UNL     1      -2.250  10.619  17.231  0.00  0.00    +0.000 A 
ATOM     15 BR   UNL     1      -3.555  10.020  16.000  0.00  0.00    +0.000 Br
ATOM     16  C   UNL     1      -2.577  11.632  18.138  0.00  0.00    +0.000 A 
ATOM     17  C   UNL     1      -1.751  11.903  19.255  0.00  0.00    +0.000 A 
ATOM     18  C   UNL     1      -2.473  12.435  20.484  0.00  0.00    +0.000 C 
ATOM     19  C   UNL     1      -2.822  13.850  20.940  0.00  0.00    +0.000 C 
ENDROOT
TORSDOF 0
ENDMDL
MODEL 8
REMARK VINA RESULT:      -5.5      8.349     10.671
REMARK  Name = 
REMARK  2 active torsions:
REMARK  status: ('A' for Active; 'I' for Inactive)
REMARK    1  A    between atoms: C_1  and  C_2
REMARK    2  A    between atoms: C_7  and  C_8
REMARK                            x       y       z     vdW  Elec       q    Type
REMARK                         _______ _______ _______ _____ _____    ______ ____
ROOT
ATOM      1  C   UNL     1      -0.261   8.256  21.388  0.00  0.00    +0.000 C 
ATOM      2  C   UNL     1      -0.312   9.704  21.732  0.00  0.00    +0.000 C 
ATOM      3  N   UNL     1      -0.300  10.581  20.780  0.00  0.00    +0.000 NA
ATOM      4  N   UNL     1      -0.633  11.779  21.373  0.00  0.00    +0.000 N 
ATOM      5  C   UNL     1       0.444  12.687  21.456  0.00  0.00    +0.000 C 
ATOM      6  O   UNL     1       1.634  12.363  21.371  0.00  0.00    +0.000 OA
ATOM      7  C   UNL     1       0.013  14.103  21.646  0.00  0.00    +0.000 C 
ATOM      8  C   UNL     1      -0.980  14.500  20.542  0.00  0.00    +0.000 C 
ATOM      9  O   UNL     1      -0.386  14.319  23.003  0.00  0.00    +0.000 OA
ATOM     10  C   UNL     1      -1.666  13.946  23.277  0.00  0.00    +0.000 A 
ATOM     11  C   UNL     1      -2.602  14.985  23.449  0.00  0.00    +0.000 A 
ATOM     12 BR   UNL     1      -2.111  16.816  23.267  0.00  0.00    +0.000 Br
ATOM     13  C   UNL     1      -3.951  14.698  23.620  0.00  0.00    +0.000 A 
ATOM     14  C   UNL     1      -4.338  13.375  23.775  0.00  0.00    +0.000 A 
ATOM     15 BR   UNL     1      -6.178  12.952  23.889  0.00  0.00    +0.000 Br
ATOM     16  C   UNL     1      -3.400  12.341  23.712  0.00  0.00    +0.000 A 
ATOM     17  C   UNL     1      -2.060  12.596  23.332  0.00  0.00    +0.000 A 
ATOM     18  C   UNL     1      -1.358  11.452  22.617  0.00  0.00    +0.000 C 
ATOM     19  C   UNL     1      -0.535  10.270  23.128  0.00  0.00    +0.000 C 
ENDROOT
TORSDOF 0
ENDMDL
MODEL 9
REMARK VINA RESULT:      -5.4      8.096      9.972
REMARK  Name = 
REMARK  2 active torsions:
REMARK  status: ('A' for Active; 'I' for Inactive)
REMARK    1  A    between atoms: C_1  and  C_2
REMARK    2  A    between atoms: C_7  and  C_8
REMARK                            x       y       z     vdW  Elec       q    Type
REMARK                         _______ _______ _______ _____ _____    ______ ____
ROOT
ATOM      1  C   UNL     1      -1.518  14.609  24.509  0.00  0.00    +0.000 C 
ATOM      2  C   UNL     1      -1.373  13.944  23.184  0.00  0.00    +0.000 C 
ATOM      3  N   UNL     1      -0.948  12.722  23.133  0.00  0.00    +0.000 NA
ATOM      4  N   UNL     1      -1.183  12.301  21.843  0.00  0.00    +0.000 N 
ATOM      5  C   UNL     1      -0.008  12.143  21.077  0.00  0.00    +0.000 C 
ATOM      6  O   UNL     1       1.078  12.664  21.356  0.00  0.00    +0.000 OA
ATOM      7  C   UNL     1      -0.190  11.266  19.884  0.00  0.00    +0.000 C 
ATOM      8  C   UNL     1      -0.771   9.910  20.315  0.00  0.00    +0.000 C 
ATOM      9  O   UNL     1      -0.873  11.979  18.848  0.00  0.00    +0.000 OA
ATOM     10  C   UNL     1      -2.228  11.996  18.978  0.00  0.00    +0.000 A 
ATOM     11  C   UNL     1      -2.957  11.178  18.093  0.00  0.00    +0.000 A 
ATOM     12 BR   UNL     1      -2.090  10.071  16.807  0.00  0.00    +0.000 Br
ATOM     13  C   UNL     1      -4.333  11.045  18.226  0.00  0.00    +0.000 A 
ATOM     14  C   UNL     1      -4.997  11.851  19.141  0.00  0.00    +0.000 A 
ATOM     15 BR   UNL     1      -6.850  11.605  19.424  0.00  0.00    +0.000 Br
ATOM     16  C   UNL     1      -4.292  12.745  19.952  0.00  0.00    +0.000 A 
ATOM     17  C   UNL     1      -2.877  12.744  19.978  0.00  0.00    +0.000 A 
ATOM     18  C   UNL     1      -2.251  13.164  21.299  0.00  0.00    +0.000 C 
ATOM     19  C   UNL     1      -1.831  14.525  21.853  0.00  0.00    +0.000 C 
ENDROOT
TORSDOF 0
ENDMDL
