MODEL 1
REMARK VINA RESULT:      -8.3      0.000      0.000
REMARK  Name = 
REMARK  4 active torsions:
REMARK  status: ('A' for Active; 'I' for Inactive)
REMARK    1  A    between atoms: C_1  and  C_2
REMARK    2  A    between atoms: C_8  and  N_9
REMARK    3  A    between atoms: C_10  and  C_12
REMARK    4  A    between atoms: C_17  and  N_18
REMARK                            x       y       z     vdW  Elec       q    Type
REMARK                         _______ _______ _______ _____ _____    ______ ____
ROOT
ATOM      1  N   UNL     1       5.238   3.593  16.460  0.00  0.00    +0.000 N 
ATOM      2  C   UNL     1       4.286   4.366  17.099  0.00  0.00    +0.000 C 
ATOM      3  O   UNL     1       4.171   5.584  16.982  0.00  0.00    +0.000 OA
ATOM      4  H   UNL     1       5.286   2.588  16.583  0.00  0.00    +0.000 HD
ENDROOT
BRANCH   1  12
ATOM      5  C   UNL     1       7.096   2.238  11.655  0.00  0.00    +0.000 C 
ATOM      6  C   UNL     1       6.087   3.387  11.785  0.00  0.00    +0.000 C 
ATOM      7  C   UNL     1       6.753   4.752  11.477  0.00  0.00    +0.000 C 
ATOM      8  C   UNL     1       7.825   5.149  12.507  0.00  0.00    +0.000 C 
ATOM      9  C   UNL     1       7.336   4.895  13.884  0.00  0.00    +0.000 A 
ATOM     10  N   UNL     1       7.916   5.407  14.969  0.00  0.00    +0.000 NA
ATOM     11  O   UNL     1       7.164   4.929  16.035  0.00  0.00    +0.000 OA
ATOM     12  C   UNL     1       6.147   4.142  15.576  0.00  0.00    +0.000 A 
ATOM     13  C   UNL     1       6.227   4.073  14.205  0.00  0.00    +0.000 A 
ATOM     14  C   UNL     1       5.399   3.387  13.180  0.00  0.00    +0.000 C 
ENDBRANCH   1  12
BRANCH   2  15
ATOM     15  C   UNL     1       3.276   3.697  17.980  0.00  0.00    +0.000 A 
ATOM     16  C   UNL     1       1.936   3.836  17.566  0.00  0.00    +0.000 A 
ATOM     17  C   UNL     1       0.871   3.355  18.338  0.00  0.00    +0.000 A 
ATOM     18  C   UNL     1       1.121   2.721  19.549  0.00  0.00    +0.000 A 
ATOM     19  C   UNL     1       2.432   2.565  19.988  0.00  0.00    +0.000 A 
ATOM     20  C   UNL     1       3.494   3.053  19.203  0.00  0.00    +0.000 A 
BRANCH  20  21
ATOM     21  N   UNL     1       4.822   2.867  19.740  0.00  0.00    +0.000 N 
ATOM     22  O   UNL     1       5.027   1.831  20.388  0.00  0.00    +0.000 OA
ATOM     23  O   UNL     1       5.645   3.771  19.550  0.00  0.00    +0.000 OA
ENDBRANCH  20  21
ENDBRANCH   2  15
TORSDOF 3
ENDMDL
MODEL 2
REMARK VINA RESULT:      -7.7      1.578      6.895
REMARK  Name = 
REMARK  4 active torsions:
REMARK  status: ('A' for Active; 'I' for Inactive)
REMARK    1  A    between atoms: C_1  and  C_2
REMARK    2  A    between atoms: C_8  and  N_9
REMARK    3  A    between atoms: C_10  and  C_12
REMARK    4  A    between atoms: C_17  and  N_18
REMARK                            x       y       z     vdW  Elec       q    Type
REMARK                         _______ _______ _______ _____ _____    ______ ____
ROOT
ATOM      1  N   UNL     1       5.377   3.598  18.058  0.00  0.00    +0.000 N 
ATOM      2  C   UNL     1       4.839   3.580  16.785  0.00  0.00    +0.000 C 
ATOM      3  O   UNL     1       3.703   3.208  16.504  0.00  0.00    +0.000 OA
ATOM      4  H   UNL     1       6.320   3.924  18.239  0.00  0.00    +0.000 HD
ENDROOT
BRANCH   1  12
ATOM      5  C   UNL     1       1.529   5.868  20.959  0.00  0.00    +0.000 C 
ATOM      6  C   UNL     1       1.179   4.739  19.981  0.00  0.00    +0.000 C 
ATOM      7  C   UNL     1       0.766   3.452  20.739  0.00  0.00    +0.000 C 
ATOM      8  C   UNL     1       1.918   2.830  21.548  0.00  0.00    +0.000 C 
ATOM      9  C   UNL     1       3.161   2.807  20.741  0.00  0.00    +0.000 A 
ATOM     10  N   UNL     1       4.225   2.072  21.062  0.00  0.00    +0.000 NA
ATOM     11  O   UNL     1       5.157   2.337  20.067  0.00  0.00    +0.000 OA
ATOM     12  C   UNL     1       4.641   3.223  19.166  0.00  0.00    +0.000 A 
ATOM     13  C   UNL     1       3.371   3.570  19.565  0.00  0.00    +0.000 A 
ATOM     14  C   UNL     1       2.341   4.468  18.984  0.00  0.00    +0.000 C 
ENDBRANCH   1  12
BRANCH   2  15
ATOM     15  C   UNL     1       5.664   4.079  15.638  0.00  0.00    +0.000 A 
ATOM     16  C   UNL     1       5.197   3.708  14.360  0.00  0.00    +0.000 A 
ATOM     17  C   UNL     1       5.912   4.012  13.196  0.00  0.00    +0.000 A 
ATOM     18  C   UNL     1       7.119   4.695  13.280  0.00  0.00    +0.000 A 
ATOM     19  C   UNL     1       7.609   5.079  14.524  0.00  0.00    +0.000 A 
ATOM     20  C   UNL     1       6.881   4.768  15.688  0.00  0.00    +0.000 A 
BRANCH  20  21
ATOM     21  N   UNL     1       7.468   5.185  16.940  0.00  0.00    +0.000 N 
ATOM     22  O   UNL     1       8.222   4.378  17.503  0.00  0.00    +0.000 OA
ATOM     23  O   UNL     1       7.148   6.296  17.378  0.00  0.00    +0.000 OA
ENDBRANCH  20  21
ENDBRANCH   2  15
TORSDOF 3
ENDMDL
MODEL 3
REMARK VINA RESULT:      -7.7      1.504      7.023
REMARK  Name = 
REMARK  4 active torsions:
REMARK  status: ('A' for Active; 'I' for Inactive)
REMARK    1  A    between atoms: C_1  and  C_2
REMARK    2  A    between atoms: C_8  and  N_9
REMARK    3  A    between atoms: C_10  and  C_12
REMARK    4  A    between atoms: C_17  and  N_18
REMARK                            x       y       z     vdW  Elec       q    Type
REMARK                         _______ _______ _______ _____ _____    ______ ____
ROOT
ATOM      1  N   UNL     1       4.968   3.131  17.857  0.00  0.00    +0.000 N 
ATOM      2  C   UNL     1       5.044   4.411  17.342  0.00  0.00    +0.000 C 
ATOM      3  O   UNL     1       4.594   5.418  17.884  0.00  0.00    +0.000 OA
ATOM      4  H   UNL     1       5.364   2.332  17.375  0.00  0.00    +0.000 HD
ENDROOT
BRANCH   1  12
ATOM      5  C   UNL     1       1.179   5.451  20.797  0.00  0.00    +0.000 C 
ATOM      6  C   UNL     1       0.872   4.144  20.053  0.00  0.00    +0.000 C 
ATOM      7  C   UNL     1       0.692   2.967  21.045  0.00  0.00    +0.000 C 
ATOM      8  C   UNL     1       1.983   2.610  21.802  0.00  0.00    +0.000 C 
ATOM      9  C   UNL     1       3.136   2.579  20.870  0.00  0.00    +0.000 A 
ATOM     10  N   UNL     1       4.306   2.020  21.175  0.00  0.00    +0.000 NA
ATOM     11  O   UNL     1       5.098   2.208  20.049  0.00  0.00    +0.000 OA
ATOM     12  C   UNL     1       4.393   2.873  19.087  0.00  0.00    +0.000 A 
ATOM     13  C   UNL     1       3.137   3.151  19.573  0.00  0.00    +0.000 A 
ATOM     14  C   UNL     1       1.955   3.830  18.982  0.00  0.00    +0.000 C 
ENDBRANCH   1  12
BRANCH   2  15
ATOM     15  C   UNL     1       5.755   4.633  16.042  0.00  0.00    +0.000 A 
ATOM     16  C   UNL     1       5.266   3.877  14.957  0.00  0.00    +0.000 A 
ATOM     17  C   UNL     1       5.887   3.899  13.703  0.00  0.00    +0.000 A 
ATOM     18  C   UNL     1       7.020   4.678  13.501  0.00  0.00    +0.000 A 
ATOM     19  C   UNL     1       7.529   5.438  14.549  0.00  0.00    +0.000 A 
ATOM     20  C   UNL     1       6.895   5.409  15.806  0.00  0.00    +0.000 A 
BRANCH  20  21
ATOM     21  N   UNL     1       7.498   6.211  16.845  0.00  0.00    +0.000 N 
ATOM     22  O   UNL     1       7.452   7.441  16.704  0.00  0.00    +0.000 OA
ATOM     23  O   UNL     1       8.051   5.614  17.777  0.00  0.00    +0.000 OA
ENDBRANCH  20  21
ENDBRANCH   2  15
TORSDOF 3
ENDMDL
MODEL 4
REMARK VINA RESULT:      -7.6      5.321      7.686
REMARK  Name = 
REMARK  4 active torsions:
REMARK  status: ('A' for Active; 'I' for Inactive)
REMARK    1  A    between atoms: C_1  and  C_2
REMARK    2  A    between atoms: C_8  and  N_9
REMARK    3  A    between atoms: C_10  and  C_12
REMARK    4  A    between atoms: C_17  and  N_18
REMARK                            x       y       z     vdW  Elec       q    Type
REMARK                         _______ _______ _______ _____ _____    ______ ____
ROOT
ATOM      1  N   UNL     1       2.187   7.526  19.801  0.00  0.00    +0.000 N 
ATOM      2  C   UNL     1       1.810   8.490  18.885  0.00  0.00    +0.000 C 
ATOM      3  O   UNL     1       1.899   8.377  17.665  0.00  0.00    +0.000 OA
ATOM      4  H   UNL     1       2.085   7.664  20.801  0.00  0.00    +0.000 HD
ENDROOT
BRANCH   1  12
ATOM      5  C   UNL     1       1.901   2.568  21.729  0.00  0.00    +0.000 C 
ATOM      6  C   UNL     1       1.064   2.957  20.503  0.00  0.00    +0.000 C 
ATOM      7  C   UNL     1       1.588   2.255  19.224  0.00  0.00    +0.000 C 
ATOM      8  C   UNL     1       2.996   2.719  18.812  0.00  0.00    +0.000 C 
ATOM      9  C   UNL     1       3.099   4.195  18.901  0.00  0.00    +0.000 A 
ATOM     10  N   UNL     1       4.082   4.893  18.333  0.00  0.00    +0.000 NA
ATOM     11  O   UNL     1       3.814   6.218  18.654  0.00  0.00    +0.000 OA
ATOM     12  C   UNL     1       2.676   6.296  19.405  0.00  0.00    +0.000 A 
ATOM     13  C   UNL     1       2.192   5.024  19.606  0.00  0.00    +0.000 A 
ATOM     14  C   UNL     1       1.001   4.501  20.323  0.00  0.00    +0.000 C 
ENDBRANCH   1  12
BRANCH   2  15
ATOM     15  C   UNL     1       1.209   9.770  19.379  0.00  0.00    +0.000 A 
ATOM     16  C   UNL     1       1.299  10.856  18.484  0.00  0.00    +0.000 A 
ATOM     17  C   UNL     1       0.874  12.142  18.840  0.00  0.00    +0.000 A 
ATOM     18  C   UNL     1       0.349  12.376  20.105  0.00  0.00    +0.000 A 
ATOM     19  C   UNL     1       0.244  11.327  21.013  0.00  0.00    +0.000 A 
ATOM     20  C   UNL     1       0.674  10.038  20.644  0.00  0.00    +0.000 A 
BRANCH  20  21
ATOM     21  N   UNL     1       0.549   9.010  21.650  0.00  0.00    +0.000 N 
ATOM     22  O   UNL     1      -0.455   8.285  21.592  0.00  0.00    +0.000 OA
ATOM     23  O   UNL     1       1.428   8.953  22.519  0.00  0.00    +0.000 OA
ENDBRANCH  20  21
ENDBRANCH   2  15
TORSDOF 3
ENDMDL
MODEL 5
REMARK VINA RESULT:      -7.6      1.282      1.524
REMARK  Name = 
REMARK  4 active torsions:
REMARK  status: ('A' for Active; 'I' for Inactive)
REMARK    1  A    between atoms: C_1  and  C_2
REMARK    2  A    between atoms: C_8  and  N_9
REMARK    3  A    between atoms: C_10  and  C_12
REMARK    4  A    between atoms: C_17  and  N_18
REMARK                            x       y       z     vdW  Elec       q    Type
REMARK                         _______ _______ _______ _____ _____    ______ ____
ROOT
ATOM      1  N   UNL     1       4.854   4.644  16.590  0.00  0.00    +0.000 N 
ATOM      2  C   UNL     1       5.094   4.444  17.936  0.00  0.00    +0.000 C 
ATOM      3  O   UNL     1       6.207   4.347  18.448  0.00  0.00    +0.000 OA
ATOM      4  H   UNL     1       3.915   4.727  16.217  0.00  0.00    +0.000 HD
ENDROOT
BRANCH   1  12
ATOM      5  C   UNL     1       6.374   2.100  12.163  0.00  0.00    +0.000 C 
ATOM      6  C   UNL     1       5.686   3.468  12.057  0.00  0.00    +0.000 C 
ATOM      7  C   UNL     1       6.679   4.556  11.576  0.00  0.00    +0.000 C 
ATOM      8  C   UNL     1       7.803   4.840  12.589  0.00  0.00    +0.000 C 
ATOM      9  C   UNL     1       7.247   4.945  13.960  0.00  0.00    +0.000 A 
ATOM     10  N   UNL     1       7.922   5.469  14.981  0.00  0.00    +0.000 NA
ATOM     11  O   UNL     1       7.060   5.374  16.067  0.00  0.00    +0.000 OA
ATOM     12  C   UNL     1       5.884   4.798  15.681  0.00  0.00    +0.000 A 
ATOM     13  C   UNL     1       5.962   4.487  14.344  0.00  0.00    +0.000 A 
ATOM     14  C   UNL     1       5.002   3.867  13.395  0.00  0.00    +0.000 C 
ENDBRANCH   1  12
BRANCH   2  15
ATOM     15  C   UNL     1       3.933   4.369  18.881  0.00  0.00    +0.000 A 
ATOM     16  C   UNL     1       3.258   5.588  19.095  0.00  0.00    +0.000 A 
ATOM     17  C   UNL     1       2.218   5.702  20.026  0.00  0.00    +0.000 A 
ATOM     18  C   UNL     1       1.827   4.595  20.770  0.00  0.00    +0.000 A 
ATOM     19  C   UNL     1       2.470   3.376  20.583  0.00  0.00    +0.000 A 
ATOM     20  C   UNL     1       3.514   3.274  19.644  0.00  0.00    +0.000 A 
BRANCH  20  21
ATOM     21  N   UNL     1       4.142   1.979  19.525  0.00  0.00    +0.000 N 
ATOM     22  O   UNL     1       5.061   1.724  20.316  0.00  0.00    +0.000 OA
ATOM     23  O   UNL     1       3.745   1.234  18.620  0.00  0.00    +0.000 OA
ENDBRANCH  20  21
ENDBRANCH   2  15
TORSDOF 3
ENDMDL
MODEL 6
REMARK VINA RESULT:      -7.6      1.398      1.984
REMARK  Name = 
REMARK  4 active torsions:
REMARK  status: ('A' for Active; 'I' for Inactive)
REMARK    1  A    between atoms: C_1  and  C_2
REMARK    2  A    between atoms: C_8  and  N_9
REMARK    3  A    between atoms: C_10  and  C_12
REMARK    4  A    between atoms: C_17  and  N_18
REMARK                            x       y       z     vdW  Elec       q    Type
REMARK                         _______ _______ _______ _____ _____    ______ ____
ROOT
ATOM      1  N   UNL     1       4.504   4.082  16.287  0.00  0.00    +0.000 N 
ATOM      2  C   UNL     1       4.561   3.925  17.659  0.00  0.00    +0.000 C 
ATOM      3  O   UNL     1       5.576   4.041  18.341  0.00  0.00    +0.000 OA
ATOM      4  H   UNL     1       3.637   3.984  15.770  0.00  0.00    +0.000 HD
ENDROOT
BRANCH   1  12
ATOM      5  C   UNL     1       6.836   2.212  11.877  0.00  0.00    +0.000 C 
ATOM      6  C   UNL     1       6.020   3.511  11.815  0.00  0.00    +0.000 C 
ATOM      7  C   UNL     1       6.941   4.737  11.585  0.00  0.00    +0.000 C 
ATOM      8  C   UNL     1       7.890   5.010  12.764  0.00  0.00    +0.000 C 
ATOM      9  C   UNL     1       7.160   4.906  14.050  0.00  0.00    +0.000 A 
ATOM     10  N   UNL     1       7.640   5.373  15.201  0.00  0.00    +0.000 NA
ATOM     11  O   UNL     1       6.664   5.074  16.145  0.00  0.00    +0.000 OA
ATOM     12  C   UNL     1       5.616   4.435  15.547  0.00  0.00    +0.000 A 
ATOM     13  C   UNL     1       5.895   4.286  14.208  0.00  0.00    +0.000 A 
ATOM     14  C   UNL     1       5.135   3.689  13.081  0.00  0.00    +0.000 C 
ENDBRANCH   1  12
BRANCH   2  15
ATOM     15  C   UNL     1       3.301   3.623  18.412  0.00  0.00    +0.000 A 
ATOM     16  C   UNL     1       2.954   2.258  18.474  0.00  0.00    +0.000 A 
ATOM     17  C   UNL     1       1.755   1.828  19.055  0.00  0.00    +0.000 A 
ATOM     18  C   UNL     1       0.868   2.755  19.588  0.00  0.00    +0.000 A 
ATOM     19  C   UNL     1       1.179   4.111  19.546  0.00  0.00    +0.000 A 
ATOM     20  C   UNL     1       2.388   4.531  18.960  0.00  0.00    +0.000 A 
BRANCH  20  21
ATOM     21  N   UNL     1       2.626   5.956  18.939  0.00  0.00    +0.000 N 
ATOM     22  O   UNL     1       2.536   6.557  20.019  0.00  0.00    +0.000 OA
ATOM     23  O   UNL     1       2.861   6.478  17.842  0.00  0.00    +0.000 OA
ENDBRANCH  20  21
ENDBRANCH   2  15
TORSDOF 3
ENDMDL
MODEL 7
REMARK VINA RESULT:      -7.4      1.588      1.780
REMARK  Name = 
REMARK  4 active torsions:
REMARK  status: ('A' for Active; 'I' for Inactive)
REMARK    1  A    between atoms: C_1  and  C_2
REMARK    2  A    between atoms: C_8  and  N_9
REMARK    3  A    between atoms: C_10  and  C_12
REMARK    4  A    between atoms: C_17  and  N_18
REMARK                            x       y       z     vdW  Elec       q    Type
REMARK                         _______ _______ _______ _____ _____    ______ ____
ROOT
ATOM      1  N   UNL     1       4.767   4.107  16.737  0.00  0.00    +0.000 N 
ATOM      2  C   UNL     1       4.312   5.033  17.657  0.00  0.00    +0.000 C 
ATOM      3  O   UNL     1       4.760   6.170  17.795  0.00  0.00    +0.000 OA
ATOM      4  H   UNL     1       4.357   3.183  16.657  0.00  0.00    +0.000 HD
ENDROOT
BRANCH   1  12
ATOM      5  C   UNL     1       6.340   2.110  12.056  0.00  0.00    +0.000 C 
ATOM      6  C   UNL     1       5.579   3.443  12.098  0.00  0.00    +0.000 C 
ATOM      7  C   UNL     1       6.506   4.626  11.720  0.00  0.00    +0.000 C 
ATOM      8  C   UNL     1       7.630   4.866  12.742  0.00  0.00    +0.000 C 
ATOM      9  C   UNL     1       7.094   4.801  14.123  0.00  0.00    +0.000 A 
ATOM     10  N   UNL     1       7.758   5.255  15.184  0.00  0.00    +0.000 NA
ATOM     11  O   UNL     1       6.922   5.004  16.265  0.00  0.00    +0.000 OA
ATOM     12  C   UNL     1       5.771   4.407  15.837  0.00  0.00    +0.000 A 
ATOM     13  C   UNL     1       5.842   4.238  14.474  0.00  0.00    +0.000 A 
ATOM     14  C   UNL     1       4.899   3.667  13.479  0.00  0.00    +0.000 C 
ENDBRANCH   1  12
BRANCH   2  15
ATOM     15  C   UNL     1       3.163   4.673  18.549  0.00  0.00    +0.000 A 
ATOM     16  C   UNL     1       2.765   5.683  19.448  0.00  0.00    +0.000 A 
ATOM     17  C   UNL     1       1.774   5.464  20.412  0.00  0.00    +0.000 A 
ATOM     18  C   UNL     1       1.155   4.222  20.504  0.00  0.00    +0.000 A 
ATOM     19  C   UNL     1       1.523   3.203  19.632  0.00  0.00    +0.000 A 
ATOM     20  C   UNL     1       2.520   3.436  18.666  0.00  0.00    +0.000 A 
BRANCH  20  21
ATOM     21  N   UNL     1       2.856   2.319  17.814  0.00  0.00    +0.000 N 
ATOM     22  O   UNL     1       2.286   2.260  16.714  0.00  0.00    +0.000 OA
ATOM     23  O   UNL     1       3.656   1.485  18.255  0.00  0.00    +0.000 OA
ENDBRANCH  20  21
ENDBRANCH   2  15
TORSDOF 3
ENDMDL
MODEL 8
REMARK VINA RESULT:      -7.4      6.009      8.310
REMARK  Name = 
REMARK  4 active torsions:
REMARK  status: ('A' for Active; 'I' for Inactive)
REMARK    1  A    between atoms: C_1  and  C_2
REMARK    2  A    between atoms: C_8  and  N_9
REMARK    3  A    between atoms: C_10  and  C_12
REMARK    4  A    between atoms: C_17  and  N_18
REMARK                            x       y       z     vdW  Elec       q    Type
REMARK                         _______ _______ _______ _____ _____    ______ ____
ROOT
ATOM      1  N   UNL     1       1.736   7.853  20.650  0.00  0.00    +0.000 N 
ATOM      2  C   UNL     1       1.055   8.931  20.115  0.00  0.00    +0.000 C 
ATOM      3  O   UNL     1       0.889   9.137  18.915  0.00  0.00    +0.000 OA
ATOM      4  H   UNL     1       1.837   7.723  21.650  0.00  0.00    +0.000 HD
ENDROOT
BRANCH   1  12
ATOM      5  C   UNL     1       2.572   2.621  21.202  0.00  0.00    +0.000 C 
ATOM      6  C   UNL     1       1.422   3.119  20.316  0.00  0.00    +0.000 C 
ATOM      7  C   UNL     1       1.710   2.841  18.819  0.00  0.00    +0.000 C 
ATOM      8  C   UNL     1       2.905   3.643  18.274  0.00  0.00    +0.000 C 
ATOM      9  C   UNL     1       2.833   5.052  18.731  0.00  0.00    +0.000 A 
ATOM     10  N   UNL     1       3.551   6.032  18.186  0.00  0.00    +0.000 NA
ATOM     11  O   UNL     1       3.196   7.173  18.895  0.00  0.00    +0.000 OA
ATOM     12  C   UNL     1       2.272   6.862  19.851  0.00  0.00    +0.000 A 
ATOM     13  C   UNL     1       2.021   5.510  19.798  0.00  0.00    +0.000 A 
ATOM     14  C   UNL     1       1.116   4.622  20.571  0.00  0.00    +0.000 C 
ENDBRANCH   1  12
BRANCH   2  15
ATOM     15  C   UNL     1       0.425   9.927  21.040  0.00  0.00    +0.000 A 
ATOM     16  C   UNL     1      -0.124   9.384  22.220  0.00  0.00    +0.000 A 
ATOM     17  C   UNL     1      -0.834  10.172  23.134  0.00  0.00    +0.000 A 
ATOM     18  C   UNL     1      -1.015  11.528  22.890  0.00  0.00    +0.000 A 
ATOM     19  C   UNL     1      -0.485  12.098  21.737  0.00  0.00    +0.000 A 
ATOM     20  C   UNL     1       0.227  11.296  20.825  0.00  0.00    +0.000 A 
BRANCH  20  21
ATOM     21  N   UNL     1       0.727  11.961  19.645  0.00  0.00    +0.000 N 
ATOM     22  O   UNL     1       1.914  12.317  19.660  0.00  0.00    +0.000 OA
ATOM     23  O   UNL     1      -0.072  12.162  18.722  0.00  0.00    +0.000 OA
ENDBRANCH  20  21
ENDBRANCH   2  15
TORSDOF 3
ENDMDL
MODEL 9
REMARK VINA RESULT:      -7.4      1.320      1.554
REMARK  Name = 
REMARK  4 active torsions:
REMARK  status: ('A' for Active; 'I' for Inactive)
REMARK    1  A    between atoms: C_1  and  C_2
REMARK    2  A    between atoms: C_8  and  N_9
REMARK    3  A    between atoms: C_10  and  C_12
REMARK    4  A    between atoms: C_17  and  N_18
REMARK                            x       y       z     vdW  Elec       q    Type
REMARK                         _______ _______ _______ _____ _____    ______ ____
ROOT
ATOM      1  N   UNL     1       5.226   3.683  16.490  0.00  0.00    +0.000 N 
ATOM      2  C   UNL     1       4.240   4.490  17.023  0.00  0.00    +0.000 C 
ATOM      3  O   UNL     1       4.089   5.683  16.769  0.00  0.00    +0.000 OA
ATOM      4  H   UNL     1       5.303   2.699  16.725  0.00  0.00    +0.000 HD
ENDROOT
BRANCH   1  12
ATOM      5  C   UNL     1       6.829   2.116  11.657  0.00  0.00    +0.000 C 
ATOM      6  C   UNL     1       5.893   3.325  11.794  0.00  0.00    +0.000 C 
ATOM      7  C   UNL     1       6.625   4.642  11.431  0.00  0.00    +0.000 C 
ATOM      8  C   UNL     1       7.755   4.997  12.413  0.00  0.00    +0.000 C 
ATOM      9  C   UNL     1       7.302   4.802  13.812  0.00  0.00    +0.000 A 
ATOM     10  N   UNL     1       7.948   5.303  14.863  0.00  0.00    +0.000 NA
ATOM     11  O   UNL     1       7.209   4.893  15.966  0.00  0.00    +0.000 OA
ATOM     12  C   UNL     1       6.133   4.157  15.562  0.00  0.00    +0.000 A 
ATOM     13  C   UNL     1       6.159   4.054  14.190  0.00  0.00    +0.000 A 
ATOM     14  C   UNL     1       5.257   3.396  13.211  0.00  0.00    +0.000 C 
ENDBRANCH   1  12
BRANCH   2  15
ATOM     15  C   UNL     1       3.236   3.892  17.961  0.00  0.00    +0.000 A 
ATOM     16  C   UNL     1       2.624   2.706  17.506  0.00  0.00    +0.000 A 
ATOM     17  C   UNL     1       1.595   2.085  18.223  0.00  0.00    +0.000 A 
ATOM     18  C   UNL     1       1.147   2.636  19.417  0.00  0.00    +0.000 A 
ATOM     19  C   UNL     1       1.729   3.805  19.897  0.00  0.00    +0.000 A 
ATOM     20  C   UNL     1       2.764   4.421  19.168  0.00  0.00    +0.000 A 
BRANCH  20  21
ATOM     21  N   UNL     1       3.300   5.640  19.726  0.00  0.00    +0.000 N 
ATOM     22  O   UNL     1       2.520   6.597  19.840  0.00  0.00    +0.000 OA
ATOM     23  O   UNL     1       4.504   5.656  20.012  0.00  0.00    +0.000 OA
ENDBRANCH  20  21
ENDBRANCH   2  15
TORSDOF 3
ENDMDL
