MODEL 1
REMARK VINA RESULT:      -5.9      0.000      0.000
REMARK  Name = 
REMARK  11 active torsions:
REMARK  status: ('A' for Active; 'I' for Inactive)
REMARK    1  A    between atoms: C_1  and  O_2
REMARK    2  A    between atoms: O_2  and  C_3
REMARK    3  A    between atoms: C_3  and  C_4
REMARK    4  A    between atoms: C_4  and  C_5
REMARK    5  A    between atoms: C_5  and  N_6
REMARK    6  A    between atoms: N_6  and  C_7
REMARK    7  A    between atoms: C_7  and  N_9
REMARK    8  A    between atoms: N_9  and  N_10
REMARK    9  A    between atoms: C_11  and  C_12
REMARK   10  A    between atoms: C_15  and  O_16
REMARK   11  A    between atoms: O_16  and  C_17
REMARK                            x       y       z     vdW  Elec       q    Type
REMARK                         _______ _______ _______ _____ _____    ______ ____
ROOT
ATOM      1  N   UNL     1       3.936   4.057  19.641  0.00  0.00    +0.000 N 
ATOM      2  H   UNL     1       4.412   3.615  20.423  0.00  0.00    +0.000 HD
ENDROOT
BRANCH   1   3
ATOM      3  C   UNL     1       4.002   3.430  18.414  0.00  0.00    +0.000 C 
ATOM      4  S   UNL     1       2.671   2.620  17.829  0.00  0.00    +0.000 S 
BRANCH   3   5
ATOM      5  N   UNL     1       5.216   3.578  17.799  0.00  0.00    +0.000 N 
ATOM      6  H   UNL     1       5.957   3.677  18.489  0.00  0.00    +0.000 HD
BRANCH   5   7
ATOM      7  C   UNL     1       5.472   3.997  16.432  0.00  0.00    +0.000 C 
BRANCH   7   8
ATOM      8  C   UNL     1       6.836   4.670  16.292  0.00  0.00    +0.000 C 
BRANCH   8   9
ATOM      9  C   UNL     1       7.632   4.628  17.592  0.00  0.00    +0.000 C 
BRANCH   9  11
ATOM     10  C   UNL     1       7.381   6.963  17.441  0.00  0.00    +0.000 C 
ATOM     11  O   UNL     1       7.417   5.841  18.314  0.00  0.00    +0.000 OA
ENDBRANCH   9  11
ENDBRANCH   8   9
ENDBRANCH   7   8
ENDBRANCH   5   7
ENDBRANCH   3   5
ENDBRANCH   1   3
BRANCH   1  12
ATOM     12  N   UNL     1       3.124   5.141  19.842  0.00  0.00    +0.000 NA
ATOM     13  C   UNL     1       3.268   6.095  18.977  0.00  0.00    +0.000 C 
BRANCH  13  14
ATOM     14  C   UNL     1       2.452   7.324  19.041  0.00  0.00    +0.000 A 
ATOM     15  C   UNL     1       2.290   8.130  17.921  0.00  0.00    +0.000 A 
ATOM     16  C   UNL     1       1.546   9.306  18.025  0.00  0.00    +0.000 A 
ATOM     17  C   UNL     1       0.950   9.707  19.233  0.00  0.00    +0.000 A 
ATOM     18  C   UNL     1       1.108   8.880  20.354  0.00  0.00    +0.000 A 
ATOM     19 BR   UNL     1       0.404   9.194  22.094  0.00  0.00    +0.000 Br
ATOM     20  C   UNL     1       1.856   7.689  20.250  0.00  0.00    +0.000 A 
BRANCH  17  21
ATOM     21  O   UNL     1       0.296  10.895  19.065  0.00  0.00    +0.000 OA
ATOM     22  C   UNL     1      -1.084  10.950  18.765  0.00  0.00    +0.000 C 
ENDBRANCH  17  21
ENDBRANCH  13  14
ENDBRANCH   1  12
TORSDOF 9
ENDMDL
MODEL 2
REMARK VINA RESULT:      -5.8      2.526      3.453
REMARK  Name = 
REMARK  11 active torsions:
REMARK  status: ('A' for Active; 'I' for Inactive)
REMARK    1  A    between atoms: C_1  and  O_2
REMARK    2  A    between atoms: O_2  and  C_3
REMARK    3  A    between atoms: C_3  and  C_4
REMARK    4  A    between atoms: C_4  and  C_5
REMARK    5  A    between atoms: C_5  and  N_6
REMARK    6  A    between atoms: N_6  and  C_7
REMARK    7  A    between atoms: C_7  and  N_9
REMARK    8  A    between atoms: N_9  and  N_10
REMARK    9  A    between atoms: C_11  and  C_12
REMARK   10  A    between atoms: C_15  and  O_16
REMARK   11  A    between atoms: O_16  and  C_17
REMARK                            x       y       z     vdW  Elec       q    Type
REMARK                         _______ _______ _______ _____ _____    ______ ____
ROOT
ATOM      1  N   UNL     1       4.804   4.707  19.146  0.00  0.00    +0.000 N 
ATOM      2  H   UNL     1       5.623   4.815  19.738  0.00  0.00    +0.000 HD
ENDROOT
BRANCH   1   3
ATOM      3  C   UNL     1       4.366   3.425  18.886  0.00  0.00    +0.000 C 
ATOM      4  S   UNL     1       4.577   2.234  20.029  0.00  0.00    +0.000 S 
BRANCH   3   5
ATOM      5  N   UNL     1       3.768   3.299  17.662  0.00  0.00    +0.000 N 
ATOM      6  H   UNL     1       4.223   3.900  16.978  0.00  0.00    +0.000 HD
BRANCH   5   7
ATOM      7  C   UNL     1       2.439   2.788  17.372  0.00  0.00    +0.000 C 
BRANCH   7   8
ATOM      8  C   UNL     1       1.357   3.578  18.106  0.00  0.00    +0.000 C 
BRANCH   8   9
ATOM      9  C   UNL     1       0.795   2.810  19.297  0.00  0.00    +0.000 C 
BRANCH   9  11
ATOM     10  C   UNL     1       1.381   2.821  21.576  0.00  0.00    +0.000 C 
ATOM     11  O   UNL     1       0.933   3.603  20.476  0.00  0.00    +0.000 OA
ENDBRANCH   9  11
ENDBRANCH   8   9
ENDBRANCH   7   8
ENDBRANCH   5   7
ENDBRANCH   3   5
ENDBRANCH   1   3
BRANCH   1  12
ATOM     12  N   UNL     1       4.071   5.799  18.765  0.00  0.00    +0.000 NA
ATOM     13  C   UNL     1       3.225   6.221  19.651  0.00  0.00    +0.000 C 
BRANCH  13  14
ATOM     14  C   UNL     1       2.374   7.402  19.403  0.00  0.00    +0.000 A 
ATOM     15  C   UNL     1       2.310   7.981  18.142  0.00  0.00    +0.000 A 
ATOM     16  C   UNL     1       1.527   9.121  17.950  0.00  0.00    +0.000 A 
ATOM     17  C   UNL     1       0.794   9.707  18.997  0.00  0.00    +0.000 A 
ATOM     18  C   UNL     1       0.854   9.106  20.263  0.00  0.00    +0.000 A 
ATOM     19 BR   UNL     1      -0.041   9.698  21.835  0.00  0.00    +0.000 Br
ATOM     20  C   UNL     1       1.641   7.952  20.457  0.00  0.00    +0.000 A 
BRANCH  17  21
ATOM     21  O   UNL     1       0.130  10.812  18.547  0.00  0.00    +0.000 OA
ATOM     22  C   UNL     1      -1.224  10.756  18.144  0.00  0.00    +0.000 C 
ENDBRANCH  17  21
ENDBRANCH  13  14
ENDBRANCH   1  12
TORSDOF 9
ENDMDL
MODEL 3
REMARK VINA RESULT:      -5.8      2.263      3.268
REMARK  Name = 
REMARK  11 active torsions:
REMARK  status: ('A' for Active; 'I' for Inactive)
REMARK    1  A    between atoms: C_1  and  O_2
REMARK    2  A    between atoms: O_2  and  C_3
REMARK    3  A    between atoms: C_3  and  C_4
REMARK    4  A    between atoms: C_4  and  C_5
REMARK    5  A    between atoms: C_5  and  N_6
REMARK    6  A    between atoms: N_6  and  C_7
REMARK    7  A    between atoms: C_7  and  N_9
REMARK    8  A    between atoms: N_9  and  N_10
REMARK    9  A    between atoms: C_11  and  C_12
REMARK   10  A    between atoms: C_15  and  O_16
REMARK   11  A    between atoms: O_16  and  C_17
REMARK                            x       y       z     vdW  Elec       q    Type
REMARK                         _______ _______ _______ _____ _____    ______ ____
ROOT
ATOM      1  N   UNL     1       4.493   4.535  19.562  0.00  0.00    +0.000 N 
ATOM      2  H   UNL     1       4.491   3.963  20.402  0.00  0.00    +0.000 HD
ENDROOT
BRANCH   1   3
ATOM      3  C   UNL     1       4.793   3.915  18.367  0.00  0.00    +0.000 C 
ATOM      4  S   UNL     1       5.859   4.632  17.310  0.00  0.00    +0.000 S 
BRANCH   3   5
ATOM      5  N   UNL     1       4.151   2.717  18.207  0.00  0.00    +0.000 N 
ATOM      6  H   UNL     1       4.759   1.946  18.475  0.00  0.00    +0.000 HD
BRANCH   5   7
ATOM      7  C   UNL     1       2.987   2.437  17.383  0.00  0.00    +0.000 C 
BRANCH   7   8
ATOM      8  C   UNL     1       1.684   2.680  18.142  0.00  0.00    +0.000 C 
BRANCH   8   9
ATOM      9  C   UNL     1       1.729   2.109  19.556  0.00  0.00    +0.000 C 
BRANCH   9  11
ATOM     10  C   UNL     1       2.347   2.704  21.747  0.00  0.00    +0.000 C 
ATOM     11  O   UNL     1       1.884   3.178  20.489  0.00  0.00    +0.000 OA
ENDBRANCH   9  11
ENDBRANCH   8   9
ENDBRANCH   7   8
ENDBRANCH   5   7
ENDBRANCH   3   5
ENDBRANCH   1   3
BRANCH   1  12
ATOM     12  N   UNL     1       4.051   5.830  19.599  0.00  0.00    +0.000 NA
ATOM     13  C   UNL     1       2.877   6.019  19.083  0.00  0.00    +0.000 C 
BRANCH  13  14
ATOM     14  C   UNL     1       2.248   7.354  19.064  0.00  0.00    +0.000 A 
ATOM     15  C   UNL     1       2.222   8.111  17.900  0.00  0.00    +0.000 A 
ATOM     16  C   UNL     1       1.655   9.387  17.924  0.00  0.00    +0.000 A 
ATOM     17  C   UNL     1       1.106   9.936  19.096  0.00  0.00    +0.000 A 
ATOM     18  C   UNL     1       1.125   9.158  20.263  0.00  0.00    +0.000 A 
ATOM     19 BR   UNL     1       0.449   9.666  21.968  0.00  0.00    +0.000 Br
ATOM     20  C   UNL     1       1.693   7.867  20.238  0.00  0.00    +0.000 A 
BRANCH  17  21
ATOM     21  O   UNL     1       0.634  11.194  18.851  0.00  0.00    +0.000 OA
ATOM     22  C   UNL     1      -0.750  11.468  18.764  0.00  0.00    +0.000 C 
ENDBRANCH  17  21
ENDBRANCH  13  14
ENDBRANCH   1  12
TORSDOF 9
ENDMDL
MODEL 4
REMARK VINA RESULT:      -5.6      3.921      7.710
REMARK  Name = 
REMARK  11 active torsions:
REMARK  status: ('A' for Active; 'I' for Inactive)
REMARK    1  A    between atoms: C_1  and  O_2
REMARK    2  A    between atoms: O_2  and  C_3
REMARK    3  A    between atoms: C_3  and  C_4
REMARK    4  A    between atoms: C_4  and  C_5
REMARK    5  A    between atoms: C_5  and  N_6
REMARK    6  A    between atoms: N_6  and  C_7
REMARK    7  A    between atoms: C_7  and  N_9
REMARK    8  A    between atoms: N_9  and  N_10
REMARK    9  A    between atoms: C_11  and  C_12
REMARK   10  A    between atoms: C_15  and  O_16
REMARK   11  A    between atoms: O_16  and  C_17
REMARK                            x       y       z     vdW  Elec       q    Type
REMARK                         _______ _______ _______ _____ _____    ______ ____
ROOT
ATOM      1  N   UNL     1       1.467   9.992  17.747  0.00  0.00    +0.000 N 
ATOM      2  H   UNL     1       1.439  10.346  16.795  0.00  0.00    +0.000 HD
ENDROOT
BRANCH   1   3
ATOM      3  C   UNL     1       1.236  10.888  18.770  0.00  0.00    +0.000 C 
ATOM      4  S   UNL     1       1.855  12.430  18.672  0.00  0.00    +0.000 S 
BRANCH   3   5
ATOM      5  N   UNL     1       0.472  10.367  19.779  0.00  0.00    +0.000 N 
ATOM      6  H   UNL     1      -0.510  10.595  19.639  0.00  0.00    +0.000 HD
BRANCH   5   7
ATOM      7  C   UNL     1       0.912   9.946  21.098  0.00  0.00    +0.000 C 
BRANCH   7   8
ATOM      8  C   UNL     1      -0.227   9.325  21.904  0.00  0.00    +0.000 C 
BRANCH   8   9
ATOM      9  C   UNL     1      -0.711  10.247  23.018  0.00  0.00    +0.000 C 
BRANCH   9  11
ATOM     10  C   UNL     1      -1.315  12.521  22.994  0.00  0.00    +0.000 C 
ATOM     11  O   UNL     1      -0.278  11.580  22.746  0.00  0.00    +0.000 OA
ENDBRANCH   9  11
ENDBRANCH   8   9
ENDBRANCH   7   8
ENDBRANCH   5   7
ENDBRANCH   3   5
ENDBRANCH   1   3
BRANCH   1  12
ATOM     12  N   UNL     1       1.564   8.648  17.988  0.00  0.00    +0.000 NA
ATOM     13  C   UNL     1       2.758   8.159  17.866  0.00  0.00    +0.000 C 
BRANCH  13  14
ATOM     14  C   UNL     1       3.035   6.730  18.113  0.00  0.00    +0.000 A 
ATOM     15  C   UNL     1       4.085   6.087  17.469  0.00  0.00    +0.000 A 
ATOM     16  C   UNL     1       4.296   4.726  17.693  0.00  0.00    +0.000 A 
ATOM     17  C   UNL     1       3.476   3.976  18.555  0.00  0.00    +0.000 A 
ATOM     18  C   UNL     1       2.427   4.637  19.210  0.00  0.00    +0.000 A 
ATOM     19 BR   UNL     1       1.184   3.856  20.421  0.00  0.00    +0.000 Br
ATOM     20  C   UNL     1       2.216   6.014  18.988  0.00  0.00    +0.000 A 
BRANCH  17  21
ATOM     21  O   UNL     1       3.888   2.674  18.584  0.00  0.00    +0.000 OA
ATOM     22  C   UNL     1       4.471   2.102  19.738  0.00  0.00    +0.000 C 
ENDBRANCH  17  21
ENDBRANCH  13  14
ENDBRANCH   1  12
TORSDOF 9
ENDMDL
MODEL 5
REMARK VINA RESULT:      -5.6      1.543      1.942
REMARK  Name = 
REMARK  11 active torsions:
REMARK  status: ('A' for Active; 'I' for Inactive)
REMARK    1  A    between atoms: C_1  and  O_2
REMARK    2  A    between atoms: O_2  and  C_3
REMARK    3  A    between atoms: C_3  and  C_4
REMARK    4  A    between atoms: C_4  and  C_5
REMARK    5  A    between atoms: C_5  and  N_6
REMARK    6  A    between atoms: N_6  and  C_7
REMARK    7  A    between atoms: C_7  and  N_9
REMARK    8  A    between atoms: N_9  and  N_10
REMARK    9  A    between atoms: C_11  and  C_12
REMARK   10  A    between atoms: C_15  and  O_16
REMARK   11  A    between atoms: O_16  and  C_17
REMARK                            x       y       z     vdW  Elec       q    Type
REMARK                         _______ _______ _______ _____ _____    ______ ____
ROOT
ATOM      1  N   UNL     1       4.156   4.600  19.691  0.00  0.00    +0.000 N 
ATOM      2  H   UNL     1       3.913   4.170  20.579  0.00  0.00    +0.000 HD
ENDROOT
BRANCH   1   3
ATOM      3  C   UNL     1       4.721   3.795  18.723  0.00  0.00    +0.000 C 
ATOM      4  S   UNL     1       3.756   2.763  17.843  0.00  0.00    +0.000 S 
BRANCH   3   5
ATOM      5  N   UNL     1       6.072   3.972  18.597  0.00  0.00    +0.000 N 
ATOM      6  H   UNL     1       6.513   4.020  19.513  0.00  0.00    +0.000 HD
BRANCH   5   7
ATOM      7  C   UNL     1       6.796   4.476  17.443  0.00  0.00    +0.000 C 
BRANCH   7   8
ATOM      8  C   UNL     1       6.065   5.641  16.779  0.00  0.00    +0.000 C 
BRANCH   8   9
ATOM      9  C   UNL     1       5.729   5.351  15.320  0.00  0.00    +0.000 C 
BRANCH   9  11
ATOM     10  C   UNL     1       6.154   3.824  13.582  0.00  0.00    +0.000 C 
ATOM     11  O   UNL     1       6.178   4.038  14.987  0.00  0.00    +0.000 OA
ENDBRANCH   9  11
ENDBRANCH   8   9
ENDBRANCH   7   8
ENDBRANCH   5   7
ENDBRANCH   3   5
ENDBRANCH   1   3
BRANCH   1  12
ATOM     12  N   UNL     1       3.781   5.887  19.414  0.00  0.00    +0.000 NA
ATOM     13  C   UNL     1       2.573   6.190  19.773  0.00  0.00    +0.000 C 
BRANCH  13  14
ATOM     14  C   UNL     1       2.022   7.543  19.564  0.00  0.00    +0.000 A 
ATOM     15  C   UNL     1       2.196   8.203  18.353  0.00  0.00    +0.000 A 
ATOM     16  C   UNL     1       1.698   9.498  18.201  0.00  0.00    +0.000 A 
ATOM     17  C   UNL     1       1.021  10.164  19.239  0.00  0.00    +0.000 A 
ATOM     18  C   UNL     1       0.840   9.484  20.452  0.00  0.00    +0.000 A 
ATOM     19 BR   UNL     1      -0.038  10.157  22.001  0.00  0.00    +0.000 Br
ATOM     20  C   UNL     1       1.338   8.174  20.605  0.00  0.00    +0.000 A 
BRANCH  17  21
ATOM     21  O   UNL     1       0.654  11.416  18.835  0.00  0.00    +0.000 OA
ATOM     22  C   UNL     1       1.594  12.464  18.707  0.00  0.00    +0.000 C 
ENDBRANCH  17  21
ENDBRANCH  13  14
ENDBRANCH   1  12
TORSDOF 9
ENDMDL
MODEL 6
REMARK VINA RESULT:      -5.5      3.928      8.298
REMARK  Name = 
REMARK  11 active torsions:
REMARK  status: ('A' for Active; 'I' for Inactive)
REMARK    1  A    between atoms: C_1  and  O_2
REMARK    2  A    between atoms: O_2  and  C_3
REMARK    3  A    between atoms: C_3  and  C_4
REMARK    4  A    between atoms: C_4  and  C_5
REMARK    5  A    between atoms: C_5  and  N_6
REMARK    6  A    between atoms: N_6  and  C_7
REMARK    7  A    between atoms: C_7  and  N_9
REMARK    8  A    between atoms: N_9  and  N_10
REMARK    9  A    between atoms: C_11  and  C_12
REMARK   10  A    between atoms: C_15  and  O_16
REMARK   11  A    between atoms: O_16  and  C_17
REMARK                            x       y       z     vdW  Elec       q    Type
REMARK                         _______ _______ _______ _____ _____    ______ ____
ROOT
ATOM      1  N   UNL     1       1.255   9.912  17.720  0.00  0.00    +0.000 N 
ATOM      2  H   UNL     1       1.713  10.421  16.968  0.00  0.00    +0.000 HD
ENDROOT
BRANCH   1   3
ATOM      3  C   UNL     1       0.297  10.580  18.454  0.00  0.00    +0.000 C 
ATOM      4  S   UNL     1       0.588  10.948  20.050  0.00  0.00    +0.000 S 
BRANCH   3   5
ATOM      5  N   UNL     1      -0.822  10.883  17.727  0.00  0.00    +0.000 N 
ATOM      6  H   UNL     1      -1.093  11.853  17.874  0.00  0.00    +0.000 HD
BRANCH   5   7
ATOM      7  C   UNL     1      -1.799   9.959  17.175  0.00  0.00    +0.000 C 
BRANCH   7   8
ATOM      8  C   UNL     1      -3.200  10.222  17.724  0.00  0.00    +0.000 C 
BRANCH   8   9
ATOM      9  C   UNL     1      -3.298  11.574  18.422  0.00  0.00    +0.000 C 
BRANCH   9  11
ATOM     10  C   UNL     1      -5.545  10.924  18.162  0.00  0.00    +0.000 C 
ATOM     11  O   UNL     1      -4.659  12.006  18.419  0.00  0.00    +0.000 OA
ENDBRANCH   9  11
ENDBRANCH   8   9
ENDBRANCH   7   8
ENDBRANCH   5   7
ENDBRANCH   3   5
ENDBRANCH   1   3
BRANCH   1  12
ATOM     12  N   UNL     1       1.466   8.569  17.882  0.00  0.00    +0.000 NA
ATOM     13  C   UNL     1       2.704   8.231  18.062  0.00  0.00    +0.000 C 
BRANCH  13  14
ATOM     14  C   UNL     1       3.097   6.824  18.273  0.00  0.00    +0.000 A 
ATOM     15  C   UNL     1       3.985   6.196  17.409  0.00  0.00    +0.000 A 
ATOM     16  C   UNL     1       4.305   4.853  17.613  0.00  0.00    +0.000 A 
ATOM     17  C   UNL     1       3.756   4.107  18.671  0.00  0.00    +0.000 A 
ATOM     18  C   UNL     1       2.871   4.754  19.545  0.00  0.00    +0.000 A 
ATOM     19 BR   UNL     1       1.999   3.976  21.047  0.00  0.00    +0.000 Br
ATOM     20  C   UNL     1       2.551   6.113  19.344  0.00  0.00    +0.000 A 
BRANCH  17  21
ATOM     21  O   UNL     1       4.221   2.824  18.634  0.00  0.00    +0.000 OA
ATOM     22  C   UNL     1       3.414   1.750  18.191  0.00  0.00    +0.000 C 
ENDBRANCH  17  21
ENDBRANCH  13  14
ENDBRANCH   1  12
TORSDOF 9
ENDMDL
MODEL 7
REMARK VINA RESULT:      -5.4      2.645      3.668
REMARK  Name = 
REMARK  11 active torsions:
REMARK  status: ('A' for Active; 'I' for Inactive)
REMARK    1  A    between atoms: C_1  and  O_2
REMARK    2  A    between atoms: O_2  and  C_3
REMARK    3  A    between atoms: C_3  and  C_4
REMARK    4  A    between atoms: C_4  and  C_5
REMARK    5  A    between atoms: C_5  and  N_6
REMARK    6  A    between atoms: N_6  and  C_7
REMARK    7  A    between atoms: C_7  and  N_9
REMARK    8  A    between atoms: N_9  and  N_10
REMARK    9  A    between atoms: C_11  and  C_12
REMARK   10  A    between atoms: C_15  and  O_16
REMARK   11  A    between atoms: O_16  and  C_17
REMARK                            x       y       z     vdW  Elec       q    Type
REMARK                         _______ _______ _______ _____ _____    ______ ____
ROOT
ATOM      1  N   UNL     1       3.202   5.894  19.665  0.00  0.00    +0.000 N 
ATOM      2  H   UNL     1       3.075   5.393  20.540  0.00  0.00    +0.000 HD
ENDROOT
BRANCH   1   3
ATOM      3  C   UNL     1       4.016   5.319  18.710  0.00  0.00    +0.000 C 
ATOM      4  S   UNL     1       4.813   6.286  17.615  0.00  0.00    +0.000 S 
BRANCH   3   5
ATOM      5  N   UNL     1       4.076   3.955  18.806  0.00  0.00    +0.000 N 
ATOM      6  H   UNL     1       4.622   3.677  19.619  0.00  0.00    +0.000 HD
BRANCH   5   7
ATOM      7  C   UNL     1       3.839   2.981  17.754  0.00  0.00    +0.000 C 
BRANCH   7   8
ATOM      8  C   UNL     1       2.387   2.509  17.736  0.00  0.00    +0.000 C 
BRANCH   8   9
ATOM      9  C   UNL     1       1.895   2.113  19.124  0.00  0.00    +0.000 C 
BRANCH   9  11
ATOM     10  C   UNL     1       1.380   3.080  21.207  0.00  0.00    +0.000 C 
ATOM     11  O   UNL     1       1.405   3.272  19.798  0.00  0.00    +0.000 OA
ENDBRANCH   9  11
ENDBRANCH   8   9
ENDBRANCH   7   8
ENDBRANCH   5   7
ENDBRANCH   3   5
ENDBRANCH   1   3
BRANCH   1  12
ATOM     12  N   UNL     1       2.459   7.010  19.386  0.00  0.00    +0.000 NA
ATOM     13  C   UNL     1       1.929   7.582  20.422  0.00  0.00    +0.000 C 
BRANCH  13  14
ATOM     14  C   UNL     1       1.117   8.807  20.294  0.00  0.00    +0.000 A 
ATOM     15  C   UNL     1       1.043   9.490  19.086  0.00  0.00    +0.000 A 
ATOM     16  C   UNL     1       0.298  10.668  19.009  0.00  0.00    +0.000 A 
ATOM     17  C   UNL     1      -0.385  11.192  20.120  0.00  0.00    +0.000 A 
ATOM     18  C   UNL     1      -0.316  10.489  21.331  0.00  0.00    +0.000 A 
ATOM     19 BR   UNL     1      -1.147  10.982  22.971  0.00  0.00    +0.000 Br
ATOM     20  C   UNL     1       0.433   9.295  21.409  0.00  0.00    +0.000 A 
BRANCH  17  21
ATOM     21  O   UNL     1      -1.019  12.353  19.779  0.00  0.00    +0.000 OA
ATOM     22  C   UNL     1      -2.427  12.473  19.816  0.00  0.00    +0.000 C 
ENDBRANCH  17  21
ENDBRANCH  13  14
ENDBRANCH   1  12
TORSDOF 9
ENDMDL
MODEL 8
REMARK VINA RESULT:      -5.4      2.628      3.592
REMARK  Name = 
REMARK  11 active torsions:
REMARK  status: ('A' for Active; 'I' for Inactive)
REMARK    1  A    between atoms: C_1  and  O_2
REMARK    2  A    between atoms: O_2  and  C_3
REMARK    3  A    between atoms: C_3  and  C_4
REMARK    4  A    between atoms: C_4  and  C_5
REMARK    5  A    between atoms: C_5  and  N_6
REMARK    6  A    between atoms: N_6  and  C_7
REMARK    7  A    between atoms: C_7  and  N_9
REMARK    8  A    between atoms: N_9  and  N_10
REMARK    9  A    between atoms: C_11  and  C_12
REMARK   10  A    between atoms: C_15  and  O_16
REMARK   11  A    between atoms: O_16  and  C_17
REMARK                            x       y       z     vdW  Elec       q    Type
REMARK                         _______ _______ _______ _____ _____    ______ ____
ROOT
ATOM      1  N   UNL     1       4.382   5.698  17.381  0.00  0.00    +0.000 N 
ATOM      2  H   UNL     1       4.487   5.418  16.410  0.00  0.00    +0.000 HD
ENDROOT
BRANCH   1   3
ATOM      3  C   UNL     1       4.951   4.890  18.344  0.00  0.00    +0.000 C 
ATOM      4  S   UNL     1       6.364   5.362  19.087  0.00  0.00    +0.000 S 
BRANCH   3   5
ATOM      5  N   UNL     1       4.231   3.752  18.587  0.00  0.00    +0.000 N 
ATOM      6  H   UNL     1       4.387   3.426  19.538  0.00  0.00    +0.000 HD
BRANCH   5   7
ATOM      7  C   UNL     1       3.675   2.830  17.612  0.00  0.00    +0.000 C 
BRANCH   7   8
ATOM      8  C   UNL     1       2.261   2.392  17.989  0.00  0.00    +0.000 C 
BRANCH   8   9
ATOM      9  C   UNL     1       1.551   3.428  18.854  0.00  0.00    +0.000 C 
BRANCH   9  11
ATOM     10  C   UNL     1       1.312   2.927  21.140  0.00  0.00    +0.000 C 
ATOM     11  O   UNL     1       0.764   2.758  19.839  0.00  0.00    +0.000 OA
ENDBRANCH   9  11
ENDBRANCH   8   9
ENDBRANCH   7   8
ENDBRANCH   5   7
ENDBRANCH   3   5
ENDBRANCH   1   3
BRANCH   1  12
ATOM     12  N   UNL     1       3.842   6.914  17.702  0.00  0.00    +0.000 NA
ATOM     13  C   UNL     1       2.726   6.857  18.359  0.00  0.00    +0.000 C 
BRANCH  13  14
ATOM     14  C   UNL     1       2.026   8.080  18.799  0.00  0.00    +0.000 A 
ATOM     15  C   UNL     1       1.796   9.125  17.914  0.00  0.00    +0.000 A 
ATOM     16  C   UNL     1       1.167  10.284  18.371  0.00  0.00    +0.000 A 
ATOM     17  C   UNL     1       0.756  10.433  19.707  0.00  0.00    +0.000 A 
ATOM     18  C   UNL     1       0.981   9.367  20.590  0.00  0.00    +0.000 A 
ATOM     19 BR   UNL     1       0.521   9.315  22.436  0.00  0.00    +0.000 Br
ATOM     20  C   UNL     1       1.612   8.192  20.128  0.00  0.00    +0.000 A 
BRANCH  17  21
ATOM     21  O   UNL     1       0.185  11.659  19.892  0.00  0.00    +0.000 OA
ATOM     22  C   UNL     1       0.959  12.841  19.951  0.00  0.00    +0.000 C 
ENDBRANCH  17  21
ENDBRANCH  13  14
ENDBRANCH   1  12
TORSDOF 9
ENDMDL
MODEL 9
REMARK VINA RESULT:      -5.4      2.587      3.493
REMARK  Name = 
REMARK  11 active torsions:
REMARK  status: ('A' for Active; 'I' for Inactive)
REMARK    1  A    between atoms: C_1  and  O_2
REMARK    2  A    between atoms: O_2  and  C_3
REMARK    3  A    between atoms: C_3  and  C_4
REMARK    4  A    between atoms: C_4  and  C_5
REMARK    5  A    between atoms: C_5  and  N_6
REMARK    6  A    between atoms: N_6  and  C_7
REMARK    7  A    between atoms: C_7  and  N_9
REMARK    8  A    between atoms: N_9  and  N_10
REMARK    9  A    between atoms: C_11  and  C_12
REMARK   10  A    between atoms: C_15  and  O_16
REMARK   11  A    between atoms: O_16  and  C_17
REMARK                            x       y       z     vdW  Elec       q    Type
REMARK                         _______ _______ _______ _____ _____    ______ ____
ROOT
ATOM      1  N   UNL     1       2.661   6.257  20.074  0.00  0.00    +0.000 N 
ATOM      2  H   UNL     1       3.540   6.133  20.571  0.00  0.00    +0.000 HD
ENDROOT
BRANCH   1   3
ATOM      3  C   UNL     1       2.091   5.142  19.496  0.00  0.00    +0.000 C 
ATOM      4  S   UNL     1       1.244   4.065  20.441  0.00  0.00    +0.000 S 
BRANCH   3   5
ATOM      5  N   UNL     1       2.294   5.073  18.145  0.00  0.00    +0.000 N 
ATOM      6  H   UNL     1       1.792   5.820  17.669  0.00  0.00    +0.000 HD
BRANCH   5   7
ATOM      7  C   UNL     1       2.742   3.927  17.372  0.00  0.00    +0.000 C 
BRANCH   7   8
ATOM      8  C   UNL     1       4.255   3.739  17.464  0.00  0.00    +0.000 C 
BRANCH   8   9
ATOM      9  C   UNL     1       5.015   5.004  17.080  0.00  0.00    +0.000 C 
BRANCH   9  11
ATOM     10  C   UNL     1       6.109   5.301  19.142  0.00  0.00    +0.000 C 
ATOM     11  O   UNL     1       5.156   5.835  18.232  0.00  0.00    +0.000 OA
ENDBRANCH   9  11
ENDBRANCH   8   9
ENDBRANCH   7   8
ENDBRANCH   5   7
ENDBRANCH   3   5
ENDBRANCH   1   3
BRANCH   1  12
ATOM     12  N   UNL     1       1.993   7.451  20.126  0.00  0.00    +0.000 NA
ATOM     13  C   UNL     1       1.371   7.678  21.240  0.00  0.00    +0.000 C 
BRANCH  13  14
ATOM     14  C   UNL     1       0.621   8.929  21.464  0.00  0.00    +0.000 A 
ATOM     15  C   UNL     1       0.112   9.239  22.719  0.00  0.00    +0.000 A 
ATOM     16  C   UNL     1      -0.627  10.411  22.888  0.00  0.00    +0.000 A 
ATOM     17  C   UNL     1      -0.878  11.295  21.824  0.00  0.00    +0.000 A 
ATOM     18  C   UNL     1      -0.348  10.980  20.565  0.00  0.00    +0.000 A 
ATOM     19 BR   UNL     1      -0.539  12.006  18.973  0.00  0.00    +0.000 Br
ATOM     20  C   UNL     1       0.403   9.799  20.393  0.00  0.00    +0.000 A 
BRANCH  17  21
ATOM     21  O   UNL     1      -1.632  12.349  22.255  0.00  0.00    +0.000 OA
ATOM     22  C   UNL     1      -1.044  13.554  22.704  0.00  0.00    +0.000 C 
ENDBRANCH  17  21
ENDBRANCH  13  14
ENDBRANCH   1  12
TORSDOF 9
ENDMDL
