MODEL 1
REMARK VINA RESULT:      -7.8      0.000      0.000
REMARK  Name = 
REMARK  3 active torsions:
REMARK  status: ('A' for Active; 'I' for Inactive)
REMARK    1  A    between atoms: C_4  and  C_5
REMARK    2  A    between atoms: C_7  and  C_8
REMARK    3  A    between atoms: C_11  and  N_12
REMARK                            x       y       z     vdW  Elec       q    Type
REMARK                         _______ _______ _______ _____ _____    ______ ____
ROOT
ATOM      1  C   UNL     1       3.632   4.563  18.624  0.00  0.00    +0.000 A 
ATOM      2  C   UNL     1       2.628   3.624  18.589  0.00  0.00    +0.000 A 
ATOM      3  S   UNL     1       1.362   4.097  19.646  0.00  0.00    +0.000 S 
ATOM      4  C   UNL     1       2.234   5.536  20.061  0.00  0.00    +0.000 A 
ATOM      5  N   UNL     1       3.407   5.635  19.464  0.00  0.00    +0.000 NA
ENDROOT
BRANCH   4   6
ATOM      6  N   UNL     1       1.639   6.443  20.883  0.00  0.00    +0.000 NA
ATOM      7  C   UNL     1       1.548   7.672  20.473  0.00  0.00    +0.000 C 
ATOM      8  N   UNL     1       2.078   8.226  19.339  0.00  0.00    +0.000 N 
ATOM      9  C   UNL     1       1.330   9.172  18.545  0.00  0.00    +0.000 C 
ATOM     10  C   UNL     1       0.746  10.242  19.445  0.00  0.00    +0.000 C 
ATOM     11  C   UNL     1       0.005   9.572  20.590  0.00  0.00    +0.000 C 
ATOM     12  N   UNL     1       0.847   8.576  21.224  0.00  0.00    +0.000 N 
ATOM     13  H   UNL     1       2.557   7.520  18.778  0.00  0.00    +0.000 HD
ATOM     14  H   UNL     1       0.419   8.129  22.029  0.00  0.00    +0.000 HD
ENDBRANCH   4   6
BRANCH   1  17
ATOM     15  C   UNL     1       6.060   4.471  15.976  0.00  0.00    +0.000 A 
ATOM     16  N   UNL     1       4.838   4.401  16.477  0.00  0.00    +0.000 NA
ATOM     17  C   UNL     1       4.880   4.552  17.851  0.00  0.00    +0.000 A 
ATOM     18  C   UNL     1       6.141   4.704  18.391  0.00  0.00    +0.000 A 
ATOM     19  S   UNL     1       7.312   4.654  17.152  0.00  0.00    +0.000 S 
BRANCH  15  23
ATOM     20  C   UNL     1       7.073   4.218  11.813  0.00  0.00    +0.000 A 
ATOM     21  C   UNL     1       6.025   3.447  12.311  0.00  0.00    +0.000 A 
ATOM     22  C   UNL     1       5.682   3.523  13.664  0.00  0.00    +0.000 A 
ATOM     23  C   UNL     1       6.377   4.376  14.539  0.00  0.00    +0.000 A 
ATOM     24  C   UNL     1       7.432   5.142  14.018  0.00  0.00    +0.000 A 
ATOM     25  C   UNL     1       7.774   5.064  12.666  0.00  0.00    +0.000 A 
ENDBRANCH  15  23
ENDBRANCH   1  17
TORSDOF 3
ENDMDL
MODEL 2
REMARK VINA RESULT:      -7.8      0.140      1.014
REMARK  Name = 
REMARK  3 active torsions:
REMARK  status: ('A' for Active; 'I' for Inactive)
REMARK    1  A    between atoms: C_4  and  C_5
REMARK    2  A    between atoms: C_7  and  C_8
REMARK    3  A    between atoms: C_11  and  N_12
REMARK                            x       y       z     vdW  Elec       q    Type
REMARK                         _______ _______ _______ _____ _____    ______ ____
ROOT
ATOM      1  C   UNL     1       3.633   4.486  18.582  0.00  0.00    +0.000 A 
ATOM      2  C   UNL     1       2.621   3.562  18.471  0.00  0.00    +0.000 A 
ATOM      3  S   UNL     1       1.338   3.986  19.528  0.00  0.00    +0.000 S 
ATOM      4  C   UNL     1       2.215   5.389  20.045  0.00  0.00    +0.000 A 
ATOM      5  N   UNL     1       3.402   5.509  19.478  0.00  0.00    +0.000 NA
ENDROOT
BRANCH   4   6
ATOM      6  N   UNL     1       1.612   6.253  20.906  0.00  0.00    +0.000 NA
ATOM      7  C   UNL     1       1.539   7.503  20.565  0.00  0.00    +0.000 C 
ATOM      8  N   UNL     1       2.094   8.117  19.474  0.00  0.00    +0.000 N 
ATOM      9  C   UNL     1       1.369   9.113  18.722  0.00  0.00    +0.000 C 
ATOM     10  C   UNL     1       0.777  10.135  19.672  0.00  0.00    +0.000 C 
ATOM     11  C   UNL     1       0.009   9.408  20.763  0.00  0.00    +0.000 C 
ATOM     12  N   UNL     1       0.831   8.369  21.354  0.00  0.00    +0.000 N 
ATOM     13  H   UNL     1       2.578   7.440  18.883  0.00  0.00    +0.000 HD
ATOM     14  H   UNL     1       0.385   7.881  22.124  0.00  0.00    +0.000 HD
ENDBRANCH   4   6
BRANCH   1  17
ATOM     15  C   UNL     1       6.117   4.465  15.984  0.00  0.00    +0.000 A 
ATOM     16  N   UNL     1       4.887   4.366  16.459  0.00  0.00    +0.000 NA
ATOM     17  C   UNL     1       4.897   4.506  17.835  0.00  0.00    +0.000 A 
ATOM     18  C   UNL     1       6.143   4.678  18.402  0.00  0.00    +0.000 A 
ATOM     19  S   UNL     1       7.341   4.662  17.188  0.00  0.00    +0.000 S 
BRANCH  15  23
ATOM     20  C   UNL     1       7.040   4.215  11.800  0.00  0.00    +0.000 A 
ATOM     21  C   UNL     1       7.776   5.073  12.613  0.00  0.00    +0.000 A 
ATOM     22  C   UNL     1       7.488   5.162  13.979  0.00  0.00    +0.000 A 
ATOM     23  C   UNL     1       6.466   4.388  14.553  0.00  0.00    +0.000 A 
ATOM     24  C   UNL     1       5.734   3.531  13.716  0.00  0.00    +0.000 A 
ATOM     25  C   UNL     1       6.021   3.445  12.352  0.00  0.00    +0.000 A 
ENDBRANCH  15  23
ENDBRANCH   1  17
TORSDOF 3
ENDMDL
MODEL 3
REMARK VINA RESULT:      -7.6      3.759      5.964
REMARK  Name = 
REMARK  3 active torsions:
REMARK  status: ('A' for Active; 'I' for Inactive)
REMARK    1  A    between atoms: C_4  and  C_5
REMARK    2  A    between atoms: C_7  and  C_8
REMARK    3  A    between atoms: C_11  and  N_12
REMARK                            x       y       z     vdW  Elec       q    Type
REMARK                         _______ _______ _______ _____ _____    ______ ____
ROOT
ATOM      1  C   UNL     1       0.767   9.959  19.924  0.00  0.00    +0.000 A 
ATOM      2  C   UNL     1       1.271  11.074  20.550  0.00  0.00    +0.000 A 
ATOM      3  S   UNL     1       0.188  12.389  20.342  0.00  0.00    +0.000 S 
ATOM      4  C   UNL     1      -0.892  11.369  19.448  0.00  0.00    +0.000 A 
ATOM      5  N   UNL     1      -0.449  10.134  19.297  0.00  0.00    +0.000 NA
ENDROOT
BRANCH   4   6
ATOM      6  N   UNL     1      -2.087  11.881  19.047  0.00  0.00    +0.000 NA
ATOM      7  C   UNL     1      -2.487  11.625  17.838  0.00  0.00    +0.000 C 
ATOM      8  N   UNL     1      -1.805  10.981  16.841  0.00  0.00    +0.000 N 
ATOM      9  C   UNL     1      -2.461  10.035  15.970  0.00  0.00    +0.000 C 
ATOM     10  C   UNL     1      -3.747  10.638  15.442  0.00  0.00    +0.000 C 
ATOM     11  C   UNL     1      -4.559  11.171  16.610  0.00  0.00    +0.000 C 
ATOM     12  N   UNL     1      -3.738  12.021  17.451  0.00  0.00    +0.000 N 
ATOM     13  H   UNL     1      -0.894  10.660  17.171  0.00  0.00    +0.000 HD
ATOM     14  H   UNL     1      -4.242  12.446  18.223  0.00  0.00    +0.000 HD
ENDBRANCH   4   6
BRANCH   1  17
ATOM     15  C   UNL     1       2.587   7.012  18.963  0.00  0.00    +0.000 A 
ATOM     16  N   UNL     1       2.093   8.225  18.773  0.00  0.00    +0.000 NA
ATOM     17  C   UNL     1       1.368   8.620  19.882  0.00  0.00    +0.000 A 
ATOM     18  C   UNL     1       1.287   7.689  20.898  0.00  0.00    +0.000 A 
ATOM     19  S   UNL     1       2.137   6.277  20.459  0.00  0.00    +0.000 S 
BRANCH  15  23
ATOM     20  C   UNL     1       5.113   4.999  16.136  0.00  0.00    +0.000 A 
ATOM     21  C   UNL     1       4.226   4.257  16.912  0.00  0.00    +0.000 A 
ATOM     22  C   UNL     1       3.395   4.900  17.834  0.00  0.00    +0.000 A 
ATOM     23  C   UNL     1       3.432   6.297  17.989  0.00  0.00    +0.000 A 
ATOM     24  C   UNL     1       4.335   7.027  17.200  0.00  0.00    +0.000 A 
ATOM     25  C   UNL     1       5.166   6.383  16.280  0.00  0.00    +0.000 A 
ENDBRANCH  15  23
ENDBRANCH   1  17
TORSDOF 3
ENDMDL
MODEL 4
REMARK VINA RESULT:      -7.6      3.714      6.024
REMARK  Name = 
REMARK  3 active torsions:
REMARK  status: ('A' for Active; 'I' for Inactive)
REMARK    1  A    between atoms: C_4  and  C_5
REMARK    2  A    between atoms: C_7  and  C_8
REMARK    3  A    between atoms: C_11  and  N_12
REMARK                            x       y       z     vdW  Elec       q    Type
REMARK                         _______ _______ _______ _____ _____    ______ ____
ROOT
ATOM      1  C   UNL     1       0.716   9.884  20.072  0.00  0.00    +0.000 A 
ATOM      2  C   UNL     1       1.190  10.969  20.770  0.00  0.00    +0.000 A 
ATOM      3  S   UNL     1       0.114  12.291  20.578  0.00  0.00    +0.000 S 
ATOM      4  C   UNL     1      -0.924  11.314  19.592  0.00  0.00    +0.000 A 
ATOM      5  N   UNL     1      -0.473  10.088  19.402  0.00  0.00    +0.000 NA
ENDROOT
BRANCH   4   6
ATOM      6  N   UNL     1      -2.103  11.843  19.164  0.00  0.00    +0.000 NA
ATOM      7  C   UNL     1      -2.469  11.609  17.941  0.00  0.00    +0.000 C 
ATOM      8  N   UNL     1      -1.765  10.973  16.954  0.00  0.00    +0.000 N 
ATOM      9  C   UNL     1      -2.406  10.046  16.051  0.00  0.00    +0.000 C 
ATOM     10  C   UNL     1      -3.670  10.670  15.496  0.00  0.00    +0.000 C 
ATOM     11  C   UNL     1      -4.510  11.194  16.648  0.00  0.00    +0.000 C 
ATOM     12  N   UNL     1      -3.705  12.024  17.524  0.00  0.00    +0.000 N 
ATOM     13  H   UNL     1      -0.868  10.638  17.305  0.00  0.00    +0.000 HD
ATOM     14  H   UNL     1      -4.227  12.442  18.287  0.00  0.00    +0.000 HD
ENDBRANCH   4   6
BRANCH   1  17
ATOM     15  C   UNL     1       2.559   6.976  19.037  0.00  0.00    +0.000 A 
ATOM     16  N   UNL     1       2.065   8.193  18.882  0.00  0.00    +0.000 NA
ATOM     17  C   UNL     1       1.322   8.548  19.993  0.00  0.00    +0.000 A 
ATOM     18  C   UNL     1       1.228   7.583  20.975  0.00  0.00    +0.000 A 
ATOM     19  S   UNL     1       2.089   6.189  20.501  0.00  0.00    +0.000 S 
BRANCH  15  23
ATOM     20  C   UNL     1       5.001   4.927  16.164  0.00  0.00    +0.000 A 
ATOM     21  C   UNL     1       5.105   6.311  16.288  0.00  0.00    +0.000 A 
ATOM     22  C   UNL     1       4.317   6.990  17.222  0.00  0.00    +0.000 A 
ATOM     23  C   UNL     1       3.421   6.296  18.053  0.00  0.00    +0.000 A 
ATOM     24  C   UNL     1       3.329   4.903  17.910  0.00  0.00    +0.000 A 
ATOM     25  C   UNL     1       4.115   4.225  16.975  0.00  0.00    +0.000 A 
ENDBRANCH  15  23
ENDBRANCH   1  17
TORSDOF 3
ENDMDL
MODEL 5
REMARK VINA RESULT:      -7.6      4.285      6.821
REMARK  Name = 
REMARK  3 active torsions:
REMARK  status: ('A' for Active; 'I' for Inactive)
REMARK    1  A    between atoms: C_4  and  C_5
REMARK    2  A    between atoms: C_7  and  C_8
REMARK    3  A    between atoms: C_11  and  N_12
REMARK                            x       y       z     vdW  Elec       q    Type
REMARK                         _______ _______ _______ _____ _____    ______ ____
ROOT
ATOM      1  C   UNL     1       0.781   9.807  19.837  0.00  0.00    +0.000 A 
ATOM      2  C   UNL     1       0.953  10.521  20.999  0.00  0.00    +0.000 A 
ATOM      3  S   UNL     1      -0.278  11.708  21.133  0.00  0.00    +0.000 S 
ATOM      4  C   UNL     1      -0.971  11.170  19.638  0.00  0.00    +0.000 A 
ATOM      5  N   UNL     1      -0.302  10.184  19.069  0.00  0.00    +0.000 NA
ENDROOT
BRANCH   4   6
ATOM      6  N   UNL     1      -2.136  11.737  19.219  0.00  0.00    +0.000 NA
ATOM      7  C   UNL     1      -2.486  11.569  17.981  0.00  0.00    +0.000 C 
ATOM      8  N   UNL     1      -1.775  10.973  16.974  0.00  0.00    +0.000 N 
ATOM      9  C   UNL     1      -2.413  10.101  16.017  0.00  0.00    +0.000 C 
ATOM     10  C   UNL     1      -3.660  10.769  15.474  0.00  0.00    +0.000 C 
ATOM     11  C   UNL     1      -4.511  11.247  16.638  0.00  0.00    +0.000 C 
ATOM     12  N   UNL     1      -3.709  12.021  17.566  0.00  0.00    +0.000 N 
ATOM     13  H   UNL     1      -0.887  10.608  17.322  0.00  0.00    +0.000 HD
ATOM     14  H   UNL     1      -4.237  12.408  18.341  0.00  0.00    +0.000 HD
ENDBRANCH   4   6
BRANCH   1  17
ATOM     15  C   UNL     1       2.413   6.627  19.460  0.00  0.00    +0.000 A 
ATOM     16  N   UNL     1       1.668   7.518  20.093  0.00  0.00    +0.000 NA
ATOM     17  C   UNL     1       1.600   8.687  19.356  0.00  0.00    +0.000 A 
ATOM     18  C   UNL     1       2.322   8.688  18.181  0.00  0.00    +0.000 A 
ATOM     19  S   UNL     1       3.114   7.190  17.985  0.00  0.00    +0.000 S 
BRANCH  15  23
ATOM     20  C   UNL     1       3.084   2.648  20.923  0.00  0.00    +0.000 A 
ATOM     21  C   UNL     1       3.838   3.120  19.851  0.00  0.00    +0.000 A 
ATOM     22  C   UNL     1       3.632   4.415  19.367  0.00  0.00    +0.000 A 
ATOM     23  C   UNL     1       2.675   5.262  19.952  0.00  0.00    +0.000 A 
ATOM     24  C   UNL     1       1.923   4.767  21.029  0.00  0.00    +0.000 A 
ATOM     25  C   UNL     1       2.129   3.472  21.512  0.00  0.00    +0.000 A 
ENDBRANCH  15  23
ENDBRANCH   1  17
TORSDOF 3
ENDMDL
MODEL 6
REMARK VINA RESULT:      -7.5      4.313      6.740
REMARK  Name = 
REMARK  3 active torsions:
REMARK  status: ('A' for Active; 'I' for Inactive)
REMARK    1  A    between atoms: C_4  and  C_5
REMARK    2  A    between atoms: C_7  and  C_8
REMARK    3  A    between atoms: C_11  and  N_12
REMARK                            x       y       z     vdW  Elec       q    Type
REMARK                         _______ _______ _______ _____ _____    ______ ____
ROOT
ATOM      1  C   UNL     1       1.671   9.805  18.433  0.00  0.00    +0.000 A 
ATOM      2  C   UNL     1       2.330  11.003  18.289  0.00  0.00    +0.000 A 
ATOM      3  S   UNL     1       1.220  12.296  18.486  0.00  0.00    +0.000 S 
ATOM      4  C   UNL     1      -0.061  11.165  18.773  0.00  0.00    +0.000 A 
ATOM      5  N   UNL     1       0.321   9.903  18.697  0.00  0.00    +0.000 NA
ENDROOT
BRANCH   4   6
ATOM      6  N   UNL     1      -1.291  11.645  19.104  0.00  0.00    +0.000 NA
ATOM      7  C   UNL     1      -2.184  11.738  18.167  0.00  0.00    +0.000 C 
ATOM      8  N   UNL     1      -2.027  11.515  16.825  0.00  0.00    +0.000 N 
ATOM      9  C   UNL     1      -3.033  10.823  16.055  0.00  0.00    +0.000 C 
ATOM     10  C   UNL     1      -4.395  11.419  16.347  0.00  0.00    +0.000 C 
ATOM     11  C   UNL     1      -4.600  11.470  17.852  0.00  0.00    +0.000 C 
ATOM     12  N   UNL     1      -3.462  12.099  18.496  0.00  0.00    +0.000 N 
ATOM     13  H   UNL     1      -1.077  11.206  16.615  0.00  0.00    +0.000 HD
ATOM     14  H   UNL     1      -3.565  12.205  19.500  0.00  0.00    +0.000 HD
ENDBRANCH   4   6
BRANCH   1  17
ATOM     15  C   UNL     1       2.373   6.310  18.894  0.00  0.00    +0.000 A 
ATOM     16  N   UNL     1       1.740   7.444  19.148  0.00  0.00    +0.000 NA
ATOM     17  C   UNL     1       2.256   8.460  18.363  0.00  0.00    +0.000 A 
ATOM     18  C   UNL     1       3.303   8.098  17.541  0.00  0.00    +0.000 A 
ATOM     19  S   UNL     1       3.660   6.444  17.750  0.00  0.00    +0.000 S 
BRANCH  15  23
ATOM     20  C   UNL     1       1.450   2.602  20.848  0.00  0.00    +0.000 A 
ATOM     21  C   UNL     1       1.142   2.760  19.499  0.00  0.00    +0.000 A 
ATOM     22  C   UNL     1       1.440   3.962  18.850  0.00  0.00    +0.000 A 
ATOM     23  C   UNL     1       2.059   5.020  19.537  0.00  0.00    +0.000 A 
ATOM     24  C   UNL     1       2.360   4.842  20.896  0.00  0.00    +0.000 A 
ATOM     25  C   UNL     1       2.060   3.641  21.544  0.00  0.00    +0.000 A 
ENDBRANCH  15  23
ENDBRANCH   1  17
TORSDOF 3
ENDMDL
MODEL 7
REMARK VINA RESULT:      -7.5      2.136      8.799
REMARK  Name = 
REMARK  3 active torsions:
REMARK  status: ('A' for Active; 'I' for Inactive)
REMARK    1  A    between atoms: C_4  and  C_5
REMARK    2  A    between atoms: C_7  and  C_8
REMARK    3  A    between atoms: C_11  and  N_12
REMARK                            x       y       z     vdW  Elec       q    Type
REMARK                         _______ _______ _______ _____ _____    ______ ____
ROOT
ATOM      1  C   UNL     1       3.328   6.522  18.891  0.00  0.00    +0.000 A 
ATOM      2  C   UNL     1       3.284   5.400  19.683  0.00  0.00    +0.000 A 
ATOM      3  S   UNL     1       4.613   4.380  19.311  0.00  0.00    +0.000 S 
ATOM      4  C   UNL     1       5.169   5.522  18.132  0.00  0.00    +0.000 A 
ATOM      5  N   UNL     1       4.389   6.581  18.011  0.00  0.00    +0.000 NA
ENDROOT
BRANCH   4   6
ATOM      6  N   UNL     1       6.349   5.280  17.497  0.00  0.00    +0.000 NA
ATOM      7  C   UNL     1       6.309   4.706  16.333  0.00  0.00    +0.000 C 
ATOM      8  N   UNL     1       5.221   4.197  15.677  0.00  0.00    +0.000 N 
ATOM      9  C   UNL     1       5.045   4.380  14.256  0.00  0.00    +0.000 C 
ATOM     10  C   UNL     1       6.328   4.018  13.535  0.00  0.00    +0.000 C 
ATOM     11  C   UNL     1       7.485   4.759  14.182  0.00  0.00    +0.000 C 
ATOM     12  N   UNL     1       7.469   4.564  15.620  0.00  0.00    +0.000 N 
ATOM     13  H   UNL     1       4.366   4.356  16.212  0.00  0.00    +0.000 HD
ATOM     14  H   UNL     1       8.250   4.998  16.102  0.00  0.00    +0.000 HD
ENDBRANCH   4   6
BRANCH   1  17
ATOM     15  C   UNL     1       1.025   9.092  19.896  0.00  0.00    +0.000 A 
ATOM     16  N   UNL     1       1.782   8.025  20.092  0.00  0.00    +0.000 NA
ATOM     17  C   UNL     1       2.393   7.654  18.908  0.00  0.00    +0.000 A 
ATOM     18  C   UNL     1       2.070   8.424  17.809  0.00  0.00    +0.000 A 
ATOM     19  S   UNL     1       0.969   9.646  18.261  0.00  0.00    +0.000 S 
BRANCH  15  23
ATOM     20  C   UNL     1      -1.174  11.016  23.040  0.00  0.00    +0.000 A 
ATOM     21  C   UNL     1      -1.094  11.624  21.789  0.00  0.00    +0.000 A 
ATOM     22  C   UNL     1      -0.383  11.006  20.756  0.00  0.00    +0.000 A 
ATOM     23  C   UNL     1       0.250   9.768  20.953  0.00  0.00    +0.000 A 
ATOM     24  C   UNL     1       0.160   9.172  22.221  0.00  0.00    +0.000 A 
ATOM     25  C   UNL     1      -0.549   9.791  23.254  0.00  0.00    +0.000 A 
ENDBRANCH  15  23
ENDBRANCH   1  17
TORSDOF 3
ENDMDL
MODEL 8
REMARK VINA RESULT:      -7.5      2.281      8.851
REMARK  Name = 
REMARK  3 active torsions:
REMARK  status: ('A' for Active; 'I' for Inactive)
REMARK    1  A    between atoms: C_4  and  C_5
REMARK    2  A    between atoms: C_7  and  C_8
REMARK    3  A    between atoms: C_11  and  N_12
REMARK                            x       y       z     vdW  Elec       q    Type
REMARK                         _______ _______ _______ _____ _____    ______ ____
ROOT
ATOM      1  C   UNL     1       2.212   6.676  19.855  0.00  0.00    +0.000 A 
ATOM      2  C   UNL     1       1.603   5.665  20.561  0.00  0.00    +0.000 A 
ATOM      3  S   UNL     1       2.592   4.264  20.527  0.00  0.00    +0.000 S 
ATOM      4  C   UNL     1       3.778   5.112  19.590  0.00  0.00    +0.000 A 
ATOM      5  N   UNL     1       3.435   6.355  19.302  0.00  0.00    +0.000 NA
ENDROOT
BRANCH   4   6
ATOM      6  N   UNL     1       4.947   4.482  19.293  0.00  0.00    +0.000 NA
ATOM      7  C   UNL     1       5.351   4.493  18.060  0.00  0.00    +0.000 C 
ATOM      8  N   UNL     1       4.695   4.975  16.959  0.00  0.00    +0.000 N 
ATOM      9  C   UNL     1       5.390   5.714  15.933  0.00  0.00    +0.000 C 
ATOM     10  C   UNL     1       6.644   4.966  15.528  0.00  0.00    +0.000 C 
ATOM     11  C   UNL     1       7.436   4.619  16.777  0.00  0.00    +0.000 C 
ATOM     12  N   UNL     1       6.581   3.975  17.756  0.00  0.00    +0.000 N 
ATOM     13  H   UNL     1       3.802   5.393  17.222  0.00  0.00    +0.000 HD
ATOM     14  H   UNL     1       7.069   3.676  18.594  0.00  0.00    +0.000 HD
ENDBRANCH   4   6
BRANCH   1  17
ATOM     15  C   UNL     1       0.763   9.931  20.330  0.00  0.00    +0.000 A 
ATOM     16  N   UNL     1       1.085   8.702  20.701  0.00  0.00    +0.000 NA
ATOM     17  C   UNL     1       1.714   8.043  19.660  0.00  0.00    +0.000 A 
ATOM     18  C   UNL     1       1.837   8.766  18.491  0.00  0.00    +0.000 A 
ATOM     19  S   UNL     1       1.147  10.313  18.690  0.00  0.00    +0.000 S 
BRANCH  15  23
ATOM     20  C   UNL     1      -1.162  12.736  22.947  0.00  0.00    +0.000 A 
ATOM     21  C   UNL     1      -0.346  13.206  21.921  0.00  0.00    +0.000 A 
ATOM     22  C   UNL     1       0.285  12.303  21.059  0.00  0.00    +0.000 A 
ATOM     23  C   UNL     1       0.102  10.917  21.205  0.00  0.00    +0.000 A 
ATOM     24  C   UNL     1      -0.722  10.464  22.247  0.00  0.00    +0.000 A 
ATOM     25  C   UNL     1      -1.351  11.366  23.108  0.00  0.00    +0.000 A 
ENDBRANCH  15  23
ENDBRANCH   1  17
TORSDOF 3
ENDMDL
MODEL 9
REMARK VINA RESULT:      -7.4      2.141      8.765
REMARK  Name = 
REMARK  3 active torsions:
REMARK  status: ('A' for Active; 'I' for Inactive)
REMARK    1  A    between atoms: C_4  and  C_5
REMARK    2  A    between atoms: C_7  and  C_8
REMARK    3  A    between atoms: C_11  and  N_12
REMARK                            x       y       z     vdW  Elec       q    Type
REMARK                         _______ _______ _______ _____ _____    ______ ____
ROOT
ATOM      1  C   UNL     1       2.412   6.478  19.685  0.00  0.00    +0.000 A 
ATOM      2  C   UNL     1       1.921   5.449  20.452  0.00  0.00    +0.000 A 
ATOM      3  S   UNL     1       2.962   4.092  20.329  0.00  0.00    +0.000 S 
ATOM      4  C   UNL     1       4.012   4.982  19.276  0.00  0.00    +0.000 A 
ATOM      5  N   UNL     1       3.588   6.206  19.017  0.00  0.00    +0.000 NA
ENDROOT
BRANCH   4   6
ATOM      6  N   UNL     1       5.173   4.400  18.869  0.00  0.00    +0.000 NA
ATOM      7  C   UNL     1       5.465   4.438  17.605  0.00  0.00    +0.000 C 
ATOM      8  N   UNL     1       4.695   4.902  16.572  0.00  0.00    +0.000 N 
ATOM      9  C   UNL     1       5.267   5.677  15.497  0.00  0.00    +0.000 C 
ATOM     10  C   UNL     1       6.508   4.982  14.974  0.00  0.00    +0.000 C 
ATOM     11  C   UNL     1       7.421   4.656  16.143  0.00  0.00    +0.000 C 
ATOM     12  N   UNL     1       6.682   3.971  17.186  0.00  0.00    +0.000 N 
ATOM     13  H   UNL     1       3.814   5.283  16.918  0.00  0.00    +0.000 HD
ATOM     14  H   UNL     1       7.253   3.684  17.974  0.00  0.00    +0.000 HD
ENDBRANCH   4   6
BRANCH   1  17
ATOM     15  C   UNL     1       0.679   9.581  20.224  0.00  0.00    +0.000 A 
ATOM     16  N   UNL     1       1.049   8.351  20.539  0.00  0.00    +0.000 NA
ATOM     17  C   UNL     1       1.837   7.821  19.533  0.00  0.00    +0.000 A 
ATOM     18  C   UNL     1       2.035   8.642  18.442  0.00  0.00    +0.000 A 
ATOM     19  S   UNL     1       1.213  10.119  18.672  0.00  0.00    +0.000 S 
BRANCH  15  23
ATOM     20  C   UNL     1      -1.770  12.135  22.652  0.00  0.00    +0.000 A 
ATOM     21  C   UNL     1      -1.245  10.967  23.200  0.00  0.00    +0.000 A 
ATOM     22  C   UNL     1      -0.444  10.128  22.421  0.00  0.00    +0.000 A 
ATOM     23  C   UNL     1      -0.146  10.448  21.085  0.00  0.00    +0.000 A 
ATOM     24  C   UNL     1      -0.687  11.628  20.551  0.00  0.00    +0.000 A 
ATOM     25  C   UNL     1      -1.490  12.465  21.330  0.00  0.00    +0.000 A 
ENDBRANCH  15  23
ENDBRANCH   1  17
TORSDOF 3
ENDMDL
