MODEL 1
REMARK VINA RESULT:      -8.5      0.000      0.000
REMARK  Name = 
REMARK  9 active torsions:
REMARK  status: ('A' for Active; 'I' for Inactive)
REMARK    1  A    between atoms: C_1  and  C_2
REMARK    2  A    between atoms: C_2  and  C_25
REMARK    3  A    between atoms: N_3  and  N_4
REMARK    4  A    between atoms: C_5  and  C_7
REMARK    5  A    between atoms: C_7  and  N_8
REMARK    6  A    between atoms: N_8  and  C_9
REMARK    7  A    between atoms: N_8  and  S_16
REMARK    8  A    between atoms: S_16  and  C_19
REMARK    9  A    between atoms: C_30  and  O_31
REMARK                            x       y       z     vdW  Elec       q    Type
REMARK                         _______ _______ _______ _____ _____    ______ ____
ROOT
ATOM      1  N   UNL     1       3.438   5.379  17.641  0.00  0.00    +0.000 N 
ENDROOT
BRANCH   1   2
ATOM      2  C   UNL     1       4.838   5.119  17.549  0.00  0.00    +0.000 A 
ATOM      3  C   UNL     1       5.399   4.572  16.394  0.00  0.00    +0.000 A 
ATOM      4  C   UNL     1       6.778   4.371  16.318  0.00  0.00    +0.000 A 
ATOM      5  C   UNL     1       7.594   4.707  17.399  0.00  0.00    +0.000 A 
ATOM      6  C   UNL     1       7.025   5.237  18.555  0.00  0.00    +0.000 A 
ATOM      7 CL   UNL     1       8.032   5.660  19.885  0.00  0.00    +0.000 Cl
ATOM      8  C   UNL     1       5.649   5.440  18.639  0.00  0.00    +0.000 A 
ENDBRANCH   1   2
BRANCH   1   9
ATOM      9  S   UNL     1       2.361   4.073  17.567  0.00  0.00    +0.000 S 
ATOM     10  O   UNL     1       1.037   4.577  17.260  0.00  0.00    +0.000 OA
ATOM     11  O   UNL     1       2.959   3.047  16.734  0.00  0.00    +0.000 OA
BRANCH   9  12
ATOM     12  C   UNL     1       2.309   3.448  19.235  0.00  0.00    +0.000 A 
ATOM     13  C   UNL     1       3.450   2.850  19.784  0.00  0.00    +0.000 A 
ATOM     14  C   UNL     1       3.421   2.386  21.101  0.00  0.00    +0.000 A 
ATOM     15  C   UNL     1       2.268   2.538  21.870  0.00  0.00    +0.000 A 
ATOM     16  C   UNL     1       1.148   3.176  21.335  0.00  0.00    +0.000 A 
ATOM     17  C   UNL     1       1.168   3.642  20.018  0.00  0.00    +0.000 A 
ENDBRANCH   9  12
ENDBRANCH   1   9
BRANCH   1  18
ATOM     18  C   UNL     1       2.908   6.750  17.504  0.00  0.00    +0.000 C 
BRANCH  18  20
ATOM     19  N   UNL     1       1.785   8.667  18.528  0.00  0.00    +0.000 N 
ATOM     20  C   UNL     1       2.354   7.413  18.751  0.00  0.00    +0.000 C 
ATOM     21  O   UNL     1       2.427   6.856  19.847  0.00  0.00    +0.000 OA
ATOM     22  H   UNL     1       1.617   8.998  17.587  0.00  0.00    +0.000 HD
BRANCH  19  25
ATOM     23  C   UNL     1      -0.686  10.143  18.229  0.00  0.00    +0.000 C 
ATOM     24  C   UNL     1       0.132   9.997  19.495  0.00  0.00    +0.000 C 
ATOM     25  N   UNL     1       1.259   9.345  19.588  0.00  0.00    +0.000 NA
BRANCH  24  26
ATOM     26  C   UNL     1      -0.367  10.684  20.737  0.00  0.00    +0.000 A 
ATOM     27  C   UNL     1      -0.556  12.075  20.678  0.00  0.00    +0.000 A 
ATOM     28  C   UNL     1      -0.978  12.792  21.801  0.00  0.00    +0.000 A 
ATOM     29  C   UNL     1      -1.211  12.128  23.001  0.00  0.00    +0.000 A 
ATOM     30  C   UNL     1      -1.031  10.746  23.077  0.00  0.00    +0.000 A 
ATOM     31  C   UNL     1      -0.613  10.025  21.952  0.00  0.00    +0.000 A 
BRANCH  31  32
ATOM     32  O   UNL     1      -0.418   8.679  22.076  0.00  0.00    +0.000 OA
ATOM     33  H   UNL     1       0.438   8.521  22.502  0.00  0.00    +0.000 HD
ENDBRANCH  31  32
ENDBRANCH  24  26
ENDBRANCH  19  25
ENDBRANCH  18  20
ENDBRANCH   1  18
TORSDOF 8
ENDMDL
MODEL 2
REMARK VINA RESULT:      -8.2      2.221      3.021
REMARK  Name = 
REMARK  9 active torsions:
REMARK  status: ('A' for Active; 'I' for Inactive)
REMARK    1  A    between atoms: C_1  and  C_2
REMARK    2  A    between atoms: C_2  and  C_25
REMARK    3  A    between atoms: N_3  and  N_4
REMARK    4  A    between atoms: C_5  and  C_7
REMARK    5  A    between atoms: C_7  and  N_8
REMARK    6  A    between atoms: N_8  and  C_9
REMARK    7  A    between atoms: N_8  and  S_16
REMARK    8  A    between atoms: S_16  and  C_19
REMARK    9  A    between atoms: C_30  and  O_31
REMARK                            x       y       z     vdW  Elec       q    Type
REMARK                         _______ _______ _______ _____ _____    ______ ____
ROOT
ATOM      1  N   UNL     1       4.482   4.334  17.692  0.00  0.00    +0.000 N 
ENDROOT
BRANCH   1   2
ATOM      2  C   UNL     1       5.374   4.493  16.590  0.00  0.00    +0.000 A 
ATOM      3  C   UNL     1       6.648   5.037  16.761  0.00  0.00    +0.000 A 
ATOM      4  C   UNL     1       7.514   5.139  15.671  0.00  0.00    +0.000 A 
ATOM      5  C   UNL     1       7.104   4.707  14.410  0.00  0.00    +0.000 A 
ATOM      6  C   UNL     1       5.824   4.181  14.243  0.00  0.00    +0.000 A 
ATOM      7 CL   UNL     1       5.321   3.640  12.689  0.00  0.00    +0.000 Cl
ATOM      8  C   UNL     1       4.954   4.076  15.326  0.00  0.00    +0.000 A 
ENDBRANCH   1   2
BRANCH   1   9
ATOM      9  S   UNL     1       3.298   3.124  17.611  0.00  0.00    +0.000 S 
ATOM     10  O   UNL     1       2.257   3.553  16.697  0.00  0.00    +0.000 OA
ATOM     11  O   UNL     1       3.967   1.855  17.405  0.00  0.00    +0.000 OA
BRANCH   9  12
ATOM     12  C   UNL     1       2.581   3.096  19.243  0.00  0.00    +0.000 A 
ATOM     13  C   UNL     1       1.272   3.557  19.430  0.00  0.00    +0.000 A 
ATOM     14  C   UNL     1       0.698   3.509  20.701  0.00  0.00    +0.000 A 
ATOM     15  C   UNL     1       1.418   2.985  21.774  0.00  0.00    +0.000 A 
ATOM     16  C   UNL     1       2.706   2.484  21.575  0.00  0.00    +0.000 A 
ATOM     17  C   UNL     1       3.289   2.529  20.306  0.00  0.00    +0.000 A 
ENDBRANCH   9  12
ENDBRANCH   1   9
BRANCH   1  18
ATOM     18  C   UNL     1       4.380   5.363  18.745  0.00  0.00    +0.000 C 
BRANCH  18  20
ATOM     19  N   UNL     1       2.633   6.982  19.303  0.00  0.00    +0.000 N 
ATOM     20  C   UNL     1       3.641   6.643  18.401  0.00  0.00    +0.000 C 
ATOM     21  O   UNL     1       3.938   7.293  17.399  0.00  0.00    +0.000 OA
ATOM     22  H   UNL     1       2.544   6.493  20.185  0.00  0.00    +0.000 HD
BRANCH  19  25
ATOM     23  C   UNL     1       1.381   8.364  21.517  0.00  0.00    +0.000 C 
ATOM     24  C   UNL     1       1.356   8.780  20.060  0.00  0.00    +0.000 C 
ATOM     25  N   UNL     1       1.911   8.117  19.082  0.00  0.00    +0.000 NA
BRANCH  24  26
ATOM     26  C   UNL     1       0.608  10.034  19.701  0.00  0.00    +0.000 A 
ATOM     27  C   UNL     1      -0.556  10.328  20.432  0.00  0.00    +0.000 A 
ATOM     28  C   UNL     1      -1.330  11.452  20.132  0.00  0.00    +0.000 A 
ATOM     29  C   UNL     1      -0.954  12.295  19.091  0.00  0.00    +0.000 A 
ATOM     30  C   UNL     1       0.199  12.020  18.355  0.00  0.00    +0.000 A 
ATOM     31  C   UNL     1       0.979  10.898  18.657  0.00  0.00    +0.000 A 
BRANCH  31  32
ATOM     32  O   UNL     1       2.083  10.646  17.893  0.00  0.00    +0.000 OA
ATOM     33  H   UNL     1       1.895   9.902  17.302  0.00  0.00    +0.000 HD
ENDBRANCH  31  32
ENDBRANCH  24  26
ENDBRANCH  19  25
ENDBRANCH  18  20
ENDBRANCH   1  18
TORSDOF 8
ENDMDL
MODEL 3
REMARK VINA RESULT:      -8.1      1.254      1.798
REMARK  Name = 
REMARK  9 active torsions:
REMARK  status: ('A' for Active; 'I' for Inactive)
REMARK    1  A    between atoms: C_1  and  C_2
REMARK    2  A    between atoms: C_2  and  C_25
REMARK    3  A    between atoms: N_3  and  N_4
REMARK    4  A    between atoms: C_5  and  C_7
REMARK    5  A    between atoms: C_7  and  N_8
REMARK    6  A    between atoms: N_8  and  C_9
REMARK    7  A    between atoms: N_8  and  S_16
REMARK    8  A    between atoms: S_16  and  C_19
REMARK    9  A    between atoms: C_30  and  O_31
REMARK                            x       y       z     vdW  Elec       q    Type
REMARK                         _______ _______ _______ _____ _____    ______ ____
ROOT
ATOM      1  N   UNL     1       3.737   5.585  17.850  0.00  0.00    +0.000 N 
ENDROOT
BRANCH   1   2
ATOM      2  C   UNL     1       5.117   5.941  17.927  0.00  0.00    +0.000 A 
ATOM      3  C   UNL     1       5.707   6.763  16.966  0.00  0.00    +0.000 A 
ATOM      4  C   UNL     1       7.048   7.130  17.093  0.00  0.00    +0.000 A 
ATOM      5  C   UNL     1       7.800   6.668  18.173  0.00  0.00    +0.000 A 
ATOM      6  C   UNL     1       7.208   5.833  19.119  0.00  0.00    +0.000 A 
ATOM      7 CL   UNL     1       8.133   5.270  20.457  0.00  0.00    +0.000 Cl
ATOM      8  C   UNL     1       5.871   5.462  19.000  0.00  0.00    +0.000 A 
ENDBRANCH   1   2
BRANCH   1   9
ATOM      9  S   UNL     1       3.328   3.951  17.663  0.00  0.00    +0.000 S 
ATOM     10  O   UNL     1       2.234   3.850  16.717  0.00  0.00    +0.000 OA
ATOM     11  O   UNL     1       4.552   3.205  17.442  0.00  0.00    +0.000 OA
BRANCH   9  12
ATOM     12  C   UNL     1       2.687   3.470  19.256  0.00  0.00    +0.000 A 
ATOM     13  C   UNL     1       1.322   3.626  19.526  0.00  0.00    +0.000 A 
ATOM     14  C   UNL     1       0.812   3.223  20.761  0.00  0.00    +0.000 A 
ATOM     15  C   UNL     1       1.655   2.649  21.712  0.00  0.00    +0.000 A 
ATOM     16  C   UNL     1       3.007   2.453  21.422  0.00  0.00    +0.000 A 
ATOM     17  C   UNL     1       3.526   2.854  20.188  0.00  0.00    +0.000 A 
ENDBRANCH   9  12
ENDBRANCH   1   9
BRANCH   1  18
ATOM     18  C   UNL     1       2.697   6.610  17.638  0.00  0.00    +0.000 C 
BRANCH  18  20
ATOM     19  N   UNL     1       1.719   8.670  18.524  0.00  0.00    +0.000 N 
ATOM     20  C   UNL     1       2.263   7.425  18.842  0.00  0.00    +0.000 C 
ATOM     21  O   UNL     1       2.401   6.987  19.984  0.00  0.00    +0.000 OA
ATOM     22  H   UNL     1       1.490   8.904  17.566  0.00  0.00    +0.000 HD
BRANCH  19  25
ATOM     23  C   UNL     1      -0.766  10.134  18.281  0.00  0.00    +0.000 C 
ATOM     24  C   UNL     1       0.169  10.131  19.473  0.00  0.00    +0.000 C 
ATOM     25  N   UNL     1       1.298   9.478  19.538  0.00  0.00    +0.000 NA
BRANCH  24  26
ATOM     26  C   UNL     1      -0.208  10.969  20.663  0.00  0.00    +0.000 A 
ATOM     27  C   UNL     1      -0.675  10.301  21.807  0.00  0.00    +0.000 A 
ATOM     28  C   UNL     1      -1.084  11.011  22.939  0.00  0.00    +0.000 A 
ATOM     29  C   UNL     1      -1.037  12.401  22.940  0.00  0.00    +0.000 A 
ATOM     30  C   UNL     1      -0.574  13.082  21.814  0.00  0.00    +0.000 A 
ATOM     31  C   UNL     1      -0.158  12.373  20.681  0.00  0.00    +0.000 A 
BRANCH  31  32
ATOM     32  O   UNL     1       0.259  13.077  19.587  0.00  0.00    +0.000 OA
ATOM     33  H   UNL     1       0.928  13.722  19.863  0.00  0.00    +0.000 HD
ENDBRANCH  31  32
ENDBRANCH  24  26
ENDBRANCH  19  25
ENDBRANCH  18  20
ENDBRANCH   1  18
TORSDOF 8
ENDMDL
MODEL 4
REMARK VINA RESULT:      -8.1      1.908      2.359
REMARK  Name = 
REMARK  9 active torsions:
REMARK  status: ('A' for Active; 'I' for Inactive)
REMARK    1  A    between atoms: C_1  and  C_2
REMARK    2  A    between atoms: C_2  and  C_25
REMARK    3  A    between atoms: N_3  and  N_4
REMARK    4  A    between atoms: C_5  and  C_7
REMARK    5  A    between atoms: C_7  and  N_8
REMARK    6  A    between atoms: N_8  and  C_9
REMARK    7  A    between atoms: N_8  and  S_16
REMARK    8  A    between atoms: S_16  and  C_19
REMARK    9  A    between atoms: C_30  and  O_31
REMARK                            x       y       z     vdW  Elec       q    Type
REMARK                         _______ _______ _______ _____ _____    ______ ____
ROOT
ATOM      1  N   UNL     1       3.409   5.250  17.737  0.00  0.00    +0.000 N 
ENDROOT
BRANCH   1   2
ATOM      2  C   UNL     1       4.753   5.718  17.643  0.00  0.00    +0.000 A 
ATOM      3  C   UNL     1       5.191   6.447  16.536  0.00  0.00    +0.000 A 
ATOM      4  C   UNL     1       6.501   6.930  16.494  0.00  0.00    +0.000 A 
ATOM      5  C   UNL     1       7.373   6.677  17.552  0.00  0.00    +0.000 A 
ATOM      6  C   UNL     1       6.935   5.933  18.646  0.00  0.00    +0.000 A 
ATOM      7 CL   UNL     1       8.008   5.629  19.956  0.00  0.00    +0.000 Cl
ATOM      8  C   UNL     1       5.630   5.448  18.696  0.00  0.00    +0.000 A 
ENDBRANCH   1   2
BRANCH   1   9
ATOM      9  S   UNL     1       3.120   3.583  17.640  0.00  0.00    +0.000 S 
ATOM     10  O   UNL     1       2.010   3.354  16.736  0.00  0.00    +0.000 OA
ATOM     11  O   UNL     1       4.390   2.921  17.413  0.00  0.00    +0.000 OA
BRANCH   9  12
ATOM     12  C   UNL     1       2.565   3.134  19.274  0.00  0.00    +0.000 A 
ATOM     13  C   UNL     1       3.492   2.670  20.214  0.00  0.00    +0.000 A 
ATOM     14  C   UNL     1       3.065   2.346  21.503  0.00  0.00    +0.000 A 
ATOM     15  C   UNL     1       1.726   2.505  21.856  0.00  0.00    +0.000 A 
ATOM     16  C   UNL     1       0.813   3.013  20.930  0.00  0.00    +0.000 A 
ATOM     17  C   UNL     1       1.231   3.338  19.638  0.00  0.00    +0.000 A 
ENDBRANCH   9  12
ENDBRANCH   1   9
BRANCH   1  18
ATOM     18  C   UNL     1       2.269   6.180  17.622  0.00  0.00    +0.000 C 
BRANCH  18  20
ATOM     19  N   UNL     1       2.179   8.624  17.591  0.00  0.00    +0.000 N 
ATOM     20  C   UNL     1       2.356   7.490  18.382  0.00  0.00    +0.000 C 
ATOM     21  O   UNL     1       2.571   7.503  19.595  0.00  0.00    +0.000 OA
ATOM     22  H   UNL     1       1.852   8.542  16.636  0.00  0.00    +0.000 HD
BRANCH  19  25
ATOM     23  C   UNL     1      -0.257  10.049  18.235  0.00  0.00    +0.000 C 
ATOM     24  C   UNL     1       1.160  10.509  18.511  0.00  0.00    +0.000 C 
ATOM     25  N   UNL     1       2.239   9.851  18.182  0.00  0.00    +0.000 NA
BRANCH  24  26
ATOM     26  C   UNL     1       1.347  11.840  19.185  0.00  0.00    +0.000 A 
ATOM     27  C   UNL     1       0.776  12.010  20.457  0.00  0.00    +0.000 A 
ATOM     28  C   UNL     1       0.871  13.231  21.131  0.00  0.00    +0.000 A 
ATOM     29  C   UNL     1       1.533  14.302  20.538  0.00  0.00    +0.000 A 
ATOM     30  C   UNL     1       2.107  14.151  19.276  0.00  0.00    +0.000 A 
ATOM     31  C   UNL     1       2.019  12.927  18.601  0.00  0.00    +0.000 A 
BRANCH  31  32
ATOM     32  O   UNL     1       2.568  12.829  17.354  0.00  0.00    +0.000 OA
ATOM     33  H   UNL     1       2.193  13.521  16.788  0.00  0.00    +0.000 HD
ENDBRANCH  31  32
ENDBRANCH  24  26
ENDBRANCH  19  25
ENDBRANCH  18  20
ENDBRANCH   1  18
TORSDOF 8
ENDMDL
MODEL 5
REMARK VINA RESULT:      -8.0      1.329      1.795
REMARK  Name = 
REMARK  9 active torsions:
REMARK  status: ('A' for Active; 'I' for Inactive)
REMARK    1  A    between atoms: C_1  and  C_2
REMARK    2  A    between atoms: C_2  and  C_25
REMARK    3  A    between atoms: N_3  and  N_4
REMARK    4  A    between atoms: C_5  and  C_7
REMARK    5  A    between atoms: C_7  and  N_8
REMARK    6  A    between atoms: N_8  and  C_9
REMARK    7  A    between atoms: N_8  and  S_16
REMARK    8  A    between atoms: S_16  and  C_19
REMARK    9  A    between atoms: C_30  and  O_31
REMARK                            x       y       z     vdW  Elec       q    Type
REMARK                         _______ _______ _______ _____ _____    ______ ____
ROOT
ATOM      1  N   UNL     1       3.259   5.586  17.726  0.00  0.00    +0.000 N 
ENDROOT
BRANCH   1   2
ATOM      2  C   UNL     1       4.681   5.469  17.740  0.00  0.00    +0.000 A 
ATOM      3  C   UNL     1       5.399   5.495  18.937  0.00  0.00    +0.000 A 
ATOM      4  C   UNL     1       6.785   5.334  18.921  0.00  0.00    +0.000 A 
ATOM      5  C   UNL     1       7.455   5.157  17.710  0.00  0.00    +0.000 A 
ATOM      6  C   UNL     1       6.734   5.150  16.518  0.00  0.00    +0.000 A 
ATOM      7 CL   UNL     1       7.558   4.923  15.024  0.00  0.00    +0.000 Cl
ATOM      8  C   UNL     1       5.350   5.310  16.525  0.00  0.00    +0.000 A 
ENDBRANCH   1   2
BRANCH   1   9
ATOM      9  S   UNL     1       2.329   4.174  17.607  0.00  0.00    +0.000 S 
ATOM     10  O   UNL     1       0.968   4.540  17.268  0.00  0.00    +0.000 OA
ATOM     11  O   UNL     1       3.054   3.228  16.780  0.00  0.00    +0.000 OA
BRANCH   9  12
ATOM     12  C   UNL     1       2.298   3.524  19.266  0.00  0.00    +0.000 A 
ATOM     13  C   UNL     1       3.402   2.810  19.749  0.00  0.00    +0.000 A 
ATOM     14  C   UNL     1       3.393   2.325  21.058  0.00  0.00    +0.000 A 
ATOM     15  C   UNL     1       2.298   2.570  21.886  0.00  0.00    +0.000 A 
ATOM     16  C   UNL     1       1.219   3.321  21.416  0.00  0.00    +0.000 A 
ATOM     17  C   UNL     1       1.219   3.809  20.107  0.00  0.00    +0.000 A 
ENDBRANCH   9  12
ENDBRANCH   1   9
BRANCH   1  18
ATOM     18  C   UNL     1       2.604   6.892  17.519  0.00  0.00    +0.000 C 
BRANCH  18  20
ATOM     19  N   UNL     1       1.632   8.918  18.485  0.00  0.00    +0.000 N 
ATOM     20  C   UNL     1       2.169   7.659  18.753  0.00  0.00    +0.000 C 
ATOM     21  O   UNL     1       2.302   7.174  19.877  0.00  0.00    +0.000 OA
ATOM     22  H   UNL     1       1.407   9.192  17.537  0.00  0.00    +0.000 HD
BRANCH  19  25
ATOM     23  C   UNL     1      -0.946  10.230  18.379  0.00  0.00    +0.000 C 
ATOM     24  C   UNL     1       0.043  10.269  19.526  0.00  0.00    +0.000 C 
ATOM     25  N   UNL     1       1.210   9.686  19.529  0.00  0.00    +0.000 NA
BRANCH  24  26
ATOM     26  C   UNL     1      -0.328  11.068  20.745  0.00  0.00    +0.000 A 
ATOM     27  C   UNL     1      -0.774  10.361  21.874  0.00  0.00    +0.000 A 
ATOM     28  C   UNL     1      -1.176  11.033  23.032  0.00  0.00    +0.000 A 
ATOM     29  C   UNL     1      -1.144  12.423  23.074  0.00  0.00    +0.000 A 
ATOM     30  C   UNL     1      -0.702  13.142  21.963  0.00  0.00    +0.000 A 
ATOM     31  C   UNL     1      -0.293  12.471  20.804  0.00  0.00    +0.000 A 
BRANCH  31  32
ATOM     32  O   UNL     1       0.103  13.212  19.727  0.00  0.00    +0.000 OA
ATOM     33  H   UNL     1       0.718  12.688  19.192  0.00  0.00    +0.000 HD
ENDBRANCH  31  32
ENDBRANCH  24  26
ENDBRANCH  19  25
ENDBRANCH  18  20
ENDBRANCH   1  18
TORSDOF 8
ENDMDL
MODEL 6
REMARK VINA RESULT:      -8.0      2.002      4.353
REMARK  Name = 
REMARK  9 active torsions:
REMARK  status: ('A' for Active; 'I' for Inactive)
REMARK    1  A    between atoms: C_1  and  C_2
REMARK    2  A    between atoms: C_2  and  C_25
REMARK    3  A    between atoms: N_3  and  N_4
REMARK    4  A    between atoms: C_5  and  C_7
REMARK    5  A    between atoms: C_7  and  N_8
REMARK    6  A    between atoms: N_8  and  C_9
REMARK    7  A    between atoms: N_8  and  S_16
REMARK    8  A    between atoms: S_16  and  C_19
REMARK    9  A    between atoms: C_30  and  O_31
REMARK                            x       y       z     vdW  Elec       q    Type
REMARK                         _______ _______ _______ _____ _____    ______ ____
ROOT
ATOM      1  N   UNL     1       3.498   5.226  18.469  0.00  0.00    +0.000 N 
ENDROOT
BRANCH   1   2
ATOM      2  C   UNL     1       2.512   4.263  18.840  0.00  0.00    +0.000 A 
ATOM      3  C   UNL     1       1.673   3.682  17.889  0.00  0.00    +0.000 A 
ATOM      4  C   UNL     1       0.748   2.710  18.277  0.00  0.00    +0.000 A 
ATOM      5  C   UNL     1       0.657   2.327  19.615  0.00  0.00    +0.000 A 
ATOM      6  C   UNL     1       1.487   2.924  20.562  0.00  0.00    +0.000 A 
ATOM      7 CL   UNL     1       1.381   2.445  22.211  0.00  0.00    +0.000 Cl
ATOM      8  C   UNL     1       2.411   3.895  20.183  0.00  0.00    +0.000 A 
ENDBRANCH   1   2
BRANCH   1   9
ATOM      9  S   UNL     1       5.134   4.827  18.655  0.00  0.00    +0.000 S 
ATOM     10  O   UNL     1       5.822   5.950  19.261  0.00  0.00    +0.000 OA
ATOM     11  O   UNL     1       5.208   3.514  19.266  0.00  0.00    +0.000 OA
BRANCH   9  12
ATOM     12  C   UNL     1       5.744   4.678  16.986  0.00  0.00    +0.000 A 
ATOM     13  C   UNL     1       4.877   4.260  15.969  0.00  0.00    +0.000 A 
ATOM     14  C   UNL     1       5.345   4.171  14.657  0.00  0.00    +0.000 A 
ATOM     15  C   UNL     1       6.662   4.518  14.359  0.00  0.00    +0.000 A 
ATOM     16  C   UNL     1       7.510   4.978  15.368  0.00  0.00    +0.000 A 
ATOM     17  C   UNL     1       7.051   5.070  16.684  0.00  0.00    +0.000 A 
ENDBRANCH   9  12
ENDBRANCH   1   9
BRANCH   1  18
ATOM     18  C   UNL     1       3.130   6.633  18.215  0.00  0.00    +0.000 C 
BRANCH  18  20
ATOM     19  N   UNL     1       1.893   8.613  18.946  0.00  0.00    +0.000 N 
ATOM     20  C   UNL     1       2.434   7.386  19.333  0.00  0.00    +0.000 C 
ATOM     21  O   UNL     1       2.378   6.918  20.470  0.00  0.00    +0.000 OA
ATOM     22  H   UNL     1       1.837   8.867  17.968  0.00  0.00    +0.000 HD
BRANCH  19  25
ATOM     23  C   UNL     1      -0.496  10.080  18.228  0.00  0.00    +0.000 C 
ATOM     24  C   UNL     1       0.150  10.018  19.597  0.00  0.00    +0.000 C 
ATOM     25  N   UNL     1       1.245   9.366  19.879  0.00  0.00    +0.000 NA
BRANCH  24  26
ATOM     26  C   UNL     1      -0.494  10.792  20.714  0.00  0.00    +0.000 A 
ATOM     27  C   UNL     1      -0.910  12.106  20.437  0.00  0.00    +0.000 A 
ATOM     28  C   UNL     1      -1.480  12.905  21.432  0.00  0.00    +0.000 A 
ATOM     29  C   UNL     1      -1.636  12.403  22.720  0.00  0.00    +0.000 A 
ATOM     30  C   UNL     1      -1.230  11.101  23.013  0.00  0.00    +0.000 A 
ATOM     31  C   UNL     1      -0.664  10.297  22.017  0.00  0.00    +0.000 A 
BRANCH  31  32
ATOM     32  O   UNL     1      -0.251   9.038  22.351  0.00  0.00    +0.000 OA
ATOM     33  H   UNL     1      -1.021   8.511  22.610  0.00  0.00    +0.000 HD
ENDBRANCH  31  32
ENDBRANCH  24  26
ENDBRANCH  19  25
ENDBRANCH  18  20
ENDBRANCH   1  18
TORSDOF 8
ENDMDL
MODEL 7
REMARK VINA RESULT:      -7.9      1.095      1.406
REMARK  Name = 
REMARK  9 active torsions:
REMARK  status: ('A' for Active; 'I' for Inactive)
REMARK    1  A    between atoms: C_1  and  C_2
REMARK    2  A    between atoms: C_2  and  C_25
REMARK    3  A    between atoms: N_3  and  N_4
REMARK    4  A    between atoms: C_5  and  C_7
REMARK    5  A    between atoms: C_7  and  N_8
REMARK    6  A    between atoms: N_8  and  C_9
REMARK    7  A    between atoms: N_8  and  S_16
REMARK    8  A    between atoms: S_16  and  C_19
REMARK    9  A    between atoms: C_30  and  O_31
REMARK                            x       y       z     vdW  Elec       q    Type
REMARK                         _______ _______ _______ _____ _____    ______ ____
ROOT
ATOM      1  N   UNL     1       3.464   5.572  17.679  0.00  0.00    +0.000 N 
ENDROOT
BRANCH   1   2
ATOM      2  C   UNL     1       4.867   5.334  17.568  0.00  0.00    +0.000 A 
ATOM      3  C   UNL     1       5.679   5.247  18.700  0.00  0.00    +0.000 A 
ATOM      4  C   UNL     1       7.040   4.969  18.560  0.00  0.00    +0.000 A 
ATOM      5  C   UNL     1       7.590   4.788  17.291  0.00  0.00    +0.000 A 
ATOM      6  C   UNL     1       6.776   4.893  16.164  0.00  0.00    +0.000 A 
ATOM      7 CL   UNL     1       7.452   4.660  14.599  0.00  0.00    +0.000 Cl
ATOM      8  C   UNL     1       5.417   5.170  16.295  0.00  0.00    +0.000 A 
ENDBRANCH   1   2
BRANCH   1   9
ATOM      9  S   UNL     1       2.405   4.254  17.570  0.00  0.00    +0.000 S 
ATOM     10  O   UNL     1       1.073   4.749  17.281  0.00  0.00    +0.000 OA
ATOM     11  O   UNL     1       3.014   3.260  16.707  0.00  0.00    +0.000 OA
BRANCH   9  12
ATOM     12  C   UNL     1       2.366   3.580  19.220  0.00  0.00    +0.000 A 
ATOM     13  C   UNL     1       3.485   2.898  19.714  0.00  0.00    +0.000 A 
ATOM     14  C   UNL     1       3.468   2.396  21.016  0.00  0.00    +0.000 A 
ATOM     15  C   UNL     1       2.350   2.591  21.826  0.00  0.00    +0.000 A 
ATOM     16  C   UNL     1       1.255   3.311  21.346  0.00  0.00    +0.000 A 
ATOM     17  C   UNL     1       1.263   3.817  20.044  0.00  0.00    +0.000 A 
ENDBRANCH   9  12
ENDBRANCH   1   9
BRANCH   1  18
ATOM     18  C   UNL     1       2.914   6.939  17.592  0.00  0.00    +0.000 C 
BRANCH  18  20
ATOM     19  N   UNL     1       1.497   8.662  18.596  0.00  0.00    +0.000 N 
ATOM     20  C   UNL     1       2.229   7.496  18.825  0.00  0.00    +0.000 C 
ATOM     21  O   UNL     1       2.341   6.937  19.917  0.00  0.00    +0.000 OA
ATOM     22  H   UNL     1       1.318   8.981  17.653  0.00  0.00    +0.000 HD
BRANCH  19  25
ATOM     23  C   UNL     1       1.398  11.544  18.835  0.00  0.00    +0.000 C 
ATOM     24  C   UNL     1       0.755  10.537  19.766  0.00  0.00    +0.000 C 
ATOM     25  N   UNL     1       0.843   9.240  19.643  0.00  0.00    +0.000 NA
BRANCH  24  26
ATOM     26  C   UNL     1      -0.015  11.063  20.946  0.00  0.00    +0.000 A 
ATOM     27  C   UNL     1      -0.328  12.433  20.958  0.00  0.00    +0.000 A 
ATOM     28  C   UNL     1      -1.006  13.006  22.038  0.00  0.00    +0.000 A 
ATOM     29  C   UNL     1      -1.375  12.218  23.123  0.00  0.00    +0.000 A 
ATOM     30  C   UNL     1      -1.074  10.856  23.128  0.00  0.00    +0.000 A 
ATOM     31  C   UNL     1      -0.400  10.278  22.045  0.00  0.00    +0.000 A 
BRANCH  31  32
ATOM     32  O   UNL     1      -0.097   8.947  22.101  0.00  0.00    +0.000 OA
ATOM     33  H   UNL     1       0.841   8.846  22.323  0.00  0.00    +0.000 HD
ENDBRANCH  31  32
ENDBRANCH  24  26
ENDBRANCH  19  25
ENDBRANCH  18  20
ENDBRANCH   1  18
TORSDOF 8
ENDMDL
MODEL 8
REMARK VINA RESULT:      -7.9      2.458      4.824
REMARK  Name = 
REMARK  9 active torsions:
REMARK  status: ('A' for Active; 'I' for Inactive)
REMARK    1  A    between atoms: C_1  and  C_2
REMARK    2  A    between atoms: C_2  and  C_25
REMARK    3  A    between atoms: N_3  and  N_4
REMARK    4  A    between atoms: C_5  and  C_7
REMARK    5  A    between atoms: C_7  and  N_8
REMARK    6  A    between atoms: N_8  and  C_9
REMARK    7  A    between atoms: N_8  and  S_16
REMARK    8  A    between atoms: S_16  and  C_19
REMARK    9  A    between atoms: C_30  and  O_31
REMARK                            x       y       z     vdW  Elec       q    Type
REMARK                         _______ _______ _______ _____ _____    ______ ____
ROOT
ATOM      1  N   UNL     1       3.960   5.142  19.044  0.00  0.00    +0.000 N 
ENDROOT
BRANCH   1   2
ATOM      2  C   UNL     1       2.834   4.290  19.247  0.00  0.00    +0.000 A 
ATOM      3  C   UNL     1       2.066   3.835  18.174  0.00  0.00    +0.000 A 
ATOM      4  C   UNL     1       0.997   2.966  18.402  0.00  0.00    +0.000 A 
ATOM      5  C   UNL     1       0.691   2.561  19.701  0.00  0.00    +0.000 A 
ATOM      6  C   UNL     1       1.451   3.033  20.769  0.00  0.00    +0.000 A 
ATOM      7 CL   UNL     1       1.078   2.525  22.371  0.00  0.00    +0.000 Cl
ATOM      8  C   UNL     1       2.519   3.900  20.550  0.00  0.00    +0.000 A 
ENDBRANCH   1   2
BRANCH   1   9
ATOM      9  S   UNL     1       5.502   4.445  18.962  0.00  0.00    +0.000 S 
ATOM     10  O   UNL     1       6.440   5.305  19.658  0.00  0.00    +0.000 OA
ATOM     11  O   UNL     1       5.383   3.048  19.333  0.00  0.00    +0.000 OA
BRANCH   9  12
ATOM     12  C   UNL     1       5.923   4.506  17.230  0.00  0.00    +0.000 A 
ATOM     13  C   UNL     1       4.942   4.224  16.272  0.00  0.00    +0.000 A 
ATOM     14  C   UNL     1       5.261   4.300  14.915  0.00  0.00    +0.000 A 
ATOM     15  C   UNL     1       6.545   4.676  14.518  0.00  0.00    +0.000 A 
ATOM     16  C   UNL     1       7.507   5.000  15.476  0.00  0.00    +0.000 A 
ATOM     17  C   UNL     1       7.196   4.926  16.836  0.00  0.00    +0.000 A 
ENDBRANCH   9  12
ENDBRANCH   1   9
BRANCH   1  18
ATOM     18  C   UNL     1       3.845   6.605  19.197  0.00  0.00    +0.000 C 
BRANCH  18  20
ATOM     19  N   UNL     1       2.010   8.106  19.802  0.00  0.00    +0.000 N 
ATOM     20  C   UNL     1       2.519   7.244  18.830  0.00  0.00    +0.000 C 
ATOM     21  O   UNL     1       1.972   6.992  17.756  0.00  0.00    +0.000 OA
ATOM     22  H   UNL     1       2.580   8.390  20.589  0.00  0.00    +0.000 HD
BRANCH  19  25
ATOM     23  C   UNL     1       1.923  10.500  18.178  0.00  0.00    +0.000 C 
ATOM     24  C   UNL     1       0.743   9.796  18.816  0.00  0.00    +0.000 C 
ATOM     25  N   UNL     1       0.822   8.731  19.566  0.00  0.00    +0.000 NA
BRANCH  24  26
ATOM     26  C   UNL     1      -0.625  10.384  18.601  0.00  0.00    +0.000 A 
ATOM     27  C   UNL     1      -1.311  10.021  17.430  0.00  0.00    +0.000 A 
ATOM     28  C   UNL     1      -2.569  10.557  17.138  0.00  0.00    +0.000 A 
ATOM     29  C   UNL     1      -3.155  11.467  18.011  0.00  0.00    +0.000 A 
ATOM     30  C   UNL     1      -2.490  11.837  19.180  0.00  0.00    +0.000 A 
ATOM     31  C   UNL     1      -1.232  11.298  19.478  0.00  0.00    +0.000 A 
BRANCH  31  32
ATOM     32  O   UNL     1      -0.600  11.709  20.616  0.00  0.00    +0.000 OA
ATOM     33  H   UNL     1      -0.955  12.571  20.882  0.00  0.00    +0.000 HD
ENDBRANCH  31  32
ENDBRANCH  24  26
ENDBRANCH  19  25
ENDBRANCH  18  20
ENDBRANCH   1  18
TORSDOF 8
ENDMDL
MODEL 9
REMARK VINA RESULT:      -7.8      2.535      4.773
REMARK  Name = 
REMARK  9 active torsions:
REMARK  status: ('A' for Active; 'I' for Inactive)
REMARK    1  A    between atoms: C_1  and  C_2
REMARK    2  A    between atoms: C_2  and  C_25
REMARK    3  A    between atoms: N_3  and  N_4
REMARK    4  A    between atoms: C_5  and  C_7
REMARK    5  A    between atoms: C_7  and  N_8
REMARK    6  A    between atoms: N_8  and  C_9
REMARK    7  A    between atoms: N_8  and  S_16
REMARK    8  A    between atoms: S_16  and  C_19
REMARK    9  A    between atoms: C_30  and  O_31
REMARK                            x       y       z     vdW  Elec       q    Type
REMARK                         _______ _______ _______ _____ _____    ______ ____
ROOT
ATOM      1  N   UNL     1       3.958   5.219  19.029  0.00  0.00    +0.000 N 
ENDROOT
BRANCH   1   2
ATOM      2  C   UNL     1       2.810   4.392  19.219  0.00  0.00    +0.000 A 
ATOM      3  C   UNL     1       1.958   4.080  18.159  0.00  0.00    +0.000 A 
ATOM      4  C   UNL     1       0.869   3.231  18.367  0.00  0.00    +0.000 A 
ATOM      5  C   UNL     1       0.627   2.703  19.635  0.00  0.00    +0.000 A 
ATOM      6  C   UNL     1       1.472   3.033  20.693  0.00  0.00    +0.000 A 
ATOM      7 CL   UNL     1       1.179   2.375  22.256  0.00  0.00    +0.000 Cl
ATOM      8  C   UNL     1       2.561   3.879  20.494  0.00  0.00    +0.000 A 
ENDBRANCH   1   2
BRANCH   1   9
ATOM      9  S   UNL     1       5.484   4.486  18.952  0.00  0.00    +0.000 S 
ATOM     10  O   UNL     1       6.435   5.316  19.666  0.00  0.00    +0.000 OA
ATOM     11  O   UNL     1       5.329   3.089  19.307  0.00  0.00    +0.000 OA
BRANCH   9  12
ATOM     12  C   UNL     1       5.921   4.557  17.225  0.00  0.00    +0.000 A 
ATOM     13  C   UNL     1       7.205   4.976  16.855  0.00  0.00    +0.000 A 
ATOM     14  C   UNL     1       7.560   5.004  15.506  0.00  0.00    +0.000 A 
ATOM     15  C   UNL     1       6.647   4.596  14.534  0.00  0.00    +0.000 A 
ATOM     16  C   UNL     1       5.384   4.136  14.910  0.00  0.00    +0.000 A 
ATOM     17  C   UNL     1       5.020   4.105  16.258  0.00  0.00    +0.000 A 
ENDBRANCH   9  12
ENDBRANCH   1   9
BRANCH   1  18
ATOM     18  C   UNL     1       3.876   6.683  19.192  0.00  0.00    +0.000 C 
BRANCH  18  20
ATOM     19  N   UNL     1       2.074   8.059  18.271  0.00  0.00    +0.000 N 
ATOM     20  C   UNL     1       2.496   7.292  19.357  0.00  0.00    +0.000 C 
ATOM     21  O   UNL     1       1.841   7.101  20.382  0.00  0.00    +0.000 OA
ATOM     22  H   UNL     1       2.590   8.047  17.400  0.00  0.00    +0.000 HD
BRANCH  19  25
ATOM     23  C   UNL     1       1.841  10.943  18.211  0.00  0.00    +0.000 C 
ATOM     24  C   UNL     1       0.703   9.944  18.270  0.00  0.00    +0.000 C 
ATOM     25  N   UNL     1       0.846   8.648  18.323  0.00  0.00    +0.000 NA
BRANCH  24  26
ATOM     26  C   UNL     1      -0.701  10.481  18.306  0.00  0.00    +0.000 A 
ATOM     27  C   UNL     1      -1.572  10.091  17.275  0.00  0.00    +0.000 A 
ATOM     28  C   UNL     1      -2.881  10.579  17.215  0.00  0.00    +0.000 A 
ATOM     29  C   UNL     1      -3.334  11.470  18.182  0.00  0.00    +0.000 A 
ATOM     30  C   UNL     1      -2.483  11.868  19.214  0.00  0.00    +0.000 A 
ATOM     31  C   UNL     1      -1.174  11.376  19.280  0.00  0.00    +0.000 A 
BRANCH  31  32
ATOM     32  O   UNL     1      -0.363  11.813  20.289  0.00  0.00    +0.000 OA
ATOM     33  H   UNL     1      -0.467  12.772  20.385  0.00  0.00    +0.000 HD
ENDBRANCH  31  32
ENDBRANCH  24  26
ENDBRANCH  19  25
ENDBRANCH  18  20
ENDBRANCH   1  18
TORSDOF 8
ENDMDL
