MODEL 1
REMARK VINA RESULT:      -7.1      0.000      0.000
REMARK  Name = 
REMARK  11 active torsions:
REMARK  status: ('A' for Active; 'I' for Inactive)
REMARK    1  A    between atoms: C_1  and  C_2
REMARK    2  A    between atoms: C_2  and  C_3
REMARK    3  A    between atoms: C_2  and  N_6
REMARK    4  A    between atoms: N_6  and  C_7
REMARK    5  A    between atoms: N_6  and  C_8
REMARK    6  A    between atoms: C_8  and  C_9
REMARK    7  A    between atoms: C_10  and  C_11
REMARK    8  A    between atoms: C_11  and  O_13
REMARK    9  A    between atoms: C_17  and  C_18
REMARK   10  A    between atoms: C_18  and  C_19
REMARK   11  A    between atoms: C_18  and  O_20
REMARK                            x       y       z     vdW  Elec       q    Type
REMARK                         _______ _______ _______ _____ _____    ______ ____
ROOT
ATOM      1  C   UNL     1       5.070   5.410  18.468  0.00  0.00    +0.000 C 
ATOM      2  C   UNL     1       6.358   5.746  18.230  0.00  0.00    +0.000 C 
ATOM      3  N   UNL     1       6.760   5.636  16.898  0.00  0.00    +0.000 N 
ATOM      4  C   UNL     1       7.408   4.481  16.522  0.00  0.00    +0.000 C 
ATOM      5  O   UNL     1       8.295   3.836  17.035  0.00  0.00    +0.000 OA
ATOM      6  C   UNL     1       6.394   4.183  15.418  0.00  0.00    +0.000 C 
ATOM      7  C   UNL     1       5.643   5.417  15.953  0.00  0.00    +0.000 C 
ATOM      8  S   UNL     1       4.189   5.034  16.990  0.00  0.00    +0.000 S 
ENDROOT
BRANCH   2   9
ATOM      9  C   UNL     1       7.434   6.125  19.208  0.00  0.00    +0.000 C 
ATOM     10  O   UNL     1       7.601   5.525  20.261  0.00  0.00    +0.000 OA
BRANCH   9  11
ATOM     11  O   UNL     1       8.262   7.126  18.850  0.00  0.00    +0.000 OA
ATOM     12  H   UNL     1       8.232   7.392  17.906  0.00  0.00    +0.000 HD
ENDBRANCH   9  11
ENDBRANCH   2   9
BRANCH   6  13
ATOM     13  C   UNL     1       6.917   4.262  13.997  0.00  0.00    +0.000 C 
ATOM     14  C   UNL     1       5.893   3.737  12.999  0.00  0.00    +0.000 C 
BRANCH  13  15
ATOM     15  O   UNL     1       7.203   5.631  13.706  0.00  0.00    +0.000 OA
ATOM     16  H   UNL     1       7.724   6.002  14.442  0.00  0.00    +0.000 HD
ENDBRANCH  13  15
ENDBRANCH   6  13
BRANCH   1  17
ATOM     17  C   UNL     1       4.341   5.217  19.772  0.00  0.00    +0.000 C 
BRANCH  17  18
ATOM     18  N   UNL     1       2.996   4.601  19.667  0.00  0.00    +0.000 NA
ATOM     19  C   UNL     1       2.020   5.576  20.209  0.00  0.00    +0.000 C 
BRANCH  18  21
ATOM     20  C   UNL     1       1.500   2.768  20.717  0.00  0.00    +0.000 C 
ATOM     21  C   UNL     1       2.911   3.296  20.425  0.00  0.00    +0.000 C 
BRANCH  21  22
ATOM     22  C   UNL     1       3.739   2.194  19.717  0.00  0.00    +0.000 C 
ATOM     23  N   UNL     1       3.161   1.633  18.613  0.00  0.00    +0.000 N 
ATOM     24  O   UNL     1       4.858   1.835  20.072  0.00  0.00    +0.000 OA
ATOM     25  H   UNL     1       2.166   1.703  18.447  0.00  0.00    +0.000 HD
ATOM     26  H   UNL     1       3.661   0.865  18.182  0.00  0.00    +0.000 HD
ENDBRANCH  21  22
ENDBRANCH  18  21
ENDBRANCH  17  18
ENDBRANCH   1  17
TORSDOF 8
ENDMDL
MODEL 2
REMARK VINA RESULT:      -7.0      0.839      1.076
REMARK  Name = 
REMARK  11 active torsions:
REMARK  status: ('A' for Active; 'I' for Inactive)
REMARK    1  A    between atoms: C_1  and  C_2
REMARK    2  A    between atoms: C_2  and  C_3
REMARK    3  A    between atoms: C_2  and  N_6
REMARK    4  A    between atoms: N_6  and  C_7
REMARK    5  A    between atoms: N_6  and  C_8
REMARK    6  A    between atoms: C_8  and  C_9
REMARK    7  A    between atoms: C_10  and  C_11
REMARK    8  A    between atoms: C_11  and  O_13
REMARK    9  A    between atoms: C_17  and  C_18
REMARK   10  A    between atoms: C_18  and  C_19
REMARK   11  A    between atoms: C_18  and  O_20
REMARK                            x       y       z     vdW  Elec       q    Type
REMARK                         _______ _______ _______ _____ _____    ______ ____
ROOT
ATOM      1  C   UNL     1       5.079   5.450  18.384  0.00  0.00    +0.000 C 
ATOM      2  C   UNL     1       6.350   5.806  18.094  0.00  0.00    +0.000 C 
ATOM      3  N   UNL     1       6.713   5.658  16.754  0.00  0.00    +0.000 N 
ATOM      4  C   UNL     1       7.375   4.505  16.396  0.00  0.00    +0.000 C 
ATOM      5  O   UNL     1       8.292   3.898  16.902  0.00  0.00    +0.000 OA
ATOM      6  C   UNL     1       6.333   4.146  15.337  0.00  0.00    +0.000 C 
ATOM      7  C   UNL     1       5.572   5.382  15.854  0.00  0.00    +0.000 C 
ATOM      8  S   UNL     1       4.160   5.004  16.950  0.00  0.00    +0.000 S 
ENDROOT
BRANCH   2   9
ATOM      9  C   UNL     1       7.449   6.242  19.022  0.00  0.00    +0.000 C 
ATOM     10  O   UNL     1       8.169   7.199  18.777  0.00  0.00    +0.000 OA
BRANCH   9  11
ATOM     11  O   UNL     1       7.573   5.569  20.183  0.00  0.00    +0.000 OA
ATOM     12  H   UNL     1       6.982   4.794  20.297  0.00  0.00    +0.000 HD
ENDBRANCH   9  11
ENDBRANCH   2   9
BRANCH   6  13
ATOM     13  C   UNL     1       6.809   4.187  13.897  0.00  0.00    +0.000 C 
ATOM     14  C   UNL     1       5.716   3.731  12.939  0.00  0.00    +0.000 C 
BRANCH  13  15
ATOM     15  O   UNL     1       7.177   5.533  13.591  0.00  0.00    +0.000 OA
ATOM     16  H   UNL     1       6.363   6.058  13.472  0.00  0.00    +0.000 HD
ENDBRANCH  13  15
ENDBRANCH   6  13
BRANCH   1  17
ATOM     17  C   UNL     1       4.396   5.288  19.717  0.00  0.00    +0.000 C 
BRANCH  17  18
ATOM     18  N   UNL     1       3.084   4.597  19.683  0.00  0.00    +0.000 NA
ATOM     19  C   UNL     1       2.142   5.398  20.501  0.00  0.00    +0.000 C 
BRANCH  18  21
ATOM     20  C   UNL     1       2.346   2.878  21.472  0.00  0.00    +0.000 C 
ATOM     21  C   UNL     1       3.173   3.186  20.216  0.00  0.00    +0.000 C 
BRANCH  21  22
ATOM     22  C   UNL     1       2.831   2.158  19.108  0.00  0.00    +0.000 C 
ATOM     23  N   UNL     1       3.892   1.475  18.583  0.00  0.00    +0.000 N 
ATOM     24  O   UNL     1       1.694   1.918  18.715  0.00  0.00    +0.000 OA
ATOM     25  H   UNL     1       4.839   1.817  18.680  0.00  0.00    +0.000 HD
ATOM     26  H   UNL     1       3.691   0.851  17.811  0.00  0.00    +0.000 HD
ENDBRANCH  21  22
ENDBRANCH  18  21
ENDBRANCH  17  18
ENDBRANCH   1  17
TORSDOF 8
ENDMDL
MODEL 3
REMARK VINA RESULT:      -7.0      1.002      1.276
REMARK  Name = 
REMARK  11 active torsions:
REMARK  status: ('A' for Active; 'I' for Inactive)
REMARK    1  A    between atoms: C_1  and  C_2
REMARK    2  A    between atoms: C_2  and  C_3
REMARK    3  A    between atoms: C_2  and  N_6
REMARK    4  A    between atoms: N_6  and  C_7
REMARK    5  A    between atoms: N_6  and  C_8
REMARK    6  A    between atoms: C_8  and  C_9
REMARK    7  A    between atoms: C_10  and  C_11
REMARK    8  A    between atoms: C_11  and  O_13
REMARK    9  A    between atoms: C_17  and  C_18
REMARK   10  A    between atoms: C_18  and  C_19
REMARK   11  A    between atoms: C_18  and  O_20
REMARK                            x       y       z     vdW  Elec       q    Type
REMARK                         _______ _______ _______ _____ _____    ______ ____
ROOT
ATOM      1  C   UNL     1       5.015   5.483  18.391  0.00  0.00    +0.000 C 
ATOM      2  C   UNL     1       6.254   5.855  18.001  0.00  0.00    +0.000 C 
ATOM      3  N   UNL     1       6.499   5.747  16.631  0.00  0.00    +0.000 N 
ATOM      4  C   UNL     1       7.131   4.609  16.184  0.00  0.00    +0.000 C 
ATOM      5  O   UNL     1       8.092   3.993  16.591  0.00  0.00    +0.000 OA
ATOM      6  C   UNL     1       6.003   4.273  15.210  0.00  0.00    +0.000 C 
ATOM      7  C   UNL     1       5.285   5.489  15.826  0.00  0.00    +0.000 C 
ATOM      8  S   UNL     1       3.976   5.072  17.030  0.00  0.00    +0.000 S 
ENDROOT
BRANCH   2   9
ATOM      9  C   UNL     1       7.428   6.272  18.843  0.00  0.00    +0.000 C 
ATOM     10  O   UNL     1       8.124   7.236  18.559  0.00  0.00    +0.000 OA
BRANCH   9  11
ATOM     11  O   UNL     1       7.651   5.571  19.972  0.00  0.00    +0.000 OA
ATOM     12  H   UNL     1       7.815   6.101  20.782  0.00  0.00    +0.000 HD
ENDBRANCH   9  11
ENDBRANCH   2   9
BRANCH   6  13
ATOM     13  C   UNL     1       6.350   4.357  13.737  0.00  0.00    +0.000 C 
ATOM     14  C   UNL     1       7.682   5.064  13.520  0.00  0.00    +0.000 C 
BRANCH  13  15
ATOM     15  O   UNL     1       6.431   3.027  13.224  0.00  0.00    +0.000 OA
ATOM     16  H   UNL     1       6.741   2.438  13.936  0.00  0.00    +0.000 HD
ENDBRANCH  13  15
ENDBRANCH   6  13
BRANCH   1  17
ATOM     17  C   UNL     1       4.451   5.279  19.773  0.00  0.00    +0.000 C 
BRANCH  17  18
ATOM     18  N   UNL     1       3.163   4.547  19.836  0.00  0.00    +0.000 NA
ATOM     19  C   UNL     1       2.191   5.422  20.535  0.00  0.00    +0.000 C 
BRANCH  18  21
ATOM     20  C   UNL     1       2.022   2.677  21.215  0.00  0.00    +0.000 C 
ATOM     21  C   UNL     1       3.297   3.228  20.562  0.00  0.00    +0.000 C 
BRANCH  21  22
ATOM     22  C   UNL     1       3.908   2.149  19.632  0.00  0.00    +0.000 C 
ATOM     23  N   UNL     1       5.109   1.632  20.031  0.00  0.00    +0.000 N 
ATOM     24  O   UNL     1       3.371   1.734  18.609  0.00  0.00    +0.000 OA
ATOM     25  H   UNL     1       5.696   2.116  20.697  0.00  0.00    +0.000 HD
ATOM     26  H   UNL     1       5.551   0.978  19.397  0.00  0.00    +0.000 HD
ENDBRANCH  21  22
ENDBRANCH  18  21
ENDBRANCH  17  18
ENDBRANCH   1  17
TORSDOF 8
ENDMDL
MODEL 4
REMARK VINA RESULT:      -6.6      2.721      6.362
REMARK  Name = 
REMARK  11 active torsions:
REMARK  status: ('A' for Active; 'I' for Inactive)
REMARK    1  A    between atoms: C_1  and  C_2
REMARK    2  A    between atoms: C_2  and  C_3
REMARK    3  A    between atoms: C_2  and  N_6
REMARK    4  A    between atoms: N_6  and  C_7
REMARK    5  A    between atoms: N_6  and  C_8
REMARK    6  A    between atoms: C_8  and  C_9
REMARK    7  A    between atoms: C_10  and  C_11
REMARK    8  A    between atoms: C_11  and  O_13
REMARK    9  A    between atoms: C_17  and  C_18
REMARK   10  A    between atoms: C_18  and  C_19
REMARK   11  A    between atoms: C_18  and  O_20
REMARK                            x       y       z     vdW  Elec       q    Type
REMARK                         _______ _______ _______ _____ _____    ______ ____
ROOT
ATOM      1  C   UNL     1       4.092   5.391  17.439  0.00  0.00    +0.000 C 
ATOM      2  C   UNL     1       3.032   4.782  18.014  0.00  0.00    +0.000 C 
ATOM      3  N   UNL     1       2.101   5.644  18.595  0.00  0.00    +0.000 N 
ATOM      4  C   UNL     1       2.200   5.870  19.950  0.00  0.00    +0.000 C 
ATOM      5  O   UNL     1       2.379   5.130  20.892  0.00  0.00    +0.000 OA
ATOM      6  C   UNL     1       2.310   7.383  19.766  0.00  0.00    +0.000 C 
ATOM      7  C   UNL     1       2.312   7.069  18.257  0.00  0.00    +0.000 C 
ATOM      8  S   UNL     1       3.957   7.147  17.465  0.00  0.00    +0.000 S 
ENDROOT
BRANCH   2   9
ATOM      9  C   UNL     1       2.767   3.315  18.198  0.00  0.00    +0.000 C 
ATOM     10  O   UNL     1       2.038   2.683  17.446  0.00  0.00    +0.000 OA
BRANCH   9  11
ATOM     11  O   UNL     1       3.420   2.695  19.201  0.00  0.00    +0.000 OA
ATOM     12  H   UNL     1       2.869   2.403  19.958  0.00  0.00    +0.000 HD
ENDBRANCH   9  11
ENDBRANCH   2   9
BRANCH   6  13
ATOM     13  C   UNL     1       1.147   8.202  20.292  0.00  0.00    +0.000 C 
ATOM     14  C   UNL     1       1.343   8.565  21.759  0.00  0.00    +0.000 C 
BRANCH  13  15
ATOM     15  O   UNL     1       1.061   9.398  19.516  0.00  0.00    +0.000 OA
ATOM     16  H   UNL     1       0.797   9.160  18.608  0.00  0.00    +0.000 HD
ENDBRANCH  13  15
ENDBRANCH   6  13
BRANCH   1  17
ATOM     17  C   UNL     1       5.370   4.809  16.894  0.00  0.00    +0.000 C 
BRANCH  17  18
ATOM     18  N   UNL     1       6.237   5.753  16.149  0.00  0.00    +0.000 NA
ATOM     19  C   UNL     1       6.637   5.084  14.887  0.00  0.00    +0.000 C 
BRANCH  18  21
ATOM     20  C   UNL     1       7.439   7.544  17.580  0.00  0.00    +0.000 C 
ATOM     21  C   UNL     1       7.460   6.148  16.944  0.00  0.00    +0.000 C 
BRANCH  21  22
ATOM     22  C   UNL     1       7.772   5.089  18.033  0.00  0.00    +0.000 C 
ATOM     23  N   UNL     1       7.338   5.389  19.294  0.00  0.00    +0.000 N 
ATOM     24  O   UNL     1       8.343   4.025  17.818  0.00  0.00    +0.000 OA
ATOM     25  H   UNL     1       7.111   6.337  19.562  0.00  0.00    +0.000 HD
ATOM     26  H   UNL     1       7.596   4.738  20.026  0.00  0.00    +0.000 HD
ENDBRANCH  21  22
ENDBRANCH  18  21
ENDBRANCH  17  18
ENDBRANCH   1  17
TORSDOF 8
ENDMDL
MODEL 5
REMARK VINA RESULT:      -6.5      2.016      2.397
REMARK  Name = 
REMARK  11 active torsions:
REMARK  status: ('A' for Active; 'I' for Inactive)
REMARK    1  A    between atoms: C_1  and  C_2
REMARK    2  A    between atoms: C_2  and  C_3
REMARK    3  A    between atoms: C_2  and  N_6
REMARK    4  A    between atoms: N_6  and  C_7
REMARK    5  A    between atoms: N_6  and  C_8
REMARK    6  A    between atoms: C_8  and  C_9
REMARK    7  A    between atoms: C_10  and  C_11
REMARK    8  A    between atoms: C_11  and  O_13
REMARK    9  A    between atoms: C_17  and  C_18
REMARK   10  A    between atoms: C_18  and  C_19
REMARK   11  A    between atoms: C_18  and  O_20
REMARK                            x       y       z     vdW  Elec       q    Type
REMARK                         _______ _______ _______ _____ _____    ______ ____
ROOT
ATOM      1  C   UNL     1       5.081   6.382  17.257  0.00  0.00    +0.000 C 
ATOM      2  C   UNL     1       5.920   5.342  17.457  0.00  0.00    +0.000 C 
ATOM      3  N   UNL     1       6.452   4.782  16.294  0.00  0.00    +0.000 N 
ATOM      4  C   UNL     1       5.829   3.666  15.782  0.00  0.00    +0.000 C 
ATOM      5  O   UNL     1       5.409   2.654  16.297  0.00  0.00    +0.000 OA
ATOM      6  C   UNL     1       5.606   4.324  14.420  0.00  0.00    +0.000 C 
ATOM      7  C   UNL     1       6.203   5.584  15.076  0.00  0.00    +0.000 C 
ATOM      8  S   UNL     1       4.974   6.845  15.562  0.00  0.00    +0.000 S 
ENDROOT
BRANCH   2   9
ATOM      9  C   UNL     1       6.282   4.648  18.740  0.00  0.00    +0.000 C 
ATOM     10  O   UNL     1       7.082   5.120  19.535  0.00  0.00    +0.000 OA
BRANCH   9  11
ATOM     11  O   UNL     1       5.635   3.499  19.017  0.00  0.00    +0.000 OA
ATOM     12  H   UNL     1       4.734   3.592  19.394  0.00  0.00    +0.000 HD
ENDBRANCH   9  11
ENDBRANCH   2   9
BRANCH   6  13
ATOM     13  C   UNL     1       6.376   3.726  13.259  0.00  0.00    +0.000 C 
ATOM     14  C   UNL     1       5.438   3.252  12.156  0.00  0.00    +0.000 C 
BRANCH  13  15
ATOM     15  O   UNL     1       7.247   4.732  12.741  0.00  0.00    +0.000 OA
ATOM     16  H   UNL     1       8.133   4.343  12.619  0.00  0.00    +0.000 HD
ENDBRANCH  13  15
ENDBRANCH   6  13
BRANCH   1  17
ATOM     17  C   UNL     1       4.181   7.105  18.226  0.00  0.00    +0.000 C 
BRANCH  17  18
ATOM     18  N   UNL     1       2.778   6.626  18.273  0.00  0.00    +0.000 NA
ATOM     19  C   UNL     1       1.988   7.648  19.001  0.00  0.00    +0.000 C 
BRANCH  18  21
ATOM     20  C   UNL     1       1.815   5.245  20.239  0.00  0.00    +0.000 C 
ATOM     21  C   UNL     1       2.661   5.285  18.959  0.00  0.00    +0.000 C 
BRANCH  21  22
ATOM     22  C   UNL     1       2.152   4.205  17.970  0.00  0.00    +0.000 C 
ATOM     23  N   UNL     1       2.904   3.067  17.894  0.00  0.00    +0.000 N 
ATOM     24  O   UNL     1       1.129   4.310  17.299  0.00  0.00    +0.000 OA
ATOM     25  H   UNL     1       3.863   3.047  18.214  0.00  0.00    +0.000 HD
ATOM     26  H   UNL     1       2.620   2.384  17.202  0.00  0.00    +0.000 HD
ENDBRANCH  21  22
ENDBRANCH  18  21
ENDBRANCH  17  18
ENDBRANCH   1  17
TORSDOF 8
ENDMDL
MODEL 6
REMARK VINA RESULT:      -6.5      1.396      1.506
REMARK  Name = 
REMARK  11 active torsions:
REMARK  status: ('A' for Active; 'I' for Inactive)
REMARK    1  A    between atoms: C_1  and  C_2
REMARK    2  A    between atoms: C_2  and  C_3
REMARK    3  A    between atoms: C_2  and  N_6
REMARK    4  A    between atoms: N_6  and  C_7
REMARK    5  A    between atoms: N_6  and  C_8
REMARK    6  A    between atoms: C_8  and  C_9
REMARK    7  A    between atoms: C_10  and  C_11
REMARK    8  A    between atoms: C_11  and  O_13
REMARK    9  A    between atoms: C_17  and  C_18
REMARK   10  A    between atoms: C_18  and  C_19
REMARK   11  A    between atoms: C_18  and  O_20
REMARK                            x       y       z     vdW  Elec       q    Type
REMARK                         _______ _______ _______ _____ _____    ______ ____
ROOT
ATOM      1  C   UNL     1       4.957   5.198  17.726  0.00  0.00    +0.000 C 
ATOM      2  C   UNL     1       5.949   5.899  17.135  0.00  0.00    +0.000 C 
ATOM      3  N   UNL     1       6.076   5.697  15.760  0.00  0.00    +0.000 N 
ATOM      4  C   UNL     1       7.011   4.780  15.334  0.00  0.00    +0.000 C 
ATOM      5  O   UNL     1       8.160   4.573  15.657  0.00  0.00    +0.000 OA
ATOM      6  C   UNL     1       5.972   3.968  14.562  0.00  0.00    +0.000 C 
ATOM      7  C   UNL     1       4.948   4.952  15.159  0.00  0.00    +0.000 C 
ATOM      8  S   UNL     1       3.989   4.292  16.567  0.00  0.00    +0.000 S 
ENDROOT
BRANCH   2   9
ATOM      9  C   UNL     1       6.988   6.785  17.763  0.00  0.00    +0.000 C 
ATOM     10  O   UNL     1       7.759   6.380  18.621  0.00  0.00    +0.000 OA
BRANCH   9  11
ATOM     11  O   UNL     1       7.082   8.045  17.295  0.00  0.00    +0.000 OA
ATOM     12  H   UNL     1       7.991   8.410  17.220  0.00  0.00    +0.000 HD
ENDBRANCH   9  11
ENDBRANCH   2   9
BRANCH   6  13
ATOM     13  C   UNL     1       6.120   3.965  13.052  0.00  0.00    +0.000 C 
ATOM     14  C   UNL     1       7.374   4.711  12.616  0.00  0.00    +0.000 C 
BRANCH  13  15
ATOM     15  O   UNL     1       6.201   2.607  12.618  0.00  0.00    +0.000 OA
ATOM     16  H   UNL     1       6.436   2.597  11.672  0.00  0.00    +0.000 HD
ENDBRANCH  13  15
ENDBRANCH   6  13
BRANCH   1  17
ATOM     17  C   UNL     1       4.639   5.005  19.186  0.00  0.00    +0.000 C 
BRANCH  17  18
ATOM     18  N   UNL     1       3.282   4.485  19.482  0.00  0.00    +0.000 NA
ATOM     19  C   UNL     1       2.521   5.581  20.129  0.00  0.00    +0.000 C 
BRANCH  18  21
ATOM     20  C   UNL     1       1.983   2.809  20.967  0.00  0.00    +0.000 C 
ATOM     21  C   UNL     1       3.325   3.272  20.383  0.00  0.00    +0.000 C 
BRANCH  21  22
ATOM     22  C   UNL     1       4.017   2.083  19.671  0.00  0.00    +0.000 C 
ATOM     23  N   UNL     1       5.192   1.661  20.224  0.00  0.00    +0.000 N 
ATOM     24  O   UNL     1       3.561   1.507  18.687  0.00  0.00    +0.000 OA
ATOM     25  H   UNL     1       5.723   2.253  20.849  0.00  0.00    +0.000 HD
ATOM     26  H   UNL     1       5.688   0.930  19.729  0.00  0.00    +0.000 HD
ENDBRANCH  21  22
ENDBRANCH  18  21
ENDBRANCH  17  18
ENDBRANCH   1  17
TORSDOF 8
ENDMDL
MODEL 7
REMARK VINA RESULT:      -6.5      1.172      1.403
REMARK  Name = 
REMARK  11 active torsions:
REMARK  status: ('A' for Active; 'I' for Inactive)
REMARK    1  A    between atoms: C_1  and  C_2
REMARK    2  A    between atoms: C_2  and  C_3
REMARK    3  A    between atoms: C_2  and  N_6
REMARK    4  A    between atoms: N_6  and  C_7
REMARK    5  A    between atoms: N_6  and  C_8
REMARK    6  A    between atoms: C_8  and  C_9
REMARK    7  A    between atoms: C_10  and  C_11
REMARK    8  A    between atoms: C_11  and  O_13
REMARK    9  A    between atoms: C_17  and  C_18
REMARK   10  A    between atoms: C_18  and  C_19
REMARK   11  A    between atoms: C_18  and  O_20
REMARK                            x       y       z     vdW  Elec       q    Type
REMARK                         _______ _______ _______ _____ _____    ______ ____
ROOT
ATOM      1  C   UNL     1       4.939   5.549  18.380  0.00  0.00    +0.000 C 
ATOM      2  C   UNL     1       6.228   5.850  18.108  0.00  0.00    +0.000 C 
ATOM      3  N   UNL     1       6.564   5.840  16.753  0.00  0.00    +0.000 N 
ATOM      4  C   UNL     1       7.141   4.696  16.249  0.00  0.00    +0.000 C 
ATOM      5  O   UNL     1       8.020   3.972  16.661  0.00  0.00    +0.000 OA
ATOM      6  C   UNL     1       6.065   4.537  15.175  0.00  0.00    +0.000 C 
ATOM      7  C   UNL     1       5.396   5.751  15.849  0.00  0.00    +0.000 C 
ATOM      8  S   UNL     1       3.975   5.339  16.921  0.00  0.00    +0.000 S 
ENDROOT
BRANCH   2   9
ATOM      9  C   UNL     1       7.365   6.098  19.060  0.00  0.00    +0.000 C 
ATOM     10  O   UNL     1       7.541   5.413  20.058  0.00  0.00    +0.000 OA
BRANCH   9  11
ATOM     11  O   UNL     1       8.233   7.076  18.736  0.00  0.00    +0.000 OA
ATOM     12  H   UNL     1       8.606   7.587  19.487  0.00  0.00    +0.000 HD
ENDBRANCH   9  11
ENDBRANCH   2   9
BRANCH   6  13
ATOM     13  C   UNL     1       6.525   4.718  13.741  0.00  0.00    +0.000 C 
ATOM     14  C   UNL     1       7.939   5.282  13.679  0.00  0.00    +0.000 C 
BRANCH  13  15
ATOM     15  O   UNL     1       6.495   3.440  13.103  0.00  0.00    +0.000 OA
ATOM     16  H   UNL     1       7.280   2.935  13.383  0.00  0.00    +0.000 HD
ENDBRANCH  13  15
ENDBRANCH   6  13
BRANCH   1  17
ATOM     17  C   UNL     1       4.262   5.274  19.697  0.00  0.00    +0.000 C 
BRANCH  17  18
ATOM     18  N   UNL     1       3.359   4.098  19.718  0.00  0.00    +0.000 NA
ATOM     19  C   UNL     1       2.626   4.127  21.007  0.00  0.00    +0.000 C 
BRANCH  18  21
ATOM     20  C   UNL     1       4.348   1.999  20.865  0.00  0.00    +0.000 C 
ATOM     21  C   UNL     1       4.118   2.798  19.576  0.00  0.00    +0.000 C 
BRANCH  21  22
ATOM     22  C   UNL     1       3.452   1.887  18.514  0.00  0.00    +0.000 C 
ATOM     23  N   UNL     1       4.070   0.689  18.287  0.00  0.00    +0.000 N 
ATOM     24  O   UNL     1       2.420   2.168  17.912  0.00  0.00    +0.000 OA
ATOM     25  H   UNL     1       5.034   0.535  18.552  0.00  0.00    +0.000 HD
ATOM     26  H   UNL     1       3.685   0.115  17.548  0.00  0.00    +0.000 HD
ENDBRANCH  21  22
ENDBRANCH  18  21
ENDBRANCH  17  18
ENDBRANCH   1  17
TORSDOF 8
ENDMDL
MODEL 8
REMARK VINA RESULT:      -6.5      1.267      1.580
REMARK  Name = 
REMARK  11 active torsions:
REMARK  status: ('A' for Active; 'I' for Inactive)
REMARK    1  A    between atoms: C_1  and  C_2
REMARK    2  A    between atoms: C_2  and  C_3
REMARK    3  A    between atoms: C_2  and  N_6
REMARK    4  A    between atoms: N_6  and  C_7
REMARK    5  A    between atoms: N_6  and  C_8
REMARK    6  A    between atoms: C_8  and  C_9
REMARK    7  A    between atoms: C_10  and  C_11
REMARK    8  A    between atoms: C_11  and  O_13
REMARK    9  A    between atoms: C_17  and  C_18
REMARK   10  A    between atoms: C_18  and  C_19
REMARK   11  A    between atoms: C_18  and  O_20
REMARK                            x       y       z     vdW  Elec       q    Type
REMARK                         _______ _______ _______ _____ _____    ______ ____
ROOT
ATOM      1  C   UNL     1       5.134   5.841  18.240  0.00  0.00    +0.000 C 
ATOM      2  C   UNL     1       6.472   5.973  18.104  0.00  0.00    +0.000 C 
ATOM      3  N   UNL     1       6.956   5.769  16.810  0.00  0.00    +0.000 N 
ATOM      4  C   UNL     1       7.448   4.521  16.503  0.00  0.00    +0.000 C 
ATOM      5  O   UNL     1       8.183   3.762  17.096  0.00  0.00    +0.000 OA
ATOM      6  C   UNL     1       6.490   4.351  15.325  0.00  0.00    +0.000 C 
ATOM      7  C   UNL     1       5.897   5.698  15.780  0.00  0.00    +0.000 C 
ATOM      8  S   UNL     1       4.324   5.565  16.701  0.00  0.00    +0.000 S 
ENDROOT
BRANCH   2   9
ATOM      9  C   UNL     1       7.514   6.210  19.161  0.00  0.00    +0.000 C 
ATOM     10  O   UNL     1       7.601   5.510  20.160  0.00  0.00    +0.000 OA
BRANCH   9  11
ATOM     11  O   UNL     1       8.402   7.197  18.934  0.00  0.00    +0.000 OA
ATOM     12  H   UNL     1       8.023   8.079  18.729  0.00  0.00    +0.000 HD
ENDBRANCH   9  11
ENDBRANCH   2   9
BRANCH   6  13
ATOM     13  C   UNL     1       7.129   4.314  13.950  0.00  0.00    +0.000 C 
ATOM     14  C   UNL     1       6.194   3.691  12.920  0.00  0.00    +0.000 C 
BRANCH  13  15
ATOM     15  O   UNL     1       7.430   5.656  13.565  0.00  0.00    +0.000 OA
ATOM     16  H   UNL     1       7.496   5.693  12.593  0.00  0.00    +0.000 HD
ENDBRANCH  13  15
ENDBRANCH   6  13
BRANCH   1  17
ATOM     17  C   UNL     1       4.283   5.795  19.482  0.00  0.00    +0.000 C 
BRANCH  17  18
ATOM     18  N   UNL     1       3.867   4.441  19.921  0.00  0.00    +0.000 NA
ATOM     19  C   UNL     1       4.624   3.460  19.106  0.00  0.00    +0.000 C 
BRANCH  18  21
ATOM     20  C   UNL     1       1.933   3.527  18.464  0.00  0.00    +0.000 C 
ATOM     21  C   UNL     1       2.380   4.225  19.755  0.00  0.00    +0.000 C 
BRANCH  21  22
ATOM     22  C   UNL     1       1.794   3.473  20.978  0.00  0.00    +0.000 C 
ATOM     23  N   UNL     1       0.606   2.832  20.768  0.00  0.00    +0.000 N 
ATOM     24  O   UNL     1       2.341   3.408  22.075  0.00  0.00    +0.000 OA
ATOM     25  H   UNL     1       0.008   3.073  19.989  0.00  0.00    +0.000 HD
ATOM     26  H   UNL     1       0.180   2.397  21.576  0.00  0.00    +0.000 HD
ENDBRANCH  21  22
ENDBRANCH  18  21
ENDBRANCH  17  18
ENDBRANCH   1  17
TORSDOF 8
ENDMDL
MODEL 9
REMARK VINA RESULT:      -6.5      1.107      1.517
REMARK  Name = 
REMARK  11 active torsions:
REMARK  status: ('A' for Active; 'I' for Inactive)
REMARK    1  A    between atoms: C_1  and  C_2
REMARK    2  A    between atoms: C_2  and  C_3
REMARK    3  A    between atoms: C_2  and  N_6
REMARK    4  A    between atoms: N_6  and  C_7
REMARK    5  A    between atoms: N_6  and  C_8
REMARK    6  A    between atoms: C_8  and  C_9
REMARK    7  A    between atoms: C_10  and  C_11
REMARK    8  A    between atoms: C_11  and  O_13
REMARK    9  A    between atoms: C_17  and  C_18
REMARK   10  A    between atoms: C_18  and  C_19
REMARK   11  A    between atoms: C_18  and  O_20
REMARK                            x       y       z     vdW  Elec       q    Type
REMARK                         _______ _______ _______ _____ _____    ______ ____
ROOT
ATOM      1  C   UNL     1       5.084   5.395  18.393  0.00  0.00    +0.000 C 
ATOM      2  C   UNL     1       6.353   5.765  18.113  0.00  0.00    +0.000 C 
ATOM      3  N   UNL     1       6.718   5.650  16.771  0.00  0.00    +0.000 N 
ATOM      4  C   UNL     1       7.389   4.510  16.389  0.00  0.00    +0.000 C 
ATOM      5  O   UNL     1       8.310   3.898  16.882  0.00  0.00    +0.000 OA
ATOM      6  C   UNL     1       6.352   4.168  15.320  0.00  0.00    +0.000 C 
ATOM      7  C   UNL     1       5.581   5.387  15.863  0.00  0.00    +0.000 C 
ATOM      8  S   UNL     1       4.170   4.974  16.948  0.00  0.00    +0.000 S 
ENDROOT
BRANCH   2   9
ATOM      9  C   UNL     1       7.447   6.188  19.053  0.00  0.00    +0.000 C 
ATOM     10  O   UNL     1       8.189   7.129  18.810  0.00  0.00    +0.000 OA
BRANCH   9  11
ATOM     11  O   UNL     1       7.542   5.523  20.221  0.00  0.00    +0.000 OA
ATOM     12  H   UNL     1       7.594   6.077  21.029  0.00  0.00    +0.000 HD
ENDBRANCH   9  11
ENDBRANCH   2   9
BRANCH   6  13
ATOM     13  C   UNL     1       6.829   4.245  13.882  0.00  0.00    +0.000 C 
ATOM     14  C   UNL     1       5.809   3.640  12.926  0.00  0.00    +0.000 C 
BRANCH  13  15
ATOM     15  O   UNL     1       7.028   5.621  13.555  0.00  0.00    +0.000 OA
ATOM     16  H   UNL     1       6.164   6.072  13.573  0.00  0.00    +0.000 HD
ENDBRANCH  13  15
ENDBRANCH   6  13
BRANCH   1  17
ATOM     17  C   UNL     1       4.400   5.197  19.721  0.00  0.00    +0.000 C 
BRANCH  17  18
ATOM     18  N   UNL     1       2.987   4.752  19.652  0.00  0.00    +0.000 NA
ATOM     19  C   UNL     1       2.228   5.533  20.659  0.00  0.00    +0.000 C 
BRANCH  18  21
ATOM     20  C   UNL     1       4.090   2.556  20.465  0.00  0.00    +0.000 C 
ATOM     21  C   UNL     1       2.846   3.272  19.920  0.00  0.00    +0.000 C 
BRANCH  21  22
ATOM     22  C   UNL     1       1.641   2.995  20.855  0.00  0.00    +0.000 C 
ATOM     23  N   UNL     1       0.410   3.032  20.263  0.00  0.00    +0.000 N 
ATOM     24  O   UNL     1       1.740   2.728  22.049  0.00  0.00    +0.000 OA
ATOM     25  H   UNL     1       0.265   3.495  19.376  0.00  0.00    +0.000 HD
ATOM     26  H   UNL     1      -0.389   2.922  20.876  0.00  0.00    +0.000 HD
ENDBRANCH  21  22
ENDBRANCH  18  21
ENDBRANCH  17  18
ENDBRANCH   1  17
TORSDOF 8
ENDMDL
