MODEL 1
REMARK VINA RESULT:      -9.9      0.000      0.000
REMARK  Name = 
REMARK  6 active torsions:
REMARK  status: ('A' for Active; 'I' for Inactive)
REMARK    1  A    between atoms: C_1  and  C_2
REMARK    2  A    between atoms: C_4  and  N_5
REMARK    3  A    between atoms: N_5  and  C_6
REMARK    4  A    between atoms: C_6  and  C_7
REMARK    5  A    between atoms: C_9  and  N_10
REMARK    6  A    between atoms: N_10  and  C_11
REMARK                            x       y       z     vdW  Elec       q    Type
REMARK                         _______ _______ _______ _____ _____    ______ ____
ROOT
ATOM      1  C   UNL     1       3.259   3.552  19.372  0.00  0.00    +0.000 A 
ATOM      2  C   UNL     1       3.203   4.852  19.913  0.00  0.00    +0.000 A 
ATOM      3  C   UNL     1       2.030   5.341  20.508  0.00  0.00    +0.000 A 
ATOM      4  C   UNL     1       0.910   4.497  20.564  0.00  0.00    +0.000 A 
ATOM      5  C   UNL     1       0.958   3.200  20.052  0.00  0.00    +0.000 A 
ATOM      6  C   UNL     1       2.129   2.739  19.467  0.00  0.00    +0.000 A 
ATOM      7  F   UNL     1       2.149   1.495  18.966  0.00  0.00    +0.000 F 
ENDROOT
BRANCH   3   8
ATOM      8  N   UNL     1       1.981   6.657  21.012  0.00  0.00    +0.000 N 
ATOM      9  H   UNL     1       2.416   6.807  21.915  0.00  0.00    +0.000 HD
BRANCH   8  10
ATOM     10  C   UNL     1       1.648   7.850  20.322  0.00  0.00    +0.000 A 
ATOM     11  C   UNL     1       2.009   7.991  18.980  0.00  0.00    +0.000 A 
ATOM     12  C   UNL     1       1.620   9.123  18.301  0.00  0.00    +0.000 A 
ATOM     13  N   UNL     1       0.895  10.113  18.856  0.00  0.00    +0.000 NA
ATOM     14  C   UNL     1       0.547   9.998  20.145  0.00  0.00    +0.000 A 
ATOM     15  C   UNL     1      -0.225  11.008  20.692  0.00  0.00    +0.000 A 
ATOM     16  C   UNL     1      -0.639  10.965  22.019  0.00  0.00    +0.000 A 
ATOM     17 CL   UNL     1      -1.625  12.226  22.651  0.00  0.00    +0.000 Cl
ATOM     18  C   UNL     1      -0.270   9.901  22.835  0.00  0.00    +0.000 A 
ATOM     19  C   UNL     1       0.501   8.869  22.302  0.00  0.00    +0.000 A 
ATOM     20  C   UNL     1       0.916   8.891  20.948  0.00  0.00    +0.000 A 
ENDBRANCH   8  10
ENDBRANCH   3   8
BRANCH   1  21
ATOM     21  C   UNL     1       4.490   3.050  18.664  0.00  0.00    +0.000 C 
BRANCH  21  22
ATOM     22  N   UNL     1       5.649   3.860  18.956  0.00  0.00    +0.000 N 
ATOM     23  H   UNL     1       6.278   3.587  19.702  0.00  0.00    +0.000 HD
BRANCH  22  27
ATOM     24  C   UNL     1       7.797   8.098  17.658  0.00  0.00    +0.000 C 
ATOM     25  C   UNL     1       7.302   6.708  17.403  0.00  0.00    +0.000 A 
ATOM     26  C   UNL     1       6.677   5.979  18.387  0.00  0.00    +0.000 A 
ATOM     27  C   UNL     1       6.223   4.723  18.044  0.00  0.00    +0.000 A 
ATOM     28  N   UNL     1       6.357   4.255  16.791  0.00  0.00    +0.000 NA
ATOM     29  C   UNL     1       6.986   5.016  15.875  0.00  0.00    +0.000 A 
ATOM     30  N   UNL     1       7.077   4.592  14.569  0.00  0.00    +0.000 N 
ATOM     31  C   UNL     1       6.356   3.406  14.125  0.00  0.00    +0.000 C 
ATOM     32  C   UNL     1       5.655   3.693  12.791  0.00  0.00    +0.000 C 
ATOM     33  S   UNL     1       6.828   4.150  11.464  0.00  0.00    +0.000 S 
ATOM     34  C   UNL     1       7.700   5.489  12.355  0.00  0.00    +0.000 C 
ATOM     35  C   UNL     1       8.190   5.052  13.740  0.00  0.00    +0.000 C 
ATOM     36  N   UNL     1       7.478   6.231  16.161  0.00  0.00    +0.000 NA
ENDBRANCH  22  27
ENDBRANCH  21  22
ENDBRANCH   1  21
TORSDOF 5
ENDMDL
MODEL 2
REMARK VINA RESULT:      -9.7      4.037      8.832
REMARK  Name = 
REMARK  6 active torsions:
REMARK  status: ('A' for Active; 'I' for Inactive)
REMARK    1  A    between atoms: C_1  and  C_2
REMARK    2  A    between atoms: C_4  and  N_5
REMARK    3  A    between atoms: N_5  and  C_6
REMARK    4  A    between atoms: C_6  and  C_7
REMARK    5  A    between atoms: C_9  and  N_10
REMARK    6  A    between atoms: N_10  and  C_11
REMARK                            x       y       z     vdW  Elec       q    Type
REMARK                         _______ _______ _______ _____ _____    ______ ____
ROOT
ATOM      1  C   UNL     1       2.083   3.846  19.773  0.00  0.00    +0.000 A 
ATOM      2  C   UNL     1       3.461   4.077  19.589  0.00  0.00    +0.000 A 
ATOM      3  C   UNL     1       4.219   3.288  18.709  0.00  0.00    +0.000 A 
ATOM      4  C   UNL     1       3.566   2.266  18.002  0.00  0.00    +0.000 A 
ATOM      5  C   UNL     1       2.199   2.040  18.157  0.00  0.00    +0.000 A 
ATOM      6  C   UNL     1       1.471   2.833  19.035  0.00  0.00    +0.000 A 
ATOM      7  F   UNL     1       0.160   2.588  19.182  0.00  0.00    +0.000 F 
ENDROOT
BRANCH   3   8
ATOM      8  N   UNL     1       5.604   3.510  18.565  0.00  0.00    +0.000 N 
ATOM      9  H   UNL     1       6.209   2.734  18.812  0.00  0.00    +0.000 HD
BRANCH   8  10
ATOM     10  C   UNL     1       6.258   4.562  17.877  0.00  0.00    +0.000 A 
ATOM     11  C   UNL     1       6.812   5.617  18.604  0.00  0.00    +0.000 A 
ATOM     12  C   UNL     1       7.506   6.598  17.930  0.00  0.00    +0.000 A 
ATOM     13  N   UNL     1       7.692   6.597  16.597  0.00  0.00    +0.000 NA
ATOM     14  C   UNL     1       7.159   5.595  15.883  0.00  0.00    +0.000 A 
ATOM     15  C   UNL     1       7.387   5.592  14.518  0.00  0.00    +0.000 A 
ATOM     16  C   UNL     1       6.880   4.585  13.702  0.00  0.00    +0.000 A 
ATOM     17 CL   UNL     1       7.213   4.601  12.014  0.00  0.00    +0.000 Cl
ATOM     18  C   UNL     1       6.114   3.560  14.247  0.00  0.00    +0.000 A 
ATOM     19  C   UNL     1       5.880   3.541  15.621  0.00  0.00    +0.000 A 
ATOM     20  C   UNL     1       6.404   4.549  16.466  0.00  0.00    +0.000 A 
ENDBRANCH   8  10
ENDBRANCH   3   8
BRANCH   1  21
ATOM     21  C   UNL     1       1.282   4.638  20.774  0.00  0.00    +0.000 C 
BRANCH  21  22
ATOM     22  N   UNL     1       1.938   5.872  21.134  0.00  0.00    +0.000 N 
ATOM     23  H   UNL     1       2.814   5.846  21.644  0.00  0.00    +0.000 HD
BRANCH  22  27
ATOM     24  C   UNL     1       2.630   9.054  17.438  0.00  0.00    +0.000 C 
ATOM     25  C   UNL     1       1.984   8.583  18.705  0.00  0.00    +0.000 A 
ATOM     26  C   UNL     1       2.347   7.396  19.296  0.00  0.00    +0.000 A 
ATOM     27  C   UNL     1       1.721   7.068  20.480  0.00  0.00    +0.000 A 
ATOM     28  N   UNL     1       0.824   7.895  21.043  0.00  0.00    +0.000 NA
ATOM     29  C   UNL     1       0.506   9.040  20.409  0.00  0.00    +0.000 A 
ATOM     30  N   UNL     1      -0.358   9.937  20.994  0.00  0.00    +0.000 N 
ATOM     31  C   UNL     1      -0.805   9.744  22.367  0.00  0.00    +0.000 C 
ATOM     32  C   UNL     1      -0.711  11.069  23.136  0.00  0.00    +0.000 C 
ATOM     33  S   UNL     1      -1.750  12.383  22.400  0.00  0.00    +0.000 S 
ATOM     34  C   UNL     1      -1.123  12.264  20.686  0.00  0.00    +0.000 C 
ATOM     35  C   UNL     1      -1.150  10.829  20.148  0.00  0.00    +0.000 C 
ATOM     36  N   UNL     1       1.057   9.394  19.238  0.00  0.00    +0.000 NA
ENDBRANCH  22  27
ENDBRANCH  21  22
ENDBRANCH   1  21
TORSDOF 5
ENDMDL
MODEL 3
REMARK VINA RESULT:      -9.5      5.678     10.539
REMARK  Name = 
REMARK  6 active torsions:
REMARK  status: ('A' for Active; 'I' for Inactive)
REMARK    1  A    between atoms: C_1  and  C_2
REMARK    2  A    between atoms: C_4  and  N_5
REMARK    3  A    between atoms: N_5  and  C_6
REMARK    4  A    between atoms: C_6  and  C_7
REMARK    5  A    between atoms: C_9  and  N_10
REMARK    6  A    between atoms: N_10  and  C_11
REMARK                            x       y       z     vdW  Elec       q    Type
REMARK                         _______ _______ _______ _____ _____    ______ ____
ROOT
ATOM      1  C   UNL     1       0.086  10.337  20.030  0.00  0.00    +0.000 A 
ATOM      2  C   UNL     1       1.067   9.359  19.772  0.00  0.00    +0.000 A 
ATOM      3  C   UNL     1       1.395   8.387  20.732  0.00  0.00    +0.000 A 
ATOM      4  C   UNL     1       0.710   8.405  21.957  0.00  0.00    +0.000 A 
ATOM      5  C   UNL     1      -0.279   9.354  22.217  0.00  0.00    +0.000 A 
ATOM      6  C   UNL     1      -0.584  10.306  21.253  0.00  0.00    +0.000 A 
ATOM      7  F   UNL     1      -1.525  11.219  21.530  0.00  0.00    +0.000 F 
ENDROOT
BRANCH   3   8
ATOM      8  N   UNL     1       2.404   7.439  20.470  0.00  0.00    +0.000 N 
ATOM      9  H   UNL     1       3.313   7.630  20.875  0.00  0.00    +0.000 HD
BRANCH   8  10
ATOM     10  C   UNL     1       2.263   6.128  19.949  0.00  0.00    +0.000 A 
ATOM     11  C   UNL     1       1.299   5.274  20.488  0.00  0.00    +0.000 A 
ATOM     12  C   UNL     1       1.124   4.029  19.928  0.00  0.00    +0.000 A 
ATOM     13  N   UNL     1       1.830   3.580  18.874  0.00  0.00    +0.000 NA
ATOM     14  C   UNL     1       2.766   4.383  18.349  0.00  0.00    +0.000 A 
ATOM     15  C   UNL     1       3.462   3.920  17.246  0.00  0.00    +0.000 A 
ATOM     16  C   UNL     1       4.443   4.691  16.633  0.00  0.00    +0.000 A 
ATOM     17 CL   UNL     1       5.261   4.090  15.243  0.00  0.00    +0.000 Cl
ATOM     18  C   UNL     1       4.758   5.951  17.130  0.00  0.00    +0.000 A 
ATOM     19  C   UNL     1       4.064   6.439  18.236  0.00  0.00    +0.000 A 
ATOM     20  C   UNL     1       3.051   5.673  18.861  0.00  0.00    +0.000 A 
ENDBRANCH   8  10
ENDBRANCH   3   8
BRANCH   1  21
ATOM     21  C   UNL     1      -0.213  11.428  19.035  0.00  0.00    +0.000 C 
BRANCH  21  22
ATOM     22  N   UNL     1      -0.604  10.896  17.752  0.00  0.00    +0.000 N 
ATOM     23  H   UNL     1      -0.034  10.185  17.306  0.00  0.00    +0.000 HD
BRANCH  22  27
ATOM     24  C   UNL     1      -4.052  10.147  14.314  0.00  0.00    +0.000 C 
ATOM     25  C   UNL     1      -3.576  10.539  15.679  0.00  0.00    +0.000 A 
ATOM     26  C   UNL     1      -2.240  10.523  16.004  0.00  0.00    +0.000 A 
ATOM     27  C   UNL     1      -1.898  10.936  17.274  0.00  0.00    +0.000 A 
ATOM     28  N   UNL     1      -2.834  11.371  18.137  0.00  0.00    +0.000 NA
ATOM     29  C   UNL     1      -4.126  11.355  17.760  0.00  0.00    +0.000 A 
ATOM     30  N   UNL     1      -5.097  11.856  18.596  0.00  0.00    +0.000 N 
ATOM     31  C   UNL     1      -4.728  12.559  19.818  0.00  0.00    +0.000 C 
ATOM     32  C   UNL     1      -5.555  13.844  19.950  0.00  0.00    +0.000 C 
ATOM     33  S   UNL     1      -7.353  13.518  20.026  0.00  0.00    +0.000 S 
ATOM     34  C   UNL     1      -7.482  12.487  18.520  0.00  0.00    +0.000 C 
ATOM     35  C   UNL     1      -6.463  11.342  18.502  0.00  0.00    +0.000 C 
ATOM     36  N   UNL     1      -4.519  10.930  16.550  0.00  0.00    +0.000 NA
ENDBRANCH  22  27
ENDBRANCH  21  22
ENDBRANCH   1  21
TORSDOF 5
ENDMDL
MODEL 4
REMARK VINA RESULT:      -9.4      3.662      6.096
REMARK  Name = 
REMARK  6 active torsions:
REMARK  status: ('A' for Active; 'I' for Inactive)
REMARK    1  A    between atoms: C_1  and  C_2
REMARK    2  A    between atoms: C_4  and  N_5
REMARK    3  A    between atoms: N_5  and  C_6
REMARK    4  A    between atoms: C_6  and  C_7
REMARK    5  A    between atoms: C_9  and  N_10
REMARK    6  A    between atoms: N_10  and  C_11
REMARK                            x       y       z     vdW  Elec       q    Type
REMARK                         _______ _______ _______ _____ _____    ______ ____
ROOT
ATOM      1  C   UNL     1       0.247   9.163  21.517  0.00  0.00    +0.000 A 
ATOM      2  C   UNL     1      -0.029   9.796  20.289  0.00  0.00    +0.000 A 
ATOM      3  C   UNL     1      -0.698  11.030  20.242  0.00  0.00    +0.000 A 
ATOM      4  C   UNL     1      -1.076  11.629  21.454  0.00  0.00    +0.000 A 
ATOM      5  C   UNL     1      -0.790  11.024  22.678  0.00  0.00    +0.000 A 
ATOM      6  C   UNL     1      -0.129   9.803  22.699  0.00  0.00    +0.000 A 
ATOM      7  F   UNL     1       0.121   9.231  23.885  0.00  0.00    +0.000 F 
ENDROOT
BRANCH   3   8
ATOM      8  N   UNL     1      -0.998  11.631  19.003  0.00  0.00    +0.000 N 
ATOM      9  H   UNL     1      -0.245  12.149  18.563  0.00  0.00    +0.000 HD
BRANCH   8  10
ATOM     10  C   UNL     1      -2.112  11.396  18.159  0.00  0.00    +0.000 A 
ATOM     11  C   UNL     1      -1.942  10.651  16.990  0.00  0.00    +0.000 A 
ATOM     12  C   UNL     1      -3.044  10.369  16.214  0.00  0.00    +0.000 A 
ATOM     13  N   UNL     1      -4.294  10.766  16.522  0.00  0.00    +0.000 NA
ATOM     14  C   UNL     1      -4.473  11.488  17.636  0.00  0.00    +0.000 A 
ATOM     15  C   UNL     1      -5.767  11.861  17.956  0.00  0.00    +0.000 A 
ATOM     16  C   UNL     1      -6.045  12.603  19.098  0.00  0.00    +0.000 A 
ATOM     17 CL   UNL     1      -7.672  13.018  19.476  0.00  0.00    +0.000 Cl
ATOM     18  C   UNL     1      -5.016  13.002  19.944  0.00  0.00    +0.000 A 
ATOM     19  C   UNL     1      -3.706  12.631  19.644  0.00  0.00    +0.000 A 
ATOM     20  C   UNL     1      -3.409  11.861  18.494  0.00  0.00    +0.000 A 
ENDBRANCH   8  10
ENDBRANCH   3   8
BRANCH   1  21
ATOM     21  C   UNL     1       0.894   7.803  21.570  0.00  0.00    +0.000 C 
BRANCH  21  22
ATOM     22  N   UNL     1       1.896   7.642  20.544  0.00  0.00    +0.000 N 
ATOM     23  H   UNL     1       2.605   8.355  20.416  0.00  0.00    +0.000 HD
BRANCH  22  27
ATOM     24  C   UNL     1       1.551   2.743  20.167  0.00  0.00    +0.000 C 
ATOM     25  C   UNL     1       2.070   4.089  19.766  0.00  0.00    +0.000 A 
ATOM     26  C   UNL     1       1.689   5.231  20.432  0.00  0.00    +0.000 A 
ATOM     27  C   UNL     1       2.249   6.418  20.013  0.00  0.00    +0.000 A 
ATOM     28  N   UNL     1       3.156   6.445  19.020  0.00  0.00    +0.000 NA
ATOM     29  C   UNL     1       3.481   5.293  18.403  0.00  0.00    +0.000 A 
ATOM     30  N   UNL     1       4.454   5.280  17.430  0.00  0.00    +0.000 N 
ATOM     31  C   UNL     1       5.259   6.467  17.175  0.00  0.00    +0.000 C 
ATOM     32  C   UNL     1       6.738   6.078  17.060  0.00  0.00    +0.000 C 
ATOM     33  S   UNL     1       7.051   4.899  15.696  0.00  0.00    +0.000 S 
ATOM     34  C   UNL     1       5.800   3.647  16.160  0.00  0.00    +0.000 C 
ATOM     35  C   UNL     1       4.413   4.257  16.385  0.00  0.00    +0.000 C 
ATOM     36  N   UNL     1       2.940   4.114  18.746  0.00  0.00    +0.000 NA
ENDBRANCH  22  27
ENDBRANCH  21  22
ENDBRANCH   1  21
TORSDOF 5
ENDMDL
MODEL 5
REMARK VINA RESULT:      -9.3      3.848      8.779
REMARK  Name = 
REMARK  6 active torsions:
REMARK  status: ('A' for Active; 'I' for Inactive)
REMARK    1  A    between atoms: C_1  and  C_2
REMARK    2  A    between atoms: C_4  and  N_5
REMARK    3  A    between atoms: N_5  and  C_6
REMARK    4  A    between atoms: C_6  and  C_7
REMARK    5  A    between atoms: C_9  and  N_10
REMARK    6  A    between atoms: N_10  and  C_11
REMARK                            x       y       z     vdW  Elec       q    Type
REMARK                         _______ _______ _______ _____ _____    ______ ____
ROOT
ATOM      1  C   UNL     1       2.291   4.827  20.261  0.00  0.00    +0.000 A 
ATOM      2  C   UNL     1       3.651   4.891  19.898  0.00  0.00    +0.000 A 
ATOM      3  C   UNL     1       4.257   3.858  19.165  0.00  0.00    +0.000 A 
ATOM      4  C   UNL     1       3.469   2.759  18.788  0.00  0.00    +0.000 A 
ATOM      5  C   UNL     1       2.116   2.693  19.121  0.00  0.00    +0.000 A 
ATOM      6  C   UNL     1       1.540   3.726  19.848  0.00  0.00    +0.000 A 
ATOM      7  F   UNL     1       0.242   3.634  20.172  0.00  0.00    +0.000 F 
ENDROOT
BRANCH   3   8
ATOM      8  N   UNL     1       5.628   3.922  18.842  0.00  0.00    +0.000 N 
ATOM      9  H   UNL     1       6.185   3.112  19.092  0.00  0.00    +0.000 HD
BRANCH   8  10
ATOM     10  C   UNL     1       6.286   4.837  17.983  0.00  0.00    +0.000 A 
ATOM     11  C   UNL     1       6.948   5.938  18.530  0.00  0.00    +0.000 A 
ATOM     12  C   UNL     1       7.643   6.781  17.693  0.00  0.00    +0.000 A 
ATOM     13  N   UNL     1       7.731   6.603  16.361  0.00  0.00    +0.000 NA
ATOM     14  C   UNL     1       7.094   5.557  15.818  0.00  0.00    +0.000 A 
ATOM     15  C   UNL     1       7.220   5.369  14.453  0.00  0.00    +0.000 A 
ATOM     16  C   UNL     1       6.601   4.304  13.808  0.00  0.00    +0.000 A 
ATOM     17 CL   UNL     1       6.810   4.089  12.113  0.00  0.00    +0.000 Cl
ATOM     18  C   UNL     1       5.823   3.404  14.528  0.00  0.00    +0.000 A 
ATOM     19  C   UNL     1       5.689   3.571  15.906  0.00  0.00    +0.000 A 
ATOM     20  C   UNL     1       6.327   4.641  16.579  0.00  0.00    +0.000 A 
ENDBRANCH   8  10
ENDBRANCH   3   8
BRANCH   1  21
ATOM     21  C   UNL     1       1.656   5.894  21.114  0.00  0.00    +0.000 C 
BRANCH  21  22
ATOM     22  N   UNL     1       1.874   7.215  20.576  0.00  0.00    +0.000 N 
ATOM     23  H   UNL     1       2.490   7.340  19.780  0.00  0.00    +0.000 HD
BRANCH  22  27
ATOM     24  C   UNL     1      -0.547  10.505  23.329  0.00  0.00    +0.000 C 
ATOM     25  C   UNL     1      -0.131   9.883  22.031  0.00  0.00    +0.000 A 
ATOM     26  C   UNL     1       0.699   8.787  21.997  0.00  0.00    +0.000 A 
ATOM     27  C   UNL     1       0.995   8.264  20.756  0.00  0.00    +0.000 A 
ATOM     28  N   UNL     1       0.461   8.786  19.638  0.00  0.00    +0.000 NA
ATOM     29  C   UNL     1      -0.339   9.865  19.739  0.00  0.00    +0.000 A 
ATOM     30  N   UNL     1      -0.953  10.379  18.620  0.00  0.00    +0.000 N 
ATOM     31  C   UNL     1      -0.883   9.670  17.349  0.00  0.00    +0.000 C 
ATOM     32  C   UNL     1      -2.273   9.627  16.700  0.00  0.00    +0.000 C 
ATOM     33  S   UNL     1      -2.943  11.296  16.363  0.00  0.00    +0.000 S 
ATOM     34  C   UNL     1      -2.728  11.993  18.041  0.00  0.00    +0.000 C 
ATOM     35  C   UNL     1      -1.307  11.797  18.582  0.00  0.00    +0.000 C 
ATOM     36  N   UNL     1      -0.633  10.436  20.917  0.00  0.00    +0.000 NA
ENDBRANCH  22  27
ENDBRANCH  21  22
ENDBRANCH   1  21
TORSDOF 5
ENDMDL
MODEL 6
REMARK VINA RESULT:      -9.0      3.514      7.774
REMARK  Name = 
REMARK  6 active torsions:
REMARK  status: ('A' for Active; 'I' for Inactive)
REMARK    1  A    between atoms: C_1  and  C_2
REMARK    2  A    between atoms: C_4  and  N_5
REMARK    3  A    between atoms: N_5  and  C_6
REMARK    4  A    between atoms: C_6  and  C_7
REMARK    5  A    between atoms: C_9  and  N_10
REMARK    6  A    between atoms: N_10  and  C_11
REMARK                            x       y       z     vdW  Elec       q    Type
REMARK                         _______ _______ _______ _____ _____    ______ ____
ROOT
ATOM      1  C   UNL     1       2.430   3.780  20.053  0.00  0.00    +0.000 A 
ATOM      2  C   UNL     1       3.581   3.691  19.246  0.00  0.00    +0.000 A 
ATOM      3  C   UNL     1       3.607   2.871  18.106  0.00  0.00    +0.000 A 
ATOM      4  C   UNL     1       2.449   2.147  17.780  0.00  0.00    +0.000 A 
ATOM      5  C   UNL     1       1.296   2.243  18.559  0.00  0.00    +0.000 A 
ATOM      6  C   UNL     1       1.295   3.059  19.682  0.00  0.00    +0.000 A 
ATOM      7  F   UNL     1       0.181   3.124  20.426  0.00  0.00    +0.000 F 
ENDROOT
BRANCH   3   8
ATOM      8  N   UNL     1       4.779   2.766  17.330  0.00  0.00    +0.000 N 
ATOM      9  H   UNL     1       5.119   1.826  17.157  0.00  0.00    +0.000 HD
BRANCH   8  10
ATOM     10  C   UNL     1       5.400   3.763  16.536  0.00  0.00    +0.000 A 
ATOM     11  C   UNL     1       5.176   3.782  15.158  0.00  0.00    +0.000 A 
ATOM     12  C   UNL     1       5.727   4.796  14.408  0.00  0.00    +0.000 A 
ATOM     13  N   UNL     1       6.472   5.789  14.929  0.00  0.00    +0.000 NA
ATOM     14  C   UNL     1       6.703   5.782  16.249  0.00  0.00    +0.000 A 
ATOM     15  C   UNL     1       7.443   6.826  16.775  0.00  0.00    +0.000 A 
ATOM     16  C   UNL     1       7.723   6.904  18.135  0.00  0.00    +0.000 A 
ATOM     17 CL   UNL     1       8.619   8.237  18.752  0.00  0.00    +0.000 Cl
ATOM     18  C   UNL     1       7.271   5.914  19.001  0.00  0.00    +0.000 A 
ATOM     19  C   UNL     1       6.517   4.857  18.493  0.00  0.00    +0.000 A 
ATOM     20  C   UNL     1       6.210   4.774  17.113  0.00  0.00    +0.000 A 
ENDBRANCH   8  10
ENDBRANCH   3   8
BRANCH   1  21
ATOM     21  C   UNL     1       2.423   4.597  21.319  0.00  0.00    +0.000 C 
BRANCH  21  22
ATOM     22  N   UNL     1       1.596   5.773  21.198  0.00  0.00    +0.000 N 
ATOM     23  H   UNL     1       1.018   6.065  21.978  0.00  0.00    +0.000 HD
BRANCH  22  27
ATOM     24  C   UNL     1       3.772   7.675  17.209  0.00  0.00    +0.000 C 
ATOM     25  C   UNL     1       2.816   7.703  18.362  0.00  0.00    +0.000 A 
ATOM     26  C   UNL     1       2.723   6.649  19.240  0.00  0.00    +0.000 A 
ATOM     27  C   UNL     1       1.841   6.784  20.291  0.00  0.00    +0.000 A 
ATOM     28  N   UNL     1       1.136   7.916  20.463  0.00  0.00    +0.000 NA
ATOM     29  C   UNL     1       1.267   8.909  19.562  0.00  0.00    +0.000 A 
ATOM     30  N   UNL     1       0.609  10.103  19.749  0.00  0.00    +0.000 N 
ATOM     31  C   UNL     1      -0.097  10.370  20.995  0.00  0.00    +0.000 C 
ATOM     32  C   UNL     1       0.240  11.783  21.491  0.00  0.00    +0.000 C 
ATOM     33  S   UNL     1      -0.243  13.081  20.297  0.00  0.00    +0.000 S 
ATOM     34  C   UNL     1       0.601  12.393  18.827  0.00  0.00    +0.000 C 
ATOM     35  C   UNL     1       0.257  10.919  18.588  0.00  0.00    +0.000 C 
ATOM     36  N   UNL     1       2.083   8.818  18.502  0.00  0.00    +0.000 NA
ENDBRANCH  22  27
ENDBRANCH  21  22
ENDBRANCH   1  21
TORSDOF 5
ENDMDL
MODEL 7
REMARK VINA RESULT:      -8.9      5.730     10.682
REMARK  Name = 
REMARK  6 active torsions:
REMARK  status: ('A' for Active; 'I' for Inactive)
REMARK    1  A    between atoms: C_1  and  C_2
REMARK    2  A    between atoms: C_4  and  N_5
REMARK    3  A    between atoms: N_5  and  C_6
REMARK    4  A    between atoms: C_6  and  C_7
REMARK    5  A    between atoms: C_9  and  N_10
REMARK    6  A    between atoms: N_10  and  C_11
REMARK                            x       y       z     vdW  Elec       q    Type
REMARK                         _______ _______ _______ _____ _____    ______ ____
ROOT
ATOM      1  C   UNL     1       0.742   9.510  19.374  0.00  0.00    +0.000 A 
ATOM      2  C   UNL     1       1.683   8.491  19.127  0.00  0.00    +0.000 A 
ATOM      3  C   UNL     1       1.971   7.517  20.097  0.00  0.00    +0.000 A 
ATOM      4  C   UNL     1       1.286   7.575  21.321  0.00  0.00    +0.000 A 
ATOM      5  C   UNL     1       0.336   8.565  21.571  0.00  0.00    +0.000 A 
ATOM      6  C   UNL     1       0.070   9.519  20.597  0.00  0.00    +0.000 A 
ATOM      7  F   UNL     1      -0.834  10.472  20.864  0.00  0.00    +0.000 F 
ENDROOT
BRANCH   3   8
ATOM      8  N   UNL     1       2.941   6.526  19.846  0.00  0.00    +0.000 N 
ATOM      9  H   UNL     1       3.696   6.458  20.519  0.00  0.00    +0.000 HD
BRANCH   8  10
ATOM     10  C   UNL     1       2.873   5.440  18.938  0.00  0.00    +0.000 A 
ATOM     11  C   UNL     1       1.769   4.586  18.970  0.00  0.00    +0.000 A 
ATOM     12  C   UNL     1       1.680   3.577  18.038  0.00  0.00    +0.000 A 
ATOM     13  N   UNL     1       2.601   3.365  17.079  0.00  0.00    +0.000 NA
ATOM     14  C   UNL     1       3.672   4.170  17.039  0.00  0.00    +0.000 A 
ATOM     15  C   UNL     1       4.593   3.959  16.028  0.00  0.00    +0.000 A 
ATOM     16  C   UNL     1       5.728   4.754  15.906  0.00  0.00    +0.000 A 
ATOM     17 CL   UNL     1       6.833   4.478  14.615  0.00  0.00    +0.000 Cl
ATOM     18  C   UNL     1       5.969   5.777  16.815  0.00  0.00    +0.000 A 
ATOM     19  C   UNL     1       5.049   6.012  17.837  0.00  0.00    +0.000 A 
ATOM     20  C   UNL     1       3.881   5.222  17.964  0.00  0.00    +0.000 A 
ENDBRANCH   8  10
ENDBRANCH   3   8
BRANCH   1  21
ATOM     21  C   UNL     1       0.487  10.602  18.368  0.00  0.00    +0.000 C 
BRANCH  21  22
ATOM     22  N   UNL     1      -0.671  11.393  18.710  0.00  0.00    +0.000 N 
ATOM     23  H   UNL     1      -0.557  12.247  19.245  0.00  0.00    +0.000 HD
BRANCH  22  27
ATOM     24  C   UNL     1      -3.442  10.203  14.816  0.00  0.00    +0.000 C 
ATOM     25  C   UNL     1      -3.223  10.733  16.200  0.00  0.00    +0.000 A 
ATOM     26  C   UNL     1      -1.965  10.801  16.750  0.00  0.00    +0.000 A 
ATOM     27  C   UNL     1      -1.862  11.337  18.016  0.00  0.00    +0.000 A 
ATOM     28  N   UNL     1      -2.945  11.805  18.660  0.00  0.00    +0.000 NA
ATOM     29  C   UNL     1      -4.151  11.702  18.070  0.00  0.00    +0.000 A 
ATOM     30  N   UNL     1      -5.266  12.233  18.676  0.00  0.00    +0.000 N 
ATOM     31  C   UNL     1      -5.135  13.054  19.873  0.00  0.00    +0.000 C 
ATOM     32  C   UNL     1      -6.007  14.310  19.740  0.00  0.00    +0.000 C 
ATOM     33  S   UNL     1      -7.781  13.916  19.535  0.00  0.00    +0.000 S 
ATOM     34  C   UNL     1      -7.617  12.753  18.133  0.00  0.00    +0.000 C 
ATOM     35  C   UNL     1      -6.580  11.655  18.397  0.00  0.00    +0.000 C 
ATOM     36  N   UNL     1      -4.314  11.157  16.855  0.00  0.00    +0.000 NA
ENDBRANCH  22  27
ENDBRANCH  21  22
ENDBRANCH   1  21
TORSDOF 5
ENDMDL
MODEL 8
REMARK VINA RESULT:      -8.9      4.669     10.049
REMARK  Name = 
REMARK  6 active torsions:
REMARK  status: ('A' for Active; 'I' for Inactive)
REMARK    1  A    between atoms: C_1  and  C_2
REMARK    2  A    between atoms: C_4  and  N_5
REMARK    3  A    between atoms: N_5  and  C_6
REMARK    4  A    between atoms: C_6  and  C_7
REMARK    5  A    between atoms: C_9  and  N_10
REMARK    6  A    between atoms: N_10  and  C_11
REMARK                            x       y       z     vdW  Elec       q    Type
REMARK                         _______ _______ _______ _____ _____    ______ ____
ROOT
ATOM      1  C   UNL     1       1.476   7.996  20.098  0.00  0.00    +0.000 A 
ATOM      2  C   UNL     1       2.323   6.870  20.069  0.00  0.00    +0.000 A 
ATOM      3  C   UNL     1       3.146   6.610  18.962  0.00  0.00    +0.000 A 
ATOM      4  C   UNL     1       3.116   7.509  17.884  0.00  0.00    +0.000 A 
ATOM      5  C   UNL     1       2.299   8.639  17.909  0.00  0.00    +0.000 A 
ATOM      6  C   UNL     1       1.492   8.874  19.015  0.00  0.00    +0.000 A 
ATOM      7  F   UNL     1       0.702   9.957  19.012  0.00  0.00    +0.000 F 
ENDROOT
BRANCH   3   8
ATOM      8  N   UNL     1       3.960   5.459  18.933  0.00  0.00    +0.000 N 
ATOM      9  H   UNL     1       3.493   4.576  19.106  0.00  0.00    +0.000 HD
BRANCH   8  10
ATOM     10  C   UNL     1       5.282   5.330  18.438  0.00  0.00    +0.000 A 
ATOM     11  C   UNL     1       6.361   5.489  19.310  0.00  0.00    +0.000 A 
ATOM     12  C   UNL     1       7.637   5.293  18.833  0.00  0.00    +0.000 A 
ATOM     13  N   UNL     1       7.913   4.944  17.562  0.00  0.00    +0.000 NA
ATOM     14  C   UNL     1       6.890   4.795  16.709  0.00  0.00    +0.000 A 
ATOM     15  C   UNL     1       7.187   4.406  15.415  0.00  0.00    +0.000 A 
ATOM     16  C   UNL     1       6.186   4.218  14.468  0.00  0.00    +0.000 A 
ATOM     17 CL   UNL     1       6.596   3.701  12.878  0.00  0.00    +0.000 Cl
ATOM     18  C   UNL     1       4.854   4.435  14.802  0.00  0.00    +0.000 A 
ATOM     19  C   UNL     1       4.532   4.821  16.103  0.00  0.00    +0.000 A 
ATOM     20  C   UNL     1       5.539   4.999  17.083  0.00  0.00    +0.000 A 
ENDBRANCH   8  10
ENDBRANCH   3   8
BRANCH   1  21
ATOM     21  C   UNL     1       0.533   8.237  21.249  0.00  0.00    +0.000 C 
BRANCH  21  22
ATOM     22  N   UNL     1       0.943   9.361  22.056  0.00  0.00    +0.000 N 
ATOM     23  H   UNL     1       1.917   9.465  22.318  0.00  0.00    +0.000 HD
BRANCH  22  27
ATOM     24  C   UNL     1      -2.864  12.097  23.567  0.00  0.00    +0.000 C 
ATOM     25  C   UNL     1      -1.545  11.885  22.890  0.00  0.00    +0.000 A 
ATOM     26  C   UNL     1      -0.972  10.637  22.814  0.00  0.00    +0.000 A 
ATOM     27  C   UNL     1       0.226  10.538  22.139  0.00  0.00    +0.000 A 
ATOM     28  N   UNL     1       0.783  11.612  21.553  0.00  0.00    +0.000 NA
ATOM     29  C   UNL     1       0.175  12.808  21.671  0.00  0.00    +0.000 A 
ATOM     30  N   UNL     1       0.686  13.911  21.025  0.00  0.00    +0.000 N 
ATOM     31  C   UNL     1       1.783  13.768  20.077  0.00  0.00    +0.000 C 
ATOM     32  C   UNL     1       1.482  14.577  18.808  0.00  0.00    +0.000 C 
ATOM     33  S   UNL     1       1.276  16.363  19.145  0.00  0.00    +0.000 S 
ATOM     34  C   UNL     1       0.021  16.222  20.469  0.00  0.00    +0.000 C 
ATOM     35  C   UNL     1       0.438  15.243  21.573  0.00  0.00    +0.000 C 
ATOM     36  N   UNL     1      -0.973  12.970  22.346  0.00  0.00    +0.000 NA
ENDBRANCH  22  27
ENDBRANCH  21  22
ENDBRANCH   1  21
TORSDOF 5
ENDMDL
MODEL 9
REMARK VINA RESULT:      -8.8      5.315     10.888
REMARK  Name = 
REMARK  6 active torsions:
REMARK  status: ('A' for Active; 'I' for Inactive)
REMARK    1  A    between atoms: C_1  and  C_2
REMARK    2  A    between atoms: C_4  and  N_5
REMARK    3  A    between atoms: N_5  and  C_6
REMARK    4  A    between atoms: C_6  and  C_7
REMARK    5  A    between atoms: C_9  and  N_10
REMARK    6  A    between atoms: N_10  and  C_11
REMARK                            x       y       z     vdW  Elec       q    Type
REMARK                         _______ _______ _______ _____ _____    ______ ____
ROOT
ATOM      1  C   UNL     1       0.847   9.674  20.752  0.00  0.00    +0.000 A 
ATOM      2  C   UNL     1       1.449   8.412  20.921  0.00  0.00    +0.000 A 
ATOM      3  C   UNL     1       2.007   7.722  19.832  0.00  0.00    +0.000 A 
ATOM      4  C   UNL     1       1.962   8.327  18.566  0.00  0.00    +0.000 A 
ATOM      5  C   UNL     1       1.388   9.586  18.389  0.00  0.00    +0.000 A 
ATOM      6  C   UNL     1       0.841  10.248  19.480  0.00  0.00    +0.000 A 
ATOM      7  F   UNL     1       0.280  11.450  19.284  0.00  0.00    +0.000 F 
ENDROOT
BRANCH   3   8
ATOM      8  N   UNL     1       2.574   6.444  20.013  0.00  0.00    +0.000 N 
ATOM      9  H   UNL     1       2.836   6.201  20.962  0.00  0.00    +0.000 HD
BRANCH   8  10
ATOM     10  C   UNL     1       2.585   5.352  19.110  0.00  0.00    +0.000 A 
ATOM     11  C   UNL     1       1.495   4.480  19.071  0.00  0.00    +0.000 A 
ATOM     12  C   UNL     1       1.485   3.465  18.142  0.00  0.00    +0.000 A 
ATOM     13  N   UNL     1       2.473   3.263  17.249  0.00  0.00    +0.000 NA
ATOM     14  C   UNL     1       3.531   4.085  17.277  0.00  0.00    +0.000 A 
ATOM     15  C   UNL     1       4.523   3.884  16.333  0.00  0.00    +0.000 A 
ATOM     16  C   UNL     1       5.651   4.696  16.284  0.00  0.00    +0.000 A 
ATOM     17 CL   UNL     1       6.845   4.432  15.073  0.00  0.00    +0.000 Cl
ATOM     18  C   UNL     1       5.813   5.728  17.201  0.00  0.00    +0.000 A 
ATOM     19  C   UNL     1       4.822   5.953  18.156  0.00  0.00    +0.000 A 
ATOM     20  C   UNL     1       3.660   5.145  18.208  0.00  0.00    +0.000 A 
ENDBRANCH   8  10
ENDBRANCH   3   8
BRANCH   1  21
ATOM     21  C   UNL     1       0.178  10.383  21.901  0.00  0.00    +0.000 C 
BRANCH  21  22
ATOM     22  N   UNL     1      -0.481  11.596  21.477  0.00  0.00    +0.000 N 
ATOM     23  H   UNL     1      -0.135  12.100  20.669  0.00  0.00    +0.000 HD
BRANCH  22  27
ATOM     24  C   UNL     1      -4.128  12.591  24.634  0.00  0.00    +0.000 C 
ATOM     25  C   UNL     1      -3.539  12.434  23.266  0.00  0.00    +0.000 A 
ATOM     26  C   UNL     1      -2.229  12.052  23.091  0.00  0.00    +0.000 A 
ATOM     27  C   UNL     1      -1.789  11.900  21.793  0.00  0.00    +0.000 A 
ATOM     28  N   UNL     1      -2.622  12.082  20.752  0.00  0.00    +0.000 NA
ATOM     29  C   UNL     1      -3.891  12.463  20.992  0.00  0.00    +0.000 A 
ATOM     30  N   UNL     1      -4.782  12.591  19.952  0.00  0.00    +0.000 N 
ATOM     31  C   UNL     1      -4.418  12.158  18.609  0.00  0.00    +0.000 C 
ATOM     32  C   UNL     1      -5.565  11.345  17.995  0.00  0.00    +0.000 C 
ATOM     33  S   UNL     1      -7.115  12.307  17.860  0.00  0.00    +0.000 S 
ATOM     34  C   UNL     1      -7.209  12.871  19.598  0.00  0.00    +0.000 C 
ATOM     35  C   UNL     1      -5.905  13.519  20.077  0.00  0.00    +0.000 C 
ATOM     36  N   UNL     1      -4.363  12.661  22.232  0.00  0.00    +0.000 NA
ENDBRANCH  22  27
ENDBRANCH  21  22
ENDBRANCH   1  21
TORSDOF 5
ENDMDL
