MODEL 1
REMARK VINA RESULT:      -7.8      0.000      0.000
REMARK  Name = 
REMARK  4 active torsions:
REMARK  status: ('A' for Active; 'I' for Inactive)
REMARK    1  A    between atoms: C_6  and  N_7
REMARK    2  A    between atoms: C_11  and  O_12
REMARK    3  A    between atoms: O_12  and  C_13
REMARK    4  A    between atoms: C_13  and  C_14
REMARK                            x       y       z     vdW  Elec       q    Type
REMARK                         _______ _______ _______ _____ _____    ______ ____
ROOT
ATOM      1  N   UNL     1       7.110   5.822  18.491  0.00  0.00    +0.000 N 
ATOM      2  C   UNL     1       5.826   5.376  18.727  0.00  0.00    +0.000 A 
ATOM      3  N   UNL     1       5.697   4.128  19.165  0.00  0.00    +0.000 NA
ATOM      4  C   UNL     1       4.442   3.678  19.341  0.00  0.00    +0.000 A 
ATOM      5  C   UNL     1       3.318   4.462  19.102  0.00  0.00    +0.000 A 
ATOM      6  C   UNL     1       3.560   5.802  18.764  0.00  0.00    +0.000 A 
ATOM      7  N   UNL     1       4.820   6.233  18.547  0.00  0.00    +0.000 NA
ATOM      8  C   UNL     1       1.954   3.812  19.173  0.00  0.00    +0.000 C 
ATOM      9  C   UNL     1       1.749   2.677  18.169  0.00  0.00    +0.000 C 
ATOM     10  N   UNL     1       2.273   1.386  18.593  0.00  0.00    +0.000 NA
ATOM     11  C   UNL     1       3.742   1.363  18.668  0.00  0.00    +0.000 C 
ATOM     12  C   UNL     1       4.320   2.240  19.777  0.00  0.00    +0.000 C 
ATOM     13  H   UNL     1       7.756   5.275  19.044  0.00  0.00    +0.000 HD
ATOM     14  H   UNL     1       7.142   6.825  18.592  0.00  0.00    +0.000 HD
ATOM     15  H   UNL     1       1.975   0.684  17.917  0.00  0.00    +0.000 HD
ENDROOT
BRANCH   6  16
ATOM     16  N   UNL     1       2.565   6.760  18.678  0.00  0.00    +0.000 N 
ATOM     17  C   UNL     1       2.430   7.620  17.509  0.00  0.00    +0.000 C 
ATOM     18  C   UNL     1       2.339   9.095  17.919  0.00  0.00    +0.000 C 
ATOM     19  C   UNL     1       1.314   9.342  19.030  0.00  0.00    +0.000 C 
ATOM     20  C   UNL     1       1.599   8.460  20.247  0.00  0.00    +0.000 C 
ATOM     21  C   UNL     1       1.677   7.004  19.796  0.00  0.00    +0.000 C 
BRANCH  20  22
ATOM     22  O   UNL     1       0.543   8.629  21.215  0.00  0.00    +0.000 OA
BRANCH  22  23
ATOM     23  C   UNL     1       0.739   9.774  22.067  0.00  0.00    +0.000 C 
BRANCH  23  24
ATOM     24  C   UNL     1      -0.425  10.734  22.053  0.00  0.00    +0.000 A 
ATOM     25  C   UNL     1      -1.179  10.971  23.193  0.00  0.00    +0.000 A 
ATOM     26  C   UNL     1      -2.249  11.855  23.117  0.00  0.00    +0.000 A 
ATOM     27  C   UNL     1      -2.543  12.469  21.905  0.00  0.00    +0.000 A 
ATOM     28  C   UNL     1      -1.750  12.173  20.811  0.00  0.00    +0.000 A 
ATOM     29  N   UNL     1      -0.708  11.319  20.857  0.00  0.00    +0.000 NA
ENDBRANCH  23  24
ENDBRANCH  22  23
ENDBRANCH  20  22
ENDBRANCH   6  16
TORSDOF 4
ENDMDL
MODEL 2
REMARK VINA RESULT:      -7.7      4.010      6.754
REMARK  Name = 
REMARK  4 active torsions:
REMARK  status: ('A' for Active; 'I' for Inactive)
REMARK    1  A    between atoms: C_6  and  N_7
REMARK    2  A    between atoms: C_11  and  O_12
REMARK    3  A    between atoms: O_12  and  C_13
REMARK    4  A    between atoms: C_13  and  C_14
REMARK                            x       y       z     vdW  Elec       q    Type
REMARK                         _______ _______ _______ _____ _____    ______ ____
ROOT
ATOM      1  N   UNL     1       2.046   7.496  20.821  0.00  0.00    +0.000 N 
ATOM      2  C   UNL     1       2.309   6.486  19.919  0.00  0.00    +0.000 A 
ATOM      3  N   UNL     1       1.480   5.448  19.925  0.00  0.00    +0.000 NA
ATOM      4  C   UNL     1       1.769   4.440  19.083  0.00  0.00    +0.000 A 
ATOM      5  C   UNL     1       2.865   4.463  18.226  0.00  0.00    +0.000 A 
ATOM      6  C   UNL     1       3.607   5.654  18.205  0.00  0.00    +0.000 A 
ATOM      7  N   UNL     1       3.336   6.642  19.082  0.00  0.00    +0.000 NA
ATOM      8  C   UNL     1       3.195   3.214  17.440  0.00  0.00    +0.000 C 
ATOM      9  C   UNL     1       3.517   1.996  18.306  0.00  0.00    +0.000 C 
ATOM     10  N   UNL     1       2.351   1.263  18.783  0.00  0.00    +0.000 NA
ATOM     11  C   UNL     1       1.553   2.030  19.753  0.00  0.00    +0.000 C 
ATOM     12  C   UNL     1       0.851   3.247  19.152  0.00  0.00    +0.000 C 
ATOM     13  H   UNL     1       1.067   7.470  21.070  0.00  0.00    +0.000 HD
ATOM     14  H   UNL     1       2.416   8.366  20.469  0.00  0.00    +0.000 HD
ATOM     15  H   UNL     1       2.675   0.411  19.238  0.00  0.00    +0.000 HD
ENDROOT
BRANCH   6  16
ATOM     16  N   UNL     1       4.606   5.915  17.282  0.00  0.00    +0.000 N 
ATOM     17  C   UNL     1       4.969   4.948  16.254  0.00  0.00    +0.000 C 
ATOM     18  C   UNL     1       6.484   4.711  16.234  0.00  0.00    +0.000 C 
ATOM     19  C   UNL     1       7.291   6.012  16.217  0.00  0.00    +0.000 C 
ATOM     20  C   UNL     1       6.901   6.915  17.388  0.00  0.00    +0.000 C 
ATOM     21  C   UNL     1       5.391   7.129  17.368  0.00  0.00    +0.000 C 
BRANCH  20  22
ATOM     22  O   UNL     1       7.589   8.178  17.264  0.00  0.00    +0.000 OA
BRANCH  22  23
ATOM     23  C   UNL     1       8.520   8.420  18.336  0.00  0.00    +0.000 C 
BRANCH  23  24
ATOM     24  C   UNL     1       8.806   9.884  18.559  0.00  0.00    +0.000 A 
ATOM     25  C   UNL     1       8.504  10.833  17.592  0.00  0.00    +0.000 A 
ATOM     26  C   UNL     1       8.804  12.166  17.846  0.00  0.00    +0.000 A 
ATOM     27  C   UNL     1       9.405  12.514  19.050  0.00  0.00    +0.000 A 
ATOM     28  C   UNL     1       9.683  11.509  19.959  0.00  0.00    +0.000 A 
ATOM     29  N   UNL     1       9.405  10.208  19.738  0.00  0.00    +0.000 NA
ENDBRANCH  23  24
ENDBRANCH  22  23
ENDBRANCH  20  22
ENDBRANCH   6  16
TORSDOF 4
ENDMDL
MODEL 3
REMARK VINA RESULT:      -7.7      2.573      4.177
REMARK  Name = 
REMARK  4 active torsions:
REMARK  status: ('A' for Active; 'I' for Inactive)
REMARK    1  A    between atoms: C_6  and  N_7
REMARK    2  A    between atoms: C_11  and  O_12
REMARK    3  A    between atoms: O_12  and  C_13
REMARK    4  A    between atoms: C_13  and  C_14
REMARK                            x       y       z     vdW  Elec       q    Type
REMARK                         _______ _______ _______ _____ _____    ______ ____
ROOT
ATOM      1  N   UNL     1       2.375   2.169  17.880  0.00  0.00    +0.000 N 
ATOM      2  C   UNL     1       3.042   3.340  17.581  0.00  0.00    +0.000 A 
ATOM      3  N   UNL     1       3.870   3.308  16.544  0.00  0.00    +0.000 NA
ATOM      4  C   UNL     1       4.560   4.434  16.288  0.00  0.00    +0.000 A 
ATOM      5  C   UNL     1       4.419   5.594  17.045  0.00  0.00    +0.000 A 
ATOM      6  C   UNL     1       3.429   5.566  18.039  0.00  0.00    +0.000 A 
ATOM      7  N   UNL     1       2.774   4.420  18.316  0.00  0.00    +0.000 NA
ATOM      8  C   UNL     1       5.357   6.750  16.778  0.00  0.00    +0.000 C 
ATOM      9  C   UNL     1       6.834   6.422  17.001  0.00  0.00    +0.000 C 
ATOM     10  N   UNL     1       7.489   5.766  15.877  0.00  0.00    +0.000 NA
ATOM     11  C   UNL     1       6.985   4.404  15.640  0.00  0.00    +0.000 C 
ATOM     12  C   UNL     1       5.540   4.355  15.146  0.00  0.00    +0.000 C 
ATOM     13  H   UNL     1       2.328   1.595  17.049  0.00  0.00    +0.000 HD
ATOM     14  H   UNL     1       1.509   2.385  18.348  0.00  0.00    +0.000 HD
ATOM     15  H   UNL     1       8.485   5.708  16.080  0.00  0.00    +0.000 HD
ENDROOT
BRANCH   6  16
ATOM     16  N   UNL     1       3.030   6.684  18.750  0.00  0.00    +0.000 N 
ATOM     17  C   UNL     1       2.896   6.659  20.202  0.00  0.00    +0.000 C 
ATOM     18  C   UNL     1       1.532   7.208  20.637  0.00  0.00    +0.000 C 
ATOM     19  C   UNL     1       1.190   8.546  19.975  0.00  0.00    +0.000 C 
ATOM     20  C   UNL     1       1.269   8.442  18.451  0.00  0.00    +0.000 C 
ATOM     21  C   UNL     1       2.640   7.896  18.062  0.00  0.00    +0.000 C 
BRANCH  20  22
ATOM     22  O   UNL     1       1.065   9.748  17.874  0.00  0.00    +0.000 OA
BRANCH  22  23
ATOM     23  C   UNL     1       0.229  10.598  18.683  0.00  0.00    +0.000 C 
BRANCH  23  24
ATOM     24  C   UNL     1      -1.202  10.653  18.209  0.00  0.00    +0.000 A 
ATOM     25  C   UNL     1      -1.641   9.874  17.149  0.00  0.00    +0.000 A 
ATOM     26  C   UNL     1      -2.968   9.977  16.746  0.00  0.00    +0.000 A 
ATOM     27  C   UNL     1      -3.815  10.860  17.405  0.00  0.00    +0.000 A 
ATOM     28  C   UNL     1      -3.299  11.610  18.447  0.00  0.00    +0.000 A 
ATOM     29  N   UNL     1      -2.017  11.531  18.856  0.00  0.00    +0.000 NA
ENDBRANCH  23  24
ENDBRANCH  22  23
ENDBRANCH  20  22
ENDBRANCH   6  16
TORSDOF 4
ENDMDL
MODEL 4
REMARK VINA RESULT:      -7.5      2.748      3.612
REMARK  Name = 
REMARK  4 active torsions:
REMARK  status: ('A' for Active; 'I' for Inactive)
REMARK    1  A    between atoms: C_6  and  N_7
REMARK    2  A    between atoms: C_11  and  O_12
REMARK    3  A    between atoms: O_12  and  C_13
REMARK    4  A    between atoms: C_13  and  C_14
REMARK                            x       y       z     vdW  Elec       q    Type
REMARK                         _______ _______ _______ _____ _____    ______ ____
ROOT
ATOM      1  N   UNL     1       4.924   6.324  16.307  0.00  0.00    +0.000 N 
ATOM      2  C   UNL     1       4.220   6.050  17.462  0.00  0.00    +0.000 A 
ATOM      3  N   UNL     1       4.359   4.832  17.972  0.00  0.00    +0.000 NA
ATOM      4  C   UNL     1       3.630   4.549  19.066  0.00  0.00    +0.000 A 
ATOM      5  C   UNL     1       2.777   5.472  19.664  0.00  0.00    +0.000 A 
ATOM      6  C   UNL     1       2.795   6.768  19.126  0.00  0.00    +0.000 A 
ATOM      7  N   UNL     1       3.496   7.030  18.004  0.00  0.00    +0.000 NA
ATOM      8  C   UNL     1       1.880   5.005  20.789  0.00  0.00    +0.000 C 
ATOM      9  C   UNL     1       0.898   3.904  20.389  0.00  0.00    +0.000 C 
ATOM     10  N   UNL     1       1.452   2.556  20.411  0.00  0.00    +0.000 NA
ATOM     11  C   UNL     1       2.471   2.342  19.371  0.00  0.00    +0.000 C 
ATOM     12  C   UNL     1       3.755   3.141  19.589  0.00  0.00    +0.000 C 
ATOM     13  H   UNL     1       5.717   5.700  16.248  0.00  0.00    +0.000 HD
ATOM     14  H   UNL     1       5.104   7.315  16.250  0.00  0.00    +0.000 HD
ATOM     15  H   UNL     1       0.692   1.897  20.254  0.00  0.00    +0.000 HD
ENDROOT
BRANCH   6  16
ATOM     16  N   UNL     1       2.157   7.847  19.713  0.00  0.00    +0.000 N 
ATOM     17  C   UNL     1       1.798   7.848  21.126  0.00  0.00    +0.000 C 
ATOM     18  C   UNL     1       0.327   8.234  21.318  0.00  0.00    +0.000 C 
ATOM     19  C   UNL     1      -0.064   9.499  20.547  0.00  0.00    +0.000 C 
ATOM     20  C   UNL     1       0.269   9.361  19.061  0.00  0.00    +0.000 C 
ATOM     21  C   UNL     1       1.739   8.981  18.914  0.00  0.00    +0.000 C 
BRANCH  20  22
ATOM     22  O   UNL     1       0.005  10.614  18.396  0.00  0.00    +0.000 OA
BRANCH  22  23
ATOM     23  C   UNL     1      -1.295  11.152  18.702  0.00  0.00    +0.000 C 
BRANCH  23  24
ATOM     24  C   UNL     1      -2.302  10.945  17.598  0.00  0.00    +0.000 A 
ATOM     25  C   UNL     1      -2.043  10.089  16.537  0.00  0.00    +0.000 A 
ATOM     26  C   UNL     1      -3.001   9.949  15.540  0.00  0.00    +0.000 A 
ATOM     27  C   UNL     1      -4.185  10.672  15.624  0.00  0.00    +0.000 A 
ATOM     28  C   UNL     1      -4.365  11.512  16.708  0.00  0.00    +0.000 A 
ATOM     29  N   UNL     1      -3.452  11.668  17.688  0.00  0.00    +0.000 NA
ENDBRANCH  23  24
ENDBRANCH  22  23
ENDBRANCH  20  22
ENDBRANCH   6  16
TORSDOF 4
ENDMDL
MODEL 5
REMARK VINA RESULT:      -7.5      0.711      1.074
REMARK  Name = 
REMARK  4 active torsions:
REMARK  status: ('A' for Active; 'I' for Inactive)
REMARK    1  A    between atoms: C_6  and  N_7
REMARK    2  A    between atoms: C_11  and  O_12
REMARK    3  A    between atoms: O_12  and  C_13
REMARK    4  A    between atoms: C_13  and  C_14
REMARK                            x       y       z     vdW  Elec       q    Type
REMARK                         _______ _______ _______ _____ _____    ______ ____
ROOT
ATOM      1  N   UNL     1       7.006   5.821  18.433  0.00  0.00    +0.000 N 
ATOM      2  C   UNL     1       5.731   5.376  18.718  0.00  0.00    +0.000 A 
ATOM      3  N   UNL     1       5.615   4.120  19.131  0.00  0.00    +0.000 NA
ATOM      4  C   UNL     1       4.367   3.671  19.355  0.00  0.00    +0.000 A 
ATOM      5  C   UNL     1       3.237   4.467  19.186  0.00  0.00    +0.000 A 
ATOM      6  C   UNL     1       3.472   5.813  18.868  0.00  0.00    +0.000 A 
ATOM      7  N   UNL     1       4.724   6.243  18.604  0.00  0.00    +0.000 NA
ATOM      8  C   UNL     1       1.874   3.822  19.305  0.00  0.00    +0.000 C 
ATOM      9  C   UNL     1       1.616   2.713  18.284  0.00  0.00    +0.000 C 
ATOM     10  N   UNL     1       2.151   1.409  18.654  0.00  0.00    +0.000 NA
ATOM     11  C   UNL     1       3.621   1.377  18.660  0.00  0.00    +0.000 C 
ATOM     12  C   UNL     1       4.255   2.225  19.762  0.00  0.00    +0.000 C 
ATOM     13  H   UNL     1       7.674   5.258  18.942  0.00  0.00    +0.000 HD
ATOM     14  H   UNL     1       7.049   6.821  18.556  0.00  0.00    +0.000 HD
ATOM     15  H   UNL     1       1.818   0.725  17.976  0.00  0.00    +0.000 HD
ENDROOT
BRANCH   6  16
ATOM     16  N   UNL     1       2.480   6.779  18.851  0.00  0.00    +0.000 N 
ATOM     17  C   UNL     1       2.113   7.476  17.625  0.00  0.00    +0.000 C 
ATOM     18  C   UNL     1       2.106   8.994  17.837  0.00  0.00    +0.000 C 
ATOM     19  C   UNL     1       1.326   9.419  19.085  0.00  0.00    +0.000 C 
ATOM     20  C   UNL     1       1.850   8.701  20.330  0.00  0.00    +0.000 C 
ATOM     21  C   UNL     1       1.836   7.196  20.079  0.00  0.00    +0.000 C 
BRANCH  20  22
ATOM     22  O   UNL     1       1.011   9.030  21.457  0.00  0.00    +0.000 OA
BRANCH  22  23
ATOM     23  C   UNL     1      -0.338   9.364  21.077  0.00  0.00    +0.000 C 
BRANCH  23  24
ATOM     24  C   UNL     1      -0.771  10.728  21.552  0.00  0.00    +0.000 A 
ATOM     25  C   UNL     1      -0.799  11.817  20.693  0.00  0.00    +0.000 A 
ATOM     26  C   UNL     1      -1.192  13.054  21.190  0.00  0.00    +0.000 A 
ATOM     27  C   UNL     1      -1.537  13.172  22.531  0.00  0.00    +0.000 A 
ATOM     28  C   UNL     1      -1.474  12.043  23.327  0.00  0.00    +0.000 A 
ATOM     29  N   UNL     1      -1.095  10.832  22.871  0.00  0.00    +0.000 NA
ENDBRANCH  23  24
ENDBRANCH  22  23
ENDBRANCH  20  22
ENDBRANCH   6  16
TORSDOF 4
ENDMDL
MODEL 6
REMARK VINA RESULT:      -7.5      2.326      4.307
REMARK  Name = 
REMARK  4 active torsions:
REMARK  status: ('A' for Active; 'I' for Inactive)
REMARK    1  A    between atoms: C_6  and  N_7
REMARK    2  A    between atoms: C_11  and  O_12
REMARK    3  A    between atoms: O_12  and  C_13
REMARK    4  A    between atoms: C_13  and  C_14
REMARK                            x       y       z     vdW  Elec       q    Type
REMARK                         _______ _______ _______ _____ _____    ______ ____
ROOT
ATOM      1  N   UNL     1       8.454   6.097  19.843  0.00  0.00    +0.000 N 
ATOM      2  C   UNL     1       7.508   5.422  19.099  0.00  0.00    +0.000 A 
ATOM      3  N   UNL     1       7.855   5.071  17.866  0.00  0.00    +0.000 NA
ATOM      4  C   UNL     1       6.913   4.462  17.124  0.00  0.00    +0.000 A 
ATOM      5  C   UNL     1       5.636   4.186  17.605  0.00  0.00    +0.000 A 
ATOM      6  C   UNL     1       5.407   4.482  18.957  0.00  0.00    +0.000 A 
ATOM      7  N   UNL     1       6.342   5.132  19.680  0.00  0.00    +0.000 NA
ATOM      8  C   UNL     1       4.601   3.649  16.641  0.00  0.00    +0.000 C 
ATOM      9  C   UNL     1       4.288   4.585  15.473  0.00  0.00    +0.000 C 
ATOM     10  N   UNL     1       5.222   4.500  14.357  0.00  0.00    +0.000 NA
ATOM     11  C   UNL     1       6.563   4.999  14.697  0.00  0.00    +0.000 C 
ATOM     12  C   UNL     1       7.309   4.130  15.709  0.00  0.00    +0.000 C 
ATOM     13  H   UNL     1       9.373   5.882  19.481  0.00  0.00    +0.000 HD
ATOM     14  H   UNL     1       8.288   5.936  20.825  0.00  0.00    +0.000 HD
ATOM     15  H   UNL     1       4.854   5.064  13.592  0.00  0.00    +0.000 HD
ENDROOT
BRANCH   6  16
ATOM     16  N   UNL     1       4.265   4.101  19.640  0.00  0.00    +0.000 N 
ATOM     17  C   UNL     1       3.892   2.698  19.782  0.00  0.00    +0.000 C 
ATOM     18  C   UNL     1       2.433   2.473  19.367  0.00  0.00    +0.000 C 
ATOM     19  C   UNL     1       1.468   3.472  20.014  0.00  0.00    +0.000 C 
ATOM     20  C   UNL     1       1.895   4.912  19.727  0.00  0.00    +0.000 C 
ATOM     21  C   UNL     1       3.348   5.094  20.158  0.00  0.00    +0.000 C 
BRANCH  20  22
ATOM     22  O   UNL     1       1.039   5.816  20.456  0.00  0.00    +0.000 OA
BRANCH  22  23
ATOM     23  C   UNL     1       1.714   7.017  20.877  0.00  0.00    +0.000 C 
BRANCH  23  24
ATOM     24  C   UNL     1       1.440   8.200  19.984  0.00  0.00    +0.000 A 
ATOM     25  C   UNL     1       2.024   8.308  18.729  0.00  0.00    +0.000 A 
ATOM     26  C   UNL     1       1.747   9.429  17.955  0.00  0.00    +0.000 A 
ATOM     27  C   UNL     1       0.904  10.414  18.457  0.00  0.00    +0.000 A 
ATOM     28  C   UNL     1       0.369  10.238  19.720  0.00  0.00    +0.000 A 
ATOM     29  N   UNL     1       0.622   9.163  20.492  0.00  0.00    +0.000 NA
ENDBRANCH  23  24
ENDBRANCH  22  23
ENDBRANCH  20  22
ENDBRANCH   6  16
TORSDOF 4
ENDMDL
MODEL 7
REMARK VINA RESULT:      -7.4      1.635      3.080
REMARK  Name = 
REMARK  4 active torsions:
REMARK  status: ('A' for Active; 'I' for Inactive)
REMARK    1  A    between atoms: C_6  and  N_7
REMARK    2  A    between atoms: C_11  and  O_12
REMARK    3  A    between atoms: O_12  and  C_13
REMARK    4  A    between atoms: C_13  and  C_14
REMARK                            x       y       z     vdW  Elec       q    Type
REMARK                         _______ _______ _______ _____ _____    ______ ____
ROOT
ATOM      1  N   UNL     1       3.046   1.843  18.957  0.00  0.00    +0.000 N 
ATOM      2  C   UNL     1       3.425   3.024  18.355  0.00  0.00    +0.000 A 
ATOM      3  N   UNL     1       4.428   2.958  17.487  0.00  0.00    +0.000 NA
ATOM      4  C   UNL     1       4.833   4.119  16.942  0.00  0.00    +0.000 A 
ATOM      5  C   UNL     1       4.238   5.341  17.242  0.00  0.00    +0.000 A 
ATOM      6  C   UNL     1       3.108   5.291  18.072  0.00  0.00    +0.000 A 
ATOM      7  N   UNL     1       2.736   4.128  18.647  0.00  0.00    +0.000 NA
ATOM      8  C   UNL     1       4.871   6.605  16.705  0.00  0.00    +0.000 C 
ATOM      9  C   UNL     1       6.303   6.842  17.187  0.00  0.00    +0.000 C 
ATOM     10  N   UNL     1       7.325   6.131  16.430  0.00  0.00    +0.000 NA
ATOM     11  C   UNL     1       7.260   4.673  16.613  0.00  0.00    +0.000 C 
ATOM     12  C   UNL     1       6.013   4.028  16.010  0.00  0.00    +0.000 C 
ATOM     13  H   UNL     1       3.324   1.068  18.370  0.00  0.00    +0.000 HD
ATOM     14  H   UNL     1       2.076   1.899  19.227  0.00  0.00    +0.000 HD
ATOM     15  H   UNL     1       8.238   6.453  16.748  0.00  0.00    +0.000 HD
ENDROOT
BRANCH   6  16
ATOM     16  N   UNL     1       2.289   6.380  18.315  0.00  0.00    +0.000 N 
ATOM     17  C   UNL     1       2.115   7.441  17.330  0.00  0.00    +0.000 C 
ATOM     18  C   UNL     1       2.343   8.819  17.961  0.00  0.00    +0.000 C 
ATOM     19  C   UNL     1       1.570   9.012  19.269  0.00  0.00    +0.000 C 
ATOM     20  C   UNL     1       1.893   7.901  20.268  0.00  0.00    +0.000 C 
ATOM     21  C   UNL     1       1.649   6.549  19.603  0.00  0.00    +0.000 C 
BRANCH  20  22
ATOM     22  O   UNL     1       1.053   8.047  21.432  0.00  0.00    +0.000 OA
BRANCH  22  23
ATOM     23  C   UNL     1       1.464   9.127  22.292  0.00  0.00    +0.000 C 
BRANCH  23  24
ATOM     24  C   UNL     1       0.447  10.236  22.384  0.00  0.00    +0.000 A 
ATOM     25  C   UNL     1      -0.721  10.086  23.118  0.00  0.00    +0.000 A 
ATOM     26  C   UNL     1      -1.630  11.137  23.155  0.00  0.00    +0.000 A 
ATOM     27  C   UNL     1      -1.353  12.304  22.452  0.00  0.00    +0.000 A 
ATOM     28  C   UNL     1      -0.173  12.374  21.735  0.00  0.00    +0.000 A 
ATOM     29  N   UNL     1       0.725  11.369  21.681  0.00  0.00    +0.000 NA
ENDBRANCH  23  24
ENDBRANCH  22  23
ENDBRANCH  20  22
ENDBRANCH   6  16
TORSDOF 4
ENDMDL
MODEL 8
REMARK VINA RESULT:      -7.4      2.527      4.111
REMARK  Name = 
REMARK  4 active torsions:
REMARK  status: ('A' for Active; 'I' for Inactive)
REMARK    1  A    between atoms: C_6  and  N_7
REMARK    2  A    between atoms: C_11  and  O_12
REMARK    3  A    between atoms: O_12  and  C_13
REMARK    4  A    between atoms: C_13  and  C_14
REMARK                            x       y       z     vdW  Elec       q    Type
REMARK                         _______ _______ _______ _____ _____    ______ ____
ROOT
ATOM      1  N   UNL     1       1.049   3.235  21.038  0.00  0.00    +0.000 N 
ATOM      2  C   UNL     1       1.615   4.170  20.196  0.00  0.00    +0.000 A 
ATOM      3  N   UNL     1       2.163   3.712  19.076  0.00  0.00    +0.000 NA
ATOM      4  C   UNL     1       2.762   4.619  18.283  0.00  0.00    +0.000 A 
ATOM      5  C   UNL     1       2.805   5.976  18.588  0.00  0.00    +0.000 A 
ATOM      6  C   UNL     1       2.090   6.377  19.727  0.00  0.00    +0.000 A 
ATOM      7  N   UNL     1       1.530   5.456  20.538  0.00  0.00    +0.000 NA
ATOM      8  C   UNL     1       3.642   6.886  17.716  0.00  0.00    +0.000 C 
ATOM      9  C   UNL     1       5.130   6.536  17.694  0.00  0.00    +0.000 C 
ATOM     10  N   UNL     1       5.492   5.478  16.758  0.00  0.00    +0.000 NA
ATOM     11  C   UNL     1       4.954   4.166  17.146  0.00  0.00    +0.000 C 
ATOM     12  C   UNL     1       3.432   4.068  17.051  0.00  0.00    +0.000 C 
ATOM     13  H   UNL     1       0.802   2.414  20.502  0.00  0.00    +0.000 HD
ATOM     14  H   UNL     1       0.323   3.671  21.586  0.00  0.00    +0.000 HD
ATOM     15  H   UNL     1       6.509   5.412  16.732  0.00  0.00    +0.000 HD
ENDROOT
BRANCH   6  16
ATOM     16  N   UNL     1       1.872   7.701  20.065  0.00  0.00    +0.000 N 
ATOM     17  C   UNL     1       1.796   8.133  21.455  0.00  0.00    +0.000 C 
ATOM     18  C   UNL     1       0.537   8.971  21.702  0.00  0.00    +0.000 C 
ATOM     19  C   UNL     1       0.347  10.082  20.665  0.00  0.00    +0.000 C 
ATOM     20  C   UNL     1       0.348   9.514  19.245  0.00  0.00    +0.000 C 
ATOM     21  C   UNL     1       1.617   8.692  19.040  0.00  0.00    +0.000 C 
BRANCH  20  22
ATOM     22  O   UNL     1       0.295  10.600  18.298  0.00  0.00    +0.000 OA
BRANCH  22  23
ATOM     23  C   UNL     1      -0.629  11.637  18.680  0.00  0.00    +0.000 C 
BRANCH  23  24
ATOM     24  C   UNL     1      -2.019  11.429  18.134  0.00  0.00    +0.000 A 
ATOM     25  C   UNL     1      -2.227  10.860  16.885  0.00  0.00    +0.000 A 
ATOM     26  C   UNL     1      -3.530  10.706  16.427  0.00  0.00    +0.000 A 
ATOM     27  C   UNL     1      -4.588  11.131  17.222  0.00  0.00    +0.000 A 
ATOM     28  C   UNL     1      -4.300  11.697  18.450  0.00  0.00    +0.000 A 
ATOM     29  N   UNL     1      -3.046  11.860  18.918  0.00  0.00    +0.000 NA
ENDBRANCH  23  24
ENDBRANCH  22  23
ENDBRANCH  20  22
ENDBRANCH   6  16
TORSDOF 4
ENDMDL
MODEL 9
REMARK VINA RESULT:      -7.2      2.370      3.252
REMARK  Name = 
REMARK  4 active torsions:
REMARK  status: ('A' for Active; 'I' for Inactive)
REMARK    1  A    between atoms: C_6  and  N_7
REMARK    2  A    between atoms: C_11  and  O_12
REMARK    3  A    between atoms: O_12  and  C_13
REMARK    4  A    between atoms: C_13  and  C_14
REMARK                            x       y       z     vdW  Elec       q    Type
REMARK                         _______ _______ _______ _____ _____    ______ ____
ROOT
ATOM      1  N   UNL     1       4.825   6.664  16.320  0.00  0.00    +0.000 N 
ATOM      2  C   UNL     1       4.112   6.369  17.464  0.00  0.00    +0.000 A 
ATOM      3  N   UNL     1       4.284   5.157  17.979  0.00  0.00    +0.000 NA
ATOM      4  C   UNL     1       3.547   4.852  19.062  0.00  0.00    +0.000 A 
ATOM      5  C   UNL     1       2.654   5.748  19.644  0.00  0.00    +0.000 A 
ATOM      6  C   UNL     1       2.636   7.042  19.103  0.00  0.00    +0.000 A 
ATOM      7  N   UNL     1       3.346   7.325  17.991  0.00  0.00    +0.000 NA
ATOM      8  C   UNL     1       1.755   5.253  20.756  0.00  0.00    +0.000 C 
ATOM      9  C   UNL     1       0.817   4.118  20.344  0.00  0.00    +0.000 C 
ATOM     10  N   UNL     1       1.417   2.790  20.378  0.00  0.00    +0.000 NA
ATOM     11  C   UNL     1       2.458   2.608  19.355  0.00  0.00    +0.000 C 
ATOM     12  C   UNL     1       3.711   3.451  19.591  0.00  0.00    +0.000 C 
ATOM     13  H   UNL     1       5.639   6.067  16.275  0.00  0.00    +0.000 HD
ATOM     14  H   UNL     1       4.972   7.660  16.263  0.00  0.00    +0.000 HD
ATOM     15  H   UNL     1       0.681   2.105  20.210  0.00  0.00    +0.000 HD
ENDROOT
BRANCH   6  16
ATOM     16  N   UNL     1       1.953   8.100  19.676  0.00  0.00    +0.000 N 
ATOM     17  C   UNL     1       1.670   8.143  21.106  0.00  0.00    +0.000 C 
ATOM     18  C   UNL     1       0.187   8.433  21.364  0.00  0.00    +0.000 C 
ATOM     19  C   UNL     1      -0.336   9.628  20.561  0.00  0.00    +0.000 C 
ATOM     20  C   UNL     1      -0.074   9.442  19.066  0.00  0.00    +0.000 C 
ATOM     21  C   UNL     1       1.411   9.161  18.853  0.00  0.00    +0.000 C 
BRANCH  20  22
ATOM     22  O   UNL     1      -0.464  10.640  18.362  0.00  0.00    +0.000 OA
BRANCH  22  23
ATOM     23  C   UNL     1      -1.581  10.434  17.476  0.00  0.00    +0.000 C 
BRANCH  23  24
ATOM     24  C   UNL     1      -2.874  11.002  18.005  0.00  0.00    +0.000 A 
ATOM     25  C   UNL     1      -4.093  10.685  17.423  0.00  0.00    +0.000 A 
ATOM     26  C   UNL     1      -5.252  11.251  17.943  0.00  0.00    +0.000 A 
ATOM     27  C   UNL     1      -5.161  12.123  19.022  0.00  0.00    +0.000 A 
ATOM     28  C   UNL     1      -3.908  12.397  19.540  0.00  0.00    +0.000 A 
ATOM     29  N   UNL     1      -2.769  11.864  19.054  0.00  0.00    +0.000 NA
ENDBRANCH  23  24
ENDBRANCH  22  23
ENDBRANCH  20  22
ENDBRANCH   6  16
TORSDOF 4
ENDMDL
