MODEL 1
REMARK VINA RESULT:      -7.0      0.000      0.000
REMARK  Name = 
REMARK  5 active torsions:
REMARK  status: ('A' for Active; 'I' for Inactive)
REMARK    1  A    between atoms: C_1  and  C_2
REMARK    2  A    between atoms: N_7  and  C_8
REMARK    3  A    between atoms: C_8  and  C_9
REMARK    4  A    between atoms: N_11  and  C_12
REMARK    5  A    between atoms: C_15  and  C_16
REMARK                            x       y       z     vdW  Elec       q    Type
REMARK                         _______ _______ _______ _____ _____    ______ ____
ROOT
ATOM      1  C   UNL     1       2.129   6.240  20.109  0.00  0.00    +0.000 C 
ATOM      2  O   UNL     1       1.243   5.657  20.712  0.00  0.00    +0.000 OA
ATOM      3  N   UNL     1       2.220   7.604  20.115  0.00  0.00    +0.000 N 
ATOM      4  H   UNL     1       2.942   8.027  19.504  0.00  0.00    +0.000 HD
ENDROOT
BRANCH   3   5
ATOM      5  C   UNL     1       1.363   8.496  20.836  0.00  0.00    +0.000 A 
ATOM      6  C   UNL     1       1.360   8.599  22.247  0.00  0.00    +0.000 A 
ATOM      7  C   UNL     1       0.488   9.469  22.898  0.00  0.00    +0.000 A 
ATOM      8  C   UNL     1      -0.406  10.258  22.166  0.00  0.00    +0.000 A 
ATOM      9  C   UNL     1      -1.356  11.175  22.878  0.00  0.00    +0.000 C 
ATOM     10  C   UNL     1      -0.402  10.182  20.766  0.00  0.00    +0.000 A 
ATOM     11  F   UNL     1      -1.258  10.940  20.035  0.00  0.00    +0.000 F 
ATOM     12  C   UNL     1       0.479   9.317  20.110  0.00  0.00    +0.000 A 
ENDBRANCH   3   5
BRANCH   1  13
ATOM     13  C   UNL     1       3.088   5.415  19.307  0.00  0.00    +0.000 C 
BRANCH  13  20
ATOM     14  C   UNL     1       6.865   4.711  14.852  0.00  0.00    +0.000 C 
ATOM     15  C   UNL     1       6.952   4.458  16.335  0.00  0.00    +0.000 C 
ATOM     16  O   UNL     1       8.040   4.158  16.803  0.00  0.00    +0.000 OA
ATOM     17  N   UNL     1       5.859   4.588  17.155  0.00  0.00    +0.000 N 
ATOM     18  C   UNL     1       5.962   4.434  18.599  0.00  0.00    +0.000 C 
ATOM     19  C   UNL     1       5.553   5.768  19.247  0.00  0.00    +0.000 C 
ATOM     20  N   UNL     1       4.212   6.223  18.790  0.00  0.00    +0.000 NA
ATOM     21  C   UNL     1       4.167   6.308  17.310  0.00  0.00    +0.000 C 
ATOM     22  C   UNL     1       4.547   4.972  16.655  0.00  0.00    +0.000 C 
ENDBRANCH  13  20
ENDBRANCH   1  13
TORSDOF 3
ENDMDL
MODEL 2
REMARK VINA RESULT:      -6.8      1.545      2.138
REMARK  Name = 
REMARK  5 active torsions:
REMARK  status: ('A' for Active; 'I' for Inactive)
REMARK    1  A    between atoms: C_1  and  C_2
REMARK    2  A    between atoms: N_7  and  C_8
REMARK    3  A    between atoms: C_8  and  C_9
REMARK    4  A    between atoms: N_11  and  C_12
REMARK    5  A    between atoms: C_15  and  C_16
REMARK                            x       y       z     vdW  Elec       q    Type
REMARK                         _______ _______ _______ _____ _____    ______ ____
ROOT
ATOM      1  C   UNL     1       2.054   5.963  20.439  0.00  0.00    +0.000 C 
ATOM      2  O   UNL     1       0.914   5.561  20.600  0.00  0.00    +0.000 OA
ATOM      3  N   UNL     1       2.356   7.295  20.488  0.00  0.00    +0.000 N 
ATOM      4  H   UNL     1       3.328   7.564  20.249  0.00  0.00    +0.000 HD
ENDROOT
BRANCH   3   5
ATOM      5  C   UNL     1       1.432   8.352  20.769  0.00  0.00    +0.000 A 
ATOM      6  C   UNL     1       0.912   9.214  19.774  0.00  0.00    +0.000 A 
ATOM      7  C   UNL     1       0.032  10.241  20.107  0.00  0.00    +0.000 A 
ATOM      8  C   UNL     1      -0.355  10.442  21.437  0.00  0.00    +0.000 A 
ATOM      9  C   UNL     1      -1.286  11.564  21.788  0.00  0.00    +0.000 C 
ATOM     10  C   UNL     1       0.136   9.584  22.431  0.00  0.00    +0.000 A 
ATOM     11  F   UNL     1      -0.228   9.758  23.728  0.00  0.00    +0.000 F 
ATOM     12  C   UNL     1       1.012   8.546  22.098  0.00  0.00    +0.000 A 
ENDBRANCH   3   5
BRANCH   1  13
ATOM     13  C   UNL     1       3.115   4.951  20.130  0.00  0.00    +0.000 C 
BRANCH  13  20
ATOM     14  C   UNL     1       6.906   4.463  15.658  0.00  0.00    +0.000 C 
ATOM     15  C   UNL     1       5.837   5.467  16.006  0.00  0.00    +0.000 C 
ATOM     16  O   UNL     1       5.557   6.319  15.177  0.00  0.00    +0.000 OA
ATOM     17  N   UNL     1       5.165   5.420  17.202  0.00  0.00    +0.000 N 
ATOM     18  C   UNL     1       4.070   6.331  17.501  0.00  0.00    +0.000 C 
ATOM     19  C   UNL     1       2.800   5.489  17.718  0.00  0.00    +0.000 C 
ATOM     20  N   UNL     1       2.998   4.435  18.750  0.00  0.00    +0.000 NA
ATOM     21  C   UNL     1       4.158   3.580  18.404  0.00  0.00    +0.000 C 
ATOM     22  C   UNL     1       5.437   4.409  18.213  0.00  0.00    +0.000 C 
ENDBRANCH  13  20
ENDBRANCH   1  13
TORSDOF 3
ENDMDL
MODEL 3
REMARK VINA RESULT:      -6.7      1.422      1.898
REMARK  Name = 
REMARK  5 active torsions:
REMARK  status: ('A' for Active; 'I' for Inactive)
REMARK    1  A    between atoms: C_1  and  C_2
REMARK    2  A    between atoms: N_7  and  C_8
REMARK    3  A    between atoms: C_8  and  C_9
REMARK    4  A    between atoms: N_11  and  C_12
REMARK    5  A    between atoms: C_15  and  C_16
REMARK                            x       y       z     vdW  Elec       q    Type
REMARK                         _______ _______ _______ _____ _____    ______ ____
ROOT
ATOM      1  C   UNL     1       2.140   6.430  20.174  0.00  0.00    +0.000 C 
ATOM      2  O   UNL     1       1.238   5.827  20.732  0.00  0.00    +0.000 OA
ATOM      3  N   UNL     1       2.183   7.796  20.159  0.00  0.00    +0.000 N 
ATOM      4  H   UNL     1       2.927   8.234  19.586  0.00  0.00    +0.000 HD
ENDROOT
BRANCH   3   5
ATOM      5  C   UNL     1       1.251   8.670  20.805  0.00  0.00    +0.000 A 
ATOM      6  C   UNL     1       0.421   9.576  20.103  0.00  0.00    +0.000 A 
ATOM      7  C   UNL     1      -0.453  10.420  20.785  0.00  0.00    +0.000 A 
ATOM      8  C   UNL     1      -0.526  10.388  22.181  0.00  0.00    +0.000 A 
ATOM      9  C   UNL     1      -1.455  11.316  22.907  0.00  0.00    +0.000 C 
ATOM     10  C   UNL     1       0.275   9.482  22.891  0.00  0.00    +0.000 A 
ATOM     11  F   UNL     1       0.219   9.431  24.246  0.00  0.00    +0.000 F 
ATOM     12  C   UNL     1       1.147   8.627  22.208  0.00  0.00    +0.000 A 
ENDBRANCH   3   5
BRANCH   1  13
ATOM     13  C   UNL     1       3.176   5.626  19.453  0.00  0.00    +0.000 C 
BRANCH  13  20
ATOM     14  C   UNL     1       6.360   3.611  14.935  0.00  0.00    +0.000 C 
ATOM     15  C   UNL     1       6.319   4.926  15.669  0.00  0.00    +0.000 C 
ATOM     16  O   UNL     1       6.967   5.857  15.216  0.00  0.00    +0.000 OA
ATOM     17  N   UNL     1       5.558   5.098  16.798  0.00  0.00    +0.000 N 
ATOM     18  C   UNL     1       5.445   6.393  17.455  0.00  0.00    +0.000 C 
ATOM     19  C   UNL     1       3.967   6.817  17.413  0.00  0.00    +0.000 C 
ATOM     20  N   UNL     1       3.070   5.777  17.986  0.00  0.00    +0.000 NA
ATOM     21  C   UNL     1       3.276   4.478  17.302  0.00  0.00    +0.000 C 
ATOM     22  C   UNL     1       4.745   4.032  17.364  0.00  0.00    +0.000 C 
ENDBRANCH  13  20
ENDBRANCH   1  13
TORSDOF 3
ENDMDL
MODEL 4
REMARK VINA RESULT:      -6.7      0.910      1.069
REMARK  Name = 
REMARK  5 active torsions:
REMARK  status: ('A' for Active; 'I' for Inactive)
REMARK    1  A    between atoms: C_1  and  C_2
REMARK    2  A    between atoms: N_7  and  C_8
REMARK    3  A    between atoms: C_8  and  C_9
REMARK    4  A    between atoms: N_11  and  C_12
REMARK    5  A    between atoms: C_15  and  C_16
REMARK                            x       y       z     vdW  Elec       q    Type
REMARK                         _______ _______ _______ _____ _____    ______ ____
ROOT
ATOM      1  C   UNL     1       2.176   6.350  20.257  0.00  0.00    +0.000 C 
ATOM      2  O   UNL     1       1.332   5.762  20.912  0.00  0.00    +0.000 OA
ATOM      3  N   UNL     1       2.200   7.715  20.184  0.00  0.00    +0.000 N 
ATOM      4  H   UNL     1       2.887   8.136  19.533  0.00  0.00    +0.000 HD
ENDROOT
BRANCH   3   5
ATOM      5  C   UNL     1       1.314   8.605  20.871  0.00  0.00    +0.000 A 
ATOM      6  C   UNL     1       1.244   8.694  22.282  0.00  0.00    +0.000 A 
ATOM      7  C   UNL     1       0.346   9.563  22.898  0.00  0.00    +0.000 A 
ATOM      8  C   UNL     1      -0.507  10.365  22.133  0.00  0.00    +0.000 A 
ATOM      9  C   UNL     1      -1.485  11.281  22.808  0.00  0.00    +0.000 C 
ATOM     10  C   UNL     1      -0.436  10.303  20.734  0.00  0.00    +0.000 A 
ATOM     11  F   UNL     1      -1.252  11.074  19.970  0.00  0.00    +0.000 F 
ATOM     12  C   UNL     1       0.471   9.438  20.112  0.00  0.00    +0.000 A 
ENDBRANCH   3   5
BRANCH   1  13
ATOM     13  C   UNL     1       3.158   5.527  19.482  0.00  0.00    +0.000 C 
BRANCH  13  20
ATOM     14  C   UNL     1       6.325   3.695  14.876  0.00  0.00    +0.000 C 
ATOM     15  C   UNL     1       6.412   4.896  15.782  0.00  0.00    +0.000 C 
ATOM     16  O   UNL     1       7.204   5.779  15.491  0.00  0.00    +0.000 OA
ATOM     17  N   UNL     1       5.611   5.024  16.888  0.00  0.00    +0.000 N 
ATOM     18  C   UNL     1       5.629   6.224  17.712  0.00  0.00    +0.000 C 
ATOM     19  C   UNL     1       4.226   6.853  17.664  0.00  0.00    +0.000 C 
ATOM     20  N   UNL     1       3.165   5.882  18.047  0.00  0.00    +0.000 NA
ATOM     21  C   UNL     1       3.241   4.667  17.201  0.00  0.00    +0.000 C 
ATOM     22  C   UNL     1       4.630   4.016  17.266  0.00  0.00    +0.000 C 
ENDBRANCH  13  20
ENDBRANCH   1  13
TORSDOF 3
ENDMDL
MODEL 5
REMARK VINA RESULT:      -6.6      1.412      1.870
REMARK  Name = 
REMARK  5 active torsions:
REMARK  status: ('A' for Active; 'I' for Inactive)
REMARK    1  A    between atoms: C_1  and  C_2
REMARK    2  A    between atoms: N_7  and  C_8
REMARK    3  A    between atoms: C_8  and  C_9
REMARK    4  A    between atoms: N_11  and  C_12
REMARK    5  A    between atoms: C_15  and  C_16
REMARK                            x       y       z     vdW  Elec       q    Type
REMARK                         _______ _______ _______ _____ _____    ______ ____
ROOT
ATOM      1  C   UNL     1       2.057   5.712  20.393  0.00  0.00    +0.000 C 
ATOM      2  O   UNL     1       0.888   5.382  20.508  0.00  0.00    +0.000 OA
ATOM      3  N   UNL     1       2.432   7.026  20.389  0.00  0.00    +0.000 N 
ATOM      4  H   UNL     1       3.429   7.227  20.193  0.00  0.00    +0.000 HD
ENDROOT
BRANCH   3   5
ATOM      5  C   UNL     1       1.557   8.146  20.561  0.00  0.00    +0.000 A 
ATOM      6  C   UNL     1       0.973   8.492  21.803  0.00  0.00    +0.000 A 
ATOM      7  C   UNL     1       0.110   9.580  21.908  0.00  0.00    +0.000 A 
ATOM      8  C   UNL     1      -0.199  10.353  20.784  0.00  0.00    +0.000 A 
ATOM      9  C   UNL     1      -1.147  11.510  20.904  0.00  0.00    +0.000 C 
ATOM     10  C   UNL     1       0.387  10.036  19.550  0.00  0.00    +0.000 A 
ATOM     11  F   UNL     1       0.104  10.774  18.446  0.00  0.00    +0.000 F 
ATOM     12  C   UNL     1       1.261   8.949  19.443  0.00  0.00    +0.000 A 
ENDBRANCH   3   5
BRANCH   1  13
ATOM     13  C   UNL     1       3.072   4.628  20.198  0.00  0.00    +0.000 C 
BRANCH  13  20
ATOM     14  C   UNL     1       7.016   4.504  15.835  0.00  0.00    +0.000 C 
ATOM     15  C   UNL     1       5.840   5.393  16.144  0.00  0.00    +0.000 C 
ATOM     16  O   UNL     1       5.496   6.205  15.298  0.00  0.00    +0.000 OA
ATOM     17  N   UNL     1       5.143   5.286  17.321  0.00  0.00    +0.000 N 
ATOM     18  C   UNL     1       3.951   6.079  17.581  0.00  0.00    +0.000 C 
ATOM     19  C   UNL     1       2.770   5.111  17.773  0.00  0.00    +0.000 C 
ATOM     20  N   UNL     1       3.048   4.092  18.820  0.00  0.00    +0.000 NA
ATOM     21  C   UNL     1       4.301   3.359  18.515  0.00  0.00    +0.000 C 
ATOM     22  C   UNL     1       5.491   4.316  18.350  0.00  0.00    +0.000 C 
ENDBRANCH  13  20
ENDBRANCH   1  13
TORSDOF 3
ENDMDL
MODEL 6
REMARK VINA RESULT:      -6.6      3.570      8.583
REMARK  Name = 
REMARK  5 active torsions:
REMARK  status: ('A' for Active; 'I' for Inactive)
REMARK    1  A    between atoms: C_1  and  C_2
REMARK    2  A    between atoms: N_7  and  C_8
REMARK    3  A    between atoms: C_8  and  C_9
REMARK    4  A    between atoms: N_11  and  C_12
REMARK    5  A    between atoms: C_15  and  C_16
REMARK                            x       y       z     vdW  Elec       q    Type
REMARK                         _______ _______ _______ _____ _____    ______ ____
ROOT
ATOM      1  C   UNL     1       1.876   7.687  20.229  0.00  0.00    +0.000 C 
ATOM      2  O   UNL     1       2.219   7.860  19.072  0.00  0.00    +0.000 OA
ATOM      3  N   UNL     1       1.889   6.446  20.801  0.00  0.00    +0.000 N 
ATOM      4  H   UNL     1       1.495   6.367  21.756  0.00  0.00    +0.000 HD
ENDROOT
BRANCH   3   5
ATOM      5  C   UNL     1       2.332   5.239  20.170  0.00  0.00    +0.000 A 
ATOM      6  C   UNL     1       3.685   4.989  19.836  0.00  0.00    +0.000 A 
ATOM      7  C   UNL     1       4.056   3.806  19.202  0.00  0.00    +0.000 A 
ATOM      8  C   UNL     1       3.097   2.840  18.881  0.00  0.00    +0.000 A 
ATOM      9  C   UNL     1       3.505   1.578  18.179  0.00  0.00    +0.000 C 
ATOM     10  C   UNL     1       1.756   3.063  19.224  0.00  0.00    +0.000 A 
ATOM     11  F   UNL     1       0.808   2.139  18.926  0.00  0.00    +0.000 F 
ATOM     12  C   UNL     1       1.381   4.246  19.869  0.00  0.00    +0.000 A 
ENDBRANCH   3   5
BRANCH   1  13
ATOM     13  C   UNL     1       1.383   8.875  20.996  0.00  0.00    +0.000 C 
BRANCH  13  20
ATOM     14  C   UNL     1      -2.319  13.378  21.789  0.00  0.00    +0.000 C 
ATOM     15  C   UNL     1      -1.873  12.236  22.665  0.00  0.00    +0.000 C 
ATOM     16  O   UNL     1      -2.444  12.074  23.733  0.00  0.00    +0.000 OA
ATOM     17  N   UNL     1      -0.879  11.375  22.277  0.00  0.00    +0.000 N 
ATOM     18  C   UNL     1      -0.510  10.217  23.080  0.00  0.00    +0.000 C 
ATOM     19  C   UNL     1      -0.774   8.955  22.240  0.00  0.00    +0.000 C 
ATOM     20  N   UNL     1      -0.088   9.008  20.921  0.00  0.00    +0.000 NA
ATOM     21  C   UNL     1      -0.472  10.236  20.183  0.00  0.00    +0.000 C 
ATOM     22  C   UNL     1      -0.186  11.503  21.003  0.00  0.00    +0.000 C 
ENDBRANCH  13  20
ENDBRANCH   1  13
TORSDOF 3
ENDMDL
MODEL 7
REMARK VINA RESULT:      -6.5      5.835      7.545
REMARK  Name = 
REMARK  5 active torsions:
REMARK  status: ('A' for Active; 'I' for Inactive)
REMARK    1  A    between atoms: C_1  and  C_2
REMARK    2  A    between atoms: N_7  and  C_8
REMARK    3  A    between atoms: C_8  and  C_9
REMARK    4  A    between atoms: N_11  and  C_12
REMARK    5  A    between atoms: C_15  and  C_16
REMARK                            x       y       z     vdW  Elec       q    Type
REMARK                         _______ _______ _______ _____ _____    ______ ____
ROOT
ATOM      1  C   UNL     1       8.120   8.544  18.125  0.00  0.00    +0.000 C 
ATOM      2  O   UNL     1       7.613   9.267  17.284  0.00  0.00    +0.000 OA
ATOM      3  N   UNL     1       9.016   9.028  19.037  0.00  0.00    +0.000 N 
ATOM      4  H   UNL     1       9.473   8.334  19.657  0.00  0.00    +0.000 HD
ENDROOT
BRANCH   3   5
ATOM      5  C   UNL     1       9.430  10.393  19.160  0.00  0.00    +0.000 A 
ATOM      6  C   UNL     1       9.364  11.117  20.374  0.00  0.00    +0.000 A 
ATOM      7  C   UNL     1       9.759  12.452  20.430  0.00  0.00    +0.000 A 
ATOM      8  C   UNL     1      10.228  13.104  19.285  0.00  0.00    +0.000 A 
ATOM      9  C   UNL     1      10.630  14.548  19.353  0.00  0.00    +0.000 C 
ATOM     10  C   UNL     1      10.317  12.395  18.079  0.00  0.00    +0.000 A 
ATOM     11  F   UNL     1      10.772  13.005  16.955  0.00  0.00    +0.000 F 
ATOM     12  C   UNL     1       9.930  11.052  18.021  0.00  0.00    +0.000 A 
ENDBRANCH   3   5
BRANCH   1  13
ATOM     13  C   UNL     1       7.772   7.087  18.096  0.00  0.00    +0.000 C 
BRANCH  13  20
ATOM     14  C   UNL     1       2.546   4.416  17.707  0.00  0.00    +0.000 C 
ATOM     15  C   UNL     1       3.964   3.953  17.498  0.00  0.00    +0.000 C 
ATOM     16  O   UNL     1       4.142   2.838  17.034  0.00  0.00    +0.000 OA
ATOM     17  N   UNL     1       5.036   4.760  17.785  0.00  0.00    +0.000 N 
ATOM     18  C   UNL     1       6.403   4.350  17.497  0.00  0.00    +0.000 C 
ATOM     19  C   UNL     1       6.995   5.350  16.489  0.00  0.00    +0.000 C 
ATOM     20  N   UNL     1       6.881   6.756  16.963  0.00  0.00    +0.000 NA
ATOM     21  C   UNL     1       5.472   7.085  17.284  0.00  0.00    +0.000 C 
ATOM     22  C   UNL     1       4.881   6.109  18.312  0.00  0.00    +0.000 C 
ENDBRANCH  13  20
ENDBRANCH   1  13
TORSDOF 3
ENDMDL
MODEL 8
REMARK VINA RESULT:      -6.4      3.675      8.612
REMARK  Name = 
REMARK  5 active torsions:
REMARK  status: ('A' for Active; 'I' for Inactive)
REMARK    1  A    between atoms: C_1  and  C_2
REMARK    2  A    between atoms: N_7  and  C_8
REMARK    3  A    between atoms: C_8  and  C_9
REMARK    4  A    between atoms: N_11  and  C_12
REMARK    5  A    between atoms: C_15  and  C_16
REMARK                            x       y       z     vdW  Elec       q    Type
REMARK                         _______ _______ _______ _____ _____    ______ ____
ROOT
ATOM      1  C   UNL     1       1.894   7.567  20.237  0.00  0.00    +0.000 C 
ATOM      2  O   UNL     1       2.182   7.714  19.061  0.00  0.00    +0.000 OA
ATOM      3  N   UNL     1       1.906   6.335  20.827  0.00  0.00    +0.000 N 
ATOM      4  H   UNL     1       1.559   6.280  21.802  0.00  0.00    +0.000 HD
ENDROOT
BRANCH   3   5
ATOM      5  C   UNL     1       2.287   5.108  20.195  0.00  0.00    +0.000 A 
ATOM      6  C   UNL     1       1.376   4.061  19.918  0.00  0.00    +0.000 A 
ATOM      7  C   UNL     1       1.807   2.879  19.321  0.00  0.00    +0.000 A 
ATOM      8  C   UNL     1       3.153   2.702  18.983  0.00  0.00    +0.000 A 
ATOM      9  C   UNL     1       3.610   1.417  18.360  0.00  0.00    +0.000 C 
ATOM     10  C   UNL     1       4.065   3.738  19.232  0.00  0.00    +0.000 A 
ATOM     11  F   UNL     1       5.375   3.591  18.910  0.00  0.00    +0.000 F 
ATOM     12  C   UNL     1       3.634   4.930  19.824  0.00  0.00    +0.000 A 
ENDBRANCH   3   5
BRANCH   1  13
ATOM     13  C   UNL     1       1.469   8.779  21.008  0.00  0.00    +0.000 C 
BRANCH  13  20
ATOM     14  C   UNL     1      -1.848  13.548  21.932  0.00  0.00    +0.000 C 
ATOM     15  C   UNL     1      -1.585  12.298  22.730  0.00  0.00    +0.000 C 
ATOM     16  O   UNL     1      -2.256  12.105  23.733  0.00  0.00    +0.000 OA
ATOM     17  N   UNL     1      -0.647  11.377  22.340  0.00  0.00    +0.000 N 
ATOM     18  C   UNL     1      -0.457  10.125  23.059  0.00  0.00    +0.000 C 
ATOM     19  C   UNL     1      -0.767   8.971  22.089  0.00  0.00    +0.000 C 
ATOM     20  N   UNL     1       0.029   9.065  20.835  0.00  0.00    +0.000 NA
ATOM     21  C   UNL     1      -0.176  10.382  20.187  0.00  0.00    +0.000 C 
ATOM     22  C   UNL     1       0.159  11.541  21.138  0.00  0.00    +0.000 C 
ENDBRANCH  13  20
ENDBRANCH   1  13
TORSDOF 3
ENDMDL
MODEL 9
REMARK VINA RESULT:      -6.4      5.739      7.507
REMARK  Name = 
REMARK  5 active torsions:
REMARK  status: ('A' for Active; 'I' for Inactive)
REMARK    1  A    between atoms: C_1  and  C_2
REMARK    2  A    between atoms: N_7  and  C_8
REMARK    3  A    between atoms: C_8  and  C_9
REMARK    4  A    between atoms: N_11  and  C_12
REMARK    5  A    between atoms: C_15  and  C_16
REMARK                            x       y       z     vdW  Elec       q    Type
REMARK                         _______ _______ _______ _____ _____    ______ ____
ROOT
ATOM      1  C   UNL     1       8.165   8.624  18.198  0.00  0.00    +0.000 C 
ATOM      2  O   UNL     1       7.649   9.400  17.412  0.00  0.00    +0.000 OA
ATOM      3  N   UNL     1       9.078   9.046  19.124  0.00  0.00    +0.000 N 
ATOM      4  H   UNL     1       9.540   8.313  19.692  0.00  0.00    +0.000 HD
ENDROOT
BRANCH   3   5
ATOM      5  C   UNL     1       9.501  10.399  19.326  0.00  0.00    +0.000 A 
ATOM      6  C   UNL     1      10.015  11.214  18.289  0.00  0.00    +0.000 A 
ATOM      7  C   UNL     1      10.433  12.517  18.547  0.00  0.00    +0.000 A 
ATOM      8  C   UNL     1      10.353  13.047  19.839  0.00  0.00    +0.000 A 
ATOM      9  C   UNL     1      10.825  14.445  20.110  0.00  0.00    +0.000 C 
ATOM     10  C   UNL     1       9.826  12.260  20.873  0.00  0.00    +0.000 A 
ATOM     11  F   UNL     1       9.735  12.753  22.134  0.00  0.00    +0.000 F 
ATOM     12  C   UNL     1       9.398  10.953  20.616  0.00  0.00    +0.000 A 
ENDBRANCH   3   5
BRANCH   1  13
ATOM     13  C   UNL     1       7.809   7.174  18.084  0.00  0.00    +0.000 C 
BRANCH  13  20
ATOM     14  C   UNL     1       2.658   4.355  17.725  0.00  0.00    +0.000 C 
ATOM     15  C   UNL     1       4.075   3.971  17.387  0.00  0.00    +0.000 C 
ATOM     16  O   UNL     1       4.260   2.916  16.800  0.00  0.00    +0.000 OA
ATOM     17  N   UNL     1       5.136   4.786  17.694  0.00  0.00    +0.000 N 
ATOM     18  C   UNL     1       6.495   4.460  17.286  0.00  0.00    +0.000 C 
ATOM     19  C   UNL     1       6.990   5.580  16.353  0.00  0.00    +0.000 C 
ATOM     20  N   UNL     1       6.861   6.924  16.977  0.00  0.00    +0.000 NA
ATOM     21  C   UNL     1       5.464   7.165  17.411  0.00  0.00    +0.000 C 
ATOM     22  C   UNL     1       4.970   6.067  18.365  0.00  0.00    +0.000 C 
ENDBRANCH  13  20
ENDBRANCH   1  13
TORSDOF 3
ENDMDL
