MODEL 1
REMARK VINA RESULT:      -7.0      0.000      0.000
REMARK  Name = 
REMARK  8 active torsions:
REMARK  status: ('A' for Active; 'I' for Inactive)
REMARK    1  A    between atoms: C_1  and  O_2
REMARK    2  A    between atoms: O_2  and  C_3
REMARK    3  A    between atoms: C_5  and  C_6
REMARK    4  A    between atoms: N_12  and  C_13
REMARK    5  A    between atoms: C_21  and  O_22
REMARK    6  A    between atoms: O_22  and  C_23
REMARK    7  A    between atoms: C_24  and  O_25
REMARK    8  A    between atoms: O_25  and  C_26
REMARK                            x       y       z     vdW  Elec       q    Type
REMARK                         _______ _______ _______ _____ _____    ______ ____
ROOT
ATOM      1  C   UNL     1       5.230   4.182  15.384  0.00  0.00    +0.000 A 
ATOM      2  C   UNL     1       4.753   3.564  14.290  0.00  0.00    +0.000 A 
ATOM      3  C   UNL     1       5.482   3.603  13.054  0.00  0.00    +0.000 A 
ATOM      4  C   UNL     1       6.640   4.266  12.965  0.00  0.00    +0.000 A 
ATOM      5  C   UNL     1       7.204   4.962  14.152  0.00  0.00    +0.000 A 
ATOM      6  O   UNL     1       8.283   5.526  14.012  0.00  0.00    +0.000 OA
ATOM      7  N   UNL     1       6.454   4.881  15.342  0.00  0.00    +0.000 N 
ENDROOT
BRANCH   7   8
ATOM      8  C   UNL     1       7.002   5.560  16.481  0.00  0.00    +0.000 A 
ATOM      9  C   UNL     1       7.061   6.960  16.497  0.00  0.00    +0.000 A 
ATOM     10  C   UNL     1       7.597   7.633  17.597  0.00  0.00    +0.000 A 
ATOM     11  C   UNL     1       8.083   6.904  18.676  0.00  0.00    +0.000 A 
ATOM     12  F   UNL     1       8.608   7.548  19.727  0.00  0.00    +0.000 F 
ATOM     13  C   UNL     1       8.047   5.516  18.675  0.00  0.00    +0.000 A 
ATOM     14  C   UNL     1       7.512   4.844  17.573  0.00  0.00    +0.000 A 
ENDBRANCH   7   8
BRANCH   1  17
ATOM     15  C   UNL     1       3.666   3.162  18.667  0.00  0.00    +0.000 A 
ATOM     16  C   UNL     1       4.217   3.073  17.378  0.00  0.00    +0.000 A 
ATOM     17  C   UNL     1       4.393   4.215  16.598  0.00  0.00    +0.000 A 
ATOM     18  C   UNL     1       3.857   5.424  17.039  0.00  0.00    +0.000 A 
ATOM     19  C   UNL     1       3.221   5.514  18.282  0.00  0.00    +0.000 A 
ATOM     20  C   UNL     1       3.123   4.383  19.121  0.00  0.00    +0.000 A 
BRANCH  15  22
ATOM     21  C   UNL     1       4.738   1.938  20.387  0.00  0.00    +0.000 C 
ATOM     22  O   UNL     1       3.644   2.054  19.477  0.00  0.00    +0.000 OA
ENDBRANCH  15  22
BRANCH  19  23
ATOM     23  O   UNL     1       2.724   6.773  18.530  0.00  0.00    +0.000 OA
ATOM     24  C   UNL     1       3.253   7.834  17.744  0.00  0.00    +0.000 C 
ENDBRANCH  19  23
BRANCH  20  25
ATOM     25  O   UNL     1       2.467   4.591  20.305  0.00  0.00    +0.000 OA
ATOM     26  C   UNL     1       1.106   4.227  20.451  0.00  0.00    +0.000 C 
ENDBRANCH  20  25
ENDBRANCH   1  17
TORSDOF 5
ENDMDL
MODEL 2
REMARK VINA RESULT:      -6.9      2.576      6.001
REMARK  Name = 
REMARK  8 active torsions:
REMARK  status: ('A' for Active; 'I' for Inactive)
REMARK    1  A    between atoms: C_1  and  O_2
REMARK    2  A    between atoms: O_2  and  C_3
REMARK    3  A    between atoms: C_5  and  C_6
REMARK    4  A    between atoms: N_12  and  C_13
REMARK    5  A    between atoms: C_21  and  O_22
REMARK    6  A    between atoms: O_22  and  C_23
REMARK    7  A    between atoms: C_24  and  O_25
REMARK    8  A    between atoms: O_25  and  C_26
REMARK                            x       y       z     vdW  Elec       q    Type
REMARK                         _______ _______ _______ _____ _____    ______ ____
ROOT
ATOM      1  C   UNL     1       3.650   3.450  18.382  0.00  0.00    +0.000 A 
ATOM      2  C   UNL     1       3.746   2.109  18.369  0.00  0.00    +0.000 A 
ATOM      3  C   UNL     1       2.678   1.297  18.881  0.00  0.00    +0.000 A 
ATOM      4  C   UNL     1       1.578   1.859  19.392  0.00  0.00    +0.000 A 
ATOM      5  C   UNL     1       1.431   3.338  19.423  0.00  0.00    +0.000 A 
ATOM      6  O   UNL     1       0.386   3.789  19.877  0.00  0.00    +0.000 OA
ATOM      7  N   UNL     1       2.503   4.087  18.897  0.00  0.00    +0.000 N 
ENDROOT
BRANCH   7   8
ATOM      8  C   UNL     1       2.356   5.513  18.936  0.00  0.00    +0.000 A 
ATOM      9  C   UNL     1       2.200   6.165  20.168  0.00  0.00    +0.000 A 
ATOM     10  C   UNL     1       2.051   7.552  20.219  0.00  0.00    +0.000 A 
ATOM     11  C   UNL     1       2.047   8.286  19.039  0.00  0.00    +0.000 A 
ATOM     12  F   UNL     1       1.892   9.616  19.086  0.00  0.00    +0.000 F 
ATOM     13  C   UNL     1       2.185   7.659  17.807  0.00  0.00    +0.000 A 
ATOM     14  C   UNL     1       2.333   6.270  17.757  0.00  0.00    +0.000 A 
ENDBRANCH   7   8
BRANCH   1  17
ATOM     15  C   UNL     1       5.980   5.482  16.214  0.00  0.00    +0.000 A 
ATOM     16  C   UNL     1       5.051   4.504  16.605  0.00  0.00    +0.000 A 
ATOM     17  C   UNL     1       4.816   4.244  17.955  0.00  0.00    +0.000 A 
ATOM     18  C   UNL     1       5.639   4.840  18.910  0.00  0.00    +0.000 A 
ATOM     19  C   UNL     1       6.634   5.748  18.533  0.00  0.00    +0.000 A 
ATOM     20  C   UNL     1       6.815   6.091  17.175  0.00  0.00    +0.000 A 
BRANCH  15  22
ATOM     21  C   UNL     1       6.741   4.877  14.054  0.00  0.00    +0.000 C 
ATOM     22  O   UNL     1       6.085   5.832  14.890  0.00  0.00    +0.000 OA
ENDBRANCH  15  22
BRANCH  19  23
ATOM     23  O   UNL     1       7.367   6.202  19.605  0.00  0.00    +0.000 OA
ATOM     24  C   UNL     1       8.374   5.331  20.104  0.00  0.00    +0.000 C 
ENDBRANCH  19  23
BRANCH  20  25
ATOM     25  O   UNL     1       7.828   6.977  16.929  0.00  0.00    +0.000 OA
ATOM     26  C   UNL     1       7.794   8.285  17.474  0.00  0.00    +0.000 C 
ENDBRANCH  20  25
ENDBRANCH   1  17
TORSDOF 5
ENDMDL
MODEL 3
REMARK VINA RESULT:      -6.9      0.530      2.560
REMARK  Name = 
REMARK  8 active torsions:
REMARK  status: ('A' for Active; 'I' for Inactive)
REMARK    1  A    between atoms: C_1  and  O_2
REMARK    2  A    between atoms: O_2  and  C_3
REMARK    3  A    between atoms: C_5  and  C_6
REMARK    4  A    between atoms: N_12  and  C_13
REMARK    5  A    between atoms: C_21  and  O_22
REMARK    6  A    between atoms: O_22  and  C_23
REMARK    7  A    between atoms: C_24  and  O_25
REMARK    8  A    between atoms: O_25  and  C_26
REMARK                            x       y       z     vdW  Elec       q    Type
REMARK                         _______ _______ _______ _____ _____    ______ ____
ROOT
ATOM      1  C   UNL     1       5.285   4.433  15.828  0.00  0.00    +0.000 A 
ATOM      2  C   UNL     1       4.760   3.691  14.838  0.00  0.00    +0.000 A 
ATOM      3  C   UNL     1       5.413   3.610  13.562  0.00  0.00    +0.000 A 
ATOM      4  C   UNL     1       6.547   4.282  13.332  0.00  0.00    +0.000 A 
ATOM      5  C   UNL     1       7.162   5.112  14.402  0.00  0.00    +0.000 A 
ATOM      6  O   UNL     1       8.217   5.678  14.136  0.00  0.00    +0.000 OA
ATOM      7  N   UNL     1       6.486   5.146  15.637  0.00  0.00    +0.000 N 
ENDROOT
BRANCH   7   8
ATOM      8  C   UNL     1       7.083   5.954  16.662  0.00  0.00    +0.000 A 
ATOM      9  C   UNL     1       7.151   7.345  16.502  0.00  0.00    +0.000 A 
ATOM     10  C   UNL     1       7.735   8.141  17.489  0.00  0.00    +0.000 A 
ATOM     11  C   UNL     1       8.259   7.546  18.629  0.00  0.00    +0.000 A 
ATOM     12  F   UNL     1       8.829   8.309  19.572  0.00  0.00    +0.000 F 
ATOM     13  C   UNL     1       8.216   6.168  18.802  0.00  0.00    +0.000 A 
ATOM     14  C   UNL     1       7.633   5.372  17.813  0.00  0.00    +0.000 A 
ENDBRANCH   7   8
BRANCH   1  17
ATOM     15  C   UNL     1       2.956   5.856  18.438  0.00  0.00    +0.000 A 
ATOM     16  C   UNL     1       3.909   5.790  17.407  0.00  0.00    +0.000 A 
ATOM     17  C   UNL     1       4.521   4.580  17.081  0.00  0.00    +0.000 A 
ATOM     18  C   UNL     1       4.310   3.473  17.901  0.00  0.00    +0.000 A 
ATOM     19  C   UNL     1       3.435   3.545  18.990  0.00  0.00    +0.000 A 
ATOM     20  C   UNL     1       2.737   4.739  19.272  0.00  0.00    +0.000 A 
BRANCH  15  22
ATOM     21  C   UNL     1       2.618   8.111  17.799  0.00  0.00    +0.000 C 
ATOM     22  O   UNL     1       2.253   7.018  18.642  0.00  0.00    +0.000 OA
ENDBRANCH  15  22
BRANCH  19  23
ATOM     23  O   UNL     1       3.384   2.369  19.704  0.00  0.00    +0.000 OA
ATOM     24  C   UNL     1       4.588   1.954  20.336  0.00  0.00    +0.000 C 
ENDBRANCH  19  23
BRANCH  20  25
ATOM     25  O   UNL     1       1.921   4.691  20.370  0.00  0.00    +0.000 OA
ATOM     26  C   UNL     1       0.724   3.934  20.350  0.00  0.00    +0.000 C 
ENDBRANCH  20  25
ENDBRANCH   1  17
TORSDOF 5
ENDMDL
MODEL 4
REMARK VINA RESULT:      -6.8      0.446      2.700
REMARK  Name = 
REMARK  8 active torsions:
REMARK  status: ('A' for Active; 'I' for Inactive)
REMARK    1  A    between atoms: C_1  and  O_2
REMARK    2  A    between atoms: O_2  and  C_3
REMARK    3  A    between atoms: C_5  and  C_6
REMARK    4  A    between atoms: N_12  and  C_13
REMARK    5  A    between atoms: C_21  and  O_22
REMARK    6  A    between atoms: O_22  and  C_23
REMARK    7  A    between atoms: C_24  and  O_25
REMARK    8  A    between atoms: O_25  and  C_26
REMARK                            x       y       z     vdW  Elec       q    Type
REMARK                         _______ _______ _______ _____ _____    ______ ____
ROOT
ATOM      1  C   UNL     1       5.296   4.304  15.489  0.00  0.00    +0.000 A 
ATOM      2  C   UNL     1       4.799   3.630  14.437  0.00  0.00    +0.000 A 
ATOM      3  C   UNL     1       5.501   3.614  13.185  0.00  0.00    +0.000 A 
ATOM      4  C   UNL     1       6.652   4.279  13.038  0.00  0.00    +0.000 A 
ATOM      5  C   UNL     1       7.236   5.035  14.178  0.00  0.00    +0.000 A 
ATOM      6  O   UNL     1       8.308   5.599  13.986  0.00  0.00    +0.000 OA
ATOM      7  N   UNL     1       6.513   5.008  15.386  0.00  0.00    +0.000 N 
ENDROOT
BRANCH   7   8
ATOM      8  C   UNL     1       7.080   5.745  16.479  0.00  0.00    +0.000 A 
ATOM      9  C   UNL     1       7.567   5.062  17.602  0.00  0.00    +0.000 A 
ATOM     10  C   UNL     1       8.117   5.767  18.674  0.00  0.00    +0.000 A 
ATOM     11  C   UNL     1       8.169   7.155  18.627  0.00  0.00    +0.000 A 
ATOM     12  F   UNL     1       8.687   7.833  19.661  0.00  0.00    +0.000 F 
ATOM     13  C   UNL     1       7.680   7.852  17.531  0.00  0.00    +0.000 A 
ATOM     14  C   UNL     1       7.129   7.145  16.459  0.00  0.00    +0.000 A 
ENDBRANCH   7   8
BRANCH   1  17
ATOM     15  C   UNL     1       2.866   5.598  18.075  0.00  0.00    +0.000 A 
ATOM     16  C   UNL     1       3.856   5.582  17.078  0.00  0.00    +0.000 A 
ATOM     17  C   UNL     1       4.485   4.391  16.718  0.00  0.00    +0.000 A 
ATOM     18  C   UNL     1       4.249   3.245  17.477  0.00  0.00    +0.000 A 
ATOM     19  C   UNL     1       3.334   3.264  18.535  0.00  0.00    +0.000 A 
ATOM     20  C   UNL     1       2.620   4.441  18.846  0.00  0.00    +0.000 A 
BRANCH  15  22
ATOM     21  C   UNL     1       2.745   7.948  17.813  0.00  0.00    +0.000 C 
ATOM     22  O   UNL     1       2.151   6.746  18.307  0.00  0.00    +0.000 OA
ENDBRANCH  15  22
BRANCH  19  23
ATOM     23  O   UNL     1       3.261   2.056  19.189  0.00  0.00    +0.000 OA
ATOM     24  C   UNL     1       4.316   1.756  20.095  0.00  0.00    +0.000 C 
ENDBRANCH  19  23
BRANCH  20  25
ATOM     25  O   UNL     1       1.766   4.340  19.910  0.00  0.00    +0.000 OA
ATOM     26  C   UNL     1       2.205   4.642  21.223  0.00  0.00    +0.000 C 
ENDBRANCH  20  25
ENDBRANCH   1  17
TORSDOF 5
ENDMDL
MODEL 5
REMARK VINA RESULT:      -6.5      2.747      5.939
REMARK  Name = 
REMARK  8 active torsions:
REMARK  status: ('A' for Active; 'I' for Inactive)
REMARK    1  A    between atoms: C_1  and  O_2
REMARK    2  A    between atoms: O_2  and  C_3
REMARK    3  A    between atoms: C_5  and  C_6
REMARK    4  A    between atoms: N_12  and  C_13
REMARK    5  A    between atoms: C_21  and  O_22
REMARK    6  A    between atoms: O_22  and  C_23
REMARK    7  A    between atoms: C_24  and  O_25
REMARK    8  A    between atoms: O_25  and  C_26
REMARK                            x       y       z     vdW  Elec       q    Type
REMARK                         _______ _______ _______ _____ _____    ______ ____
ROOT
ATOM      1  C   UNL     1       3.583   3.747  18.409  0.00  0.00    +0.000 A 
ATOM      2  C   UNL     1       3.791   2.442  18.162  0.00  0.00    +0.000 A 
ATOM      3  C   UNL     1       2.787   1.469  18.488  0.00  0.00    +0.000 A 
ATOM      4  C   UNL     1       1.635   1.841  19.056  0.00  0.00    +0.000 A 
ATOM      5  C   UNL     1       1.364   3.274  19.344  0.00  0.00    +0.000 A 
ATOM      6  O   UNL     1       0.277   3.552  19.838  0.00  0.00    +0.000 OA
ATOM      7  N   UNL     1       2.378   4.188  18.993  0.00  0.00    +0.000 N 
ENDROOT
BRANCH   7   8
ATOM      8  C   UNL     1       2.111   5.568  19.280  0.00  0.00    +0.000 A 
ATOM      9  C   UNL     1       2.130   6.512  18.243  0.00  0.00    +0.000 A 
ATOM     10  C   UNL     1       1.878   7.859  18.510  0.00  0.00    +0.000 A 
ATOM     11  C   UNL     1       1.618   8.263  19.814  0.00  0.00    +0.000 A 
ATOM     12  F   UNL     1       1.386   9.557  20.072  0.00  0.00    +0.000 F 
ATOM     13  C   UNL     1       1.608   7.347  20.858  0.00  0.00    +0.000 A 
ATOM     14  C   UNL     1       1.862   6.000  20.590  0.00  0.00    +0.000 A 
ENDBRANCH   7   8
BRANCH   1  17
ATOM     15  C   UNL     1       6.687   5.826  18.965  0.00  0.00    +0.000 A 
ATOM     16  C   UNL     1       5.477   5.158  19.218  0.00  0.00    +0.000 A 
ATOM     17  C   UNL     1       4.685   4.696  18.167  0.00  0.00    +0.000 A 
ATOM     18  C   UNL     1       5.017   5.056  16.861  0.00  0.00    +0.000 A 
ATOM     19  C   UNL     1       6.171   5.802  16.596  0.00  0.00    +0.000 A 
ATOM     20  C   UNL     1       7.031   6.192  17.646  0.00  0.00    +0.000 A 
BRANCH  15  22
ATOM     21  C   UNL     1       8.533   5.163  20.291  0.00  0.00    +0.000 C 
ATOM     22  O   UNL     1       7.525   6.135  20.007  0.00  0.00    +0.000 OA
ENDBRANCH  15  22
BRANCH  19  23
ATOM     23  O   UNL     1       6.315   6.093  15.259  0.00  0.00    +0.000 OA
ATOM     24  C   UNL     1       6.697   5.018  14.409  0.00  0.00    +0.000 C 
ENDBRANCH  19  23
BRANCH  20  25
ATOM     25  O   UNL     1       8.119   6.929  17.264  0.00  0.00    +0.000 OA
ATOM     26  C   UNL     1       8.175   8.322  17.520  0.00  0.00    +0.000 C 
ENDBRANCH  20  25
ENDBRANCH   1  17
TORSDOF 5
ENDMDL
MODEL 6
REMARK VINA RESULT:      -6.4      2.863      5.602
REMARK  Name = 
REMARK  8 active torsions:
REMARK  status: ('A' for Active; 'I' for Inactive)
REMARK    1  A    between atoms: C_1  and  O_2
REMARK    2  A    between atoms: O_2  and  C_3
REMARK    3  A    between atoms: C_5  and  C_6
REMARK    4  A    between atoms: N_12  and  C_13
REMARK    5  A    between atoms: C_21  and  O_22
REMARK    6  A    between atoms: O_22  and  C_23
REMARK    7  A    between atoms: C_24  and  O_25
REMARK    8  A    between atoms: O_25  and  C_26
REMARK                            x       y       z     vdW  Elec       q    Type
REMARK                         _______ _______ _______ _____ _____    ______ ____
ROOT
ATOM      1  C   UNL     1       2.033   4.970  19.640  0.00  0.00    +0.000 A 
ATOM      2  C   UNL     1       0.995   4.243  20.090  0.00  0.00    +0.000 A 
ATOM      3  C   UNL     1       0.970   2.819  19.911  0.00  0.00    +0.000 A 
ATOM      4  C   UNL     1       1.971   2.193  19.281  0.00  0.00    +0.000 A 
ATOM      5  C   UNL     1       3.137   2.960  18.770  0.00  0.00    +0.000 A 
ATOM      6  O   UNL     1       4.034   2.323  18.228  0.00  0.00    +0.000 OA
ATOM      7  N   UNL     1       3.116   4.353  18.983  0.00  0.00    +0.000 N 
ENDROOT
BRANCH   7   8
ATOM      8  C   UNL     1       4.243   5.086  18.482  0.00  0.00    +0.000 A 
ATOM      9  C   UNL     1       4.222   5.587  17.173  0.00  0.00    +0.000 A 
ATOM     10  C   UNL     1       5.314   6.298  16.672  0.00  0.00    +0.000 A 
ATOM     11  C   UNL     1       6.431   6.497  17.475  0.00  0.00    +0.000 A 
ATOM     12  F   UNL     1       7.483   7.169  16.990  0.00  0.00    +0.000 F 
ATOM     13  C   UNL     1       6.478   5.996  18.770  0.00  0.00    +0.000 A 
ATOM     14  C   UNL     1       5.385   5.284  19.270  0.00  0.00    +0.000 A 
ENDBRANCH   7   8
BRANCH   1  17
ATOM     15  C   UNL     1       1.813   8.607  18.648  0.00  0.00    +0.000 A 
ATOM     16  C   UNL     1       2.156   7.246  18.621  0.00  0.00    +0.000 A 
ATOM     17  C   UNL     1       1.961   6.439  19.742  0.00  0.00    +0.000 A 
ATOM     18  C   UNL     1       1.587   7.035  20.946  0.00  0.00    +0.000 A 
ATOM     19  C   UNL     1       1.330   8.409  21.016  0.00  0.00    +0.000 A 
ATOM     20  C   UNL     1       1.432   9.217  19.863  0.00  0.00    +0.000 A 
BRANCH  15  22
ATOM     21  C   UNL     1       2.611  10.564  17.578  0.00  0.00    +0.000 C 
ATOM     22  O   UNL     1       1.866   9.347  17.492  0.00  0.00    +0.000 OA
ENDBRANCH  15  22
BRANCH  19  23
ATOM     23  O   UNL     1       1.011   8.822  22.289  0.00  0.00    +0.000 OA
ATOM     24  C   UNL     1      -0.373   8.901  22.605  0.00  0.00    +0.000 C 
ENDBRANCH  19  23
BRANCH  20  25
ATOM     25  O   UNL     1       1.171  10.547  20.058  0.00  0.00    +0.000 OA
ATOM     26  C   UNL     1      -0.120  11.075  19.810  0.00  0.00    +0.000 C 
ENDBRANCH  20  25
ENDBRANCH   1  17
TORSDOF 5
ENDMDL
MODEL 7
REMARK VINA RESULT:      -6.3      1.415      3.036
REMARK  Name = 
REMARK  8 active torsions:
REMARK  status: ('A' for Active; 'I' for Inactive)
REMARK    1  A    between atoms: C_1  and  O_2
REMARK    2  A    between atoms: O_2  and  C_3
REMARK    3  A    between atoms: C_5  and  C_6
REMARK    4  A    between atoms: N_12  and  C_13
REMARK    5  A    between atoms: C_21  and  O_22
REMARK    6  A    between atoms: O_22  and  C_23
REMARK    7  A    between atoms: C_24  and  O_25
REMARK    8  A    between atoms: O_25  and  C_26
REMARK                            x       y       z     vdW  Elec       q    Type
REMARK                         _______ _______ _______ _____ _____    ______ ____
ROOT
ATOM      1  C   UNL     1       4.928   4.990  16.476  0.00  0.00    +0.000 A 
ATOM      2  C   UNL     1       4.298   4.146  15.640  0.00  0.00    +0.000 A 
ATOM      3  C   UNL     1       4.952   3.673  14.453  0.00  0.00    +0.000 A 
ATOM      4  C   UNL     1       6.192   4.074  14.150  0.00  0.00    +0.000 A 
ATOM      5  C   UNL     1       6.924   5.005  15.049  0.00  0.00    +0.000 A 
ATOM      6  O   UNL     1       8.067   5.310  14.730  0.00  0.00    +0.000 OA
ATOM      7  N   UNL     1       6.240   5.428  16.206  0.00  0.00    +0.000 N 
ENDROOT
BRANCH   7   8
ATOM      8  C   UNL     1       6.951   6.331  17.065  0.00  0.00    +0.000 A 
ATOM      9  C   UNL     1       7.005   7.696  16.751  0.00  0.00    +0.000 A 
ATOM     10  C   UNL     1       7.699   8.584  17.575  0.00  0.00    +0.000 A 
ATOM     11  C   UNL     1       8.347   8.105  18.707  0.00  0.00    +0.000 A 
ATOM     12  F   UNL     1       9.021   8.955  19.493  0.00  0.00    +0.000 F 
ATOM     13  C   UNL     1       8.319   6.754  19.030  0.00  0.00    +0.000 A 
ATOM     14  C   UNL     1       7.625   5.866  18.203  0.00  0.00    +0.000 A 
ENDBRANCH   7   8
BRANCH   1  17
ATOM     15  C   UNL     1       2.559   7.138  18.486  0.00  0.00    +0.000 A 
ATOM     16  C   UNL     1       3.496   6.753  17.512  0.00  0.00    +0.000 A 
ATOM     17  C   UNL     1       4.178   5.541  17.619  0.00  0.00    +0.000 A 
ATOM     18  C   UNL     1       4.052   4.796  18.792  0.00  0.00    +0.000 A 
ATOM     19  C   UNL     1       3.193   5.212  19.815  0.00  0.00    +0.000 A 
ATOM     20  C   UNL     1       2.425   6.388  19.674  0.00  0.00    +0.000 A 
BRANCH  15  22
ATOM     21  C   UNL     1       2.481   9.393  17.768  0.00  0.00    +0.000 C 
ATOM     22  O   UNL     1       1.788   8.255  18.285  0.00  0.00    +0.000 OA
ENDBRANCH  15  22
BRANCH  19  23
ATOM     23  O   UNL     1       3.228   4.374  20.905  0.00  0.00    +0.000 OA
ATOM     24  C   UNL     1       2.406   3.214  20.845  0.00  0.00    +0.000 C 
ENDBRANCH  19  23
BRANCH  20  25
ATOM     25  O   UNL     1       1.634   6.699  20.747  0.00  0.00    +0.000 OA
ATOM     26  C   UNL     1       1.501   8.041  21.183  0.00  0.00    +0.000 C 
ENDBRANCH  20  25
ENDBRANCH   1  17
TORSDOF 5
ENDMDL
MODEL 8
REMARK VINA RESULT:      -6.1      8.858     11.161
REMARK  Name = 
REMARK  8 active torsions:
REMARK  status: ('A' for Active; 'I' for Inactive)
REMARK    1  A    between atoms: C_1  and  O_2
REMARK    2  A    between atoms: O_2  and  C_3
REMARK    3  A    between atoms: C_5  and  C_6
REMARK    4  A    between atoms: N_12  and  C_13
REMARK    5  A    between atoms: C_21  and  O_22
REMARK    6  A    between atoms: O_22  and  C_23
REMARK    7  A    between atoms: C_24  and  O_25
REMARK    8  A    between atoms: O_25  and  C_26
REMARK                            x       y       z     vdW  Elec       q    Type
REMARK                         _______ _______ _______ _____ _____    ______ ____
ROOT
ATOM      1  C   UNL     1      -0.689  13.261  19.358  0.00  0.00    +0.000 A 
ATOM      2  C   UNL     1      -0.448  14.396  18.680  0.00  0.00    +0.000 A 
ATOM      3  C   UNL     1       0.785  15.108  18.865  0.00  0.00    +0.000 A 
ATOM      4  C   UNL     1       1.708  14.663  19.725  0.00  0.00    +0.000 A 
ATOM      5  C   UNL     1       1.480  13.410  20.494  0.00  0.00    +0.000 A 
ATOM      6  O   UNL     1       2.378  13.041  21.243  0.00  0.00    +0.000 OA
ATOM      7  N   UNL     1       0.260  12.745  20.264  0.00  0.00    +0.000 N 
ENDROOT
BRANCH   7   8
ATOM      8  C   UNL     1       0.046  11.541  21.014  0.00  0.00    +0.000 A 
ATOM      9  C   UNL     1      -0.512  11.609  22.298  0.00  0.00    +0.000 A 
ATOM     10  C   UNL     1      -0.720  10.444  23.040  0.00  0.00    +0.000 A 
ATOM     11  C   UNL     1      -0.360   9.215  22.502  0.00  0.00    +0.000 A 
ATOM     12  F   UNL     1      -0.549   8.098  23.218  0.00  0.00    +0.000 F 
ATOM     13  C   UNL     1       0.208   9.126  21.238  0.00  0.00    +0.000 A 
ATOM     14  C   UNL     1       0.416  10.292  20.497  0.00  0.00    +0.000 A 
ENDBRANCH   7   8
BRANCH   1  17
ATOM     15  C   UNL     1      -4.364  12.540  19.849  0.00  0.00    +0.000 A 
ATOM     16  C   UNL     1      -3.038  12.910  20.129  0.00  0.00    +0.000 A 
ATOM     17  C   UNL     1      -2.014  12.627  19.225  0.00  0.00    +0.000 A 
ATOM     18  C   UNL     1      -2.290  11.820  18.122  0.00  0.00    +0.000 A 
ATOM     19  C   UNL     1      -3.590  11.363  17.876  0.00  0.00    +0.000 A 
ATOM     20  C   UNL     1      -4.651  11.724  18.734  0.00  0.00    +0.000 A 
BRANCH  15  22
ATOM     21  C   UNL     1      -5.095  12.894  22.074  0.00  0.00    +0.000 C 
ATOM     22  O   UNL     1      -5.377  12.962  20.675  0.00  0.00    +0.000 OA
ENDBRANCH  15  22
BRANCH  19  23
ATOM     23  O   UNL     1      -3.663  10.551  16.768  0.00  0.00    +0.000 OA
ATOM     24  C   UNL     1      -2.784  10.859  15.693  0.00  0.00    +0.000 C 
ENDBRANCH  19  23
BRANCH  20  25
ATOM     25  O   UNL     1      -5.873  11.205  18.399  0.00  0.00    +0.000 OA
ATOM     26  C   UNL     1      -6.834  11.997  17.722  0.00  0.00    +0.000 C 
ENDBRANCH  20  25
ENDBRANCH   1  17
TORSDOF 5
ENDMDL
MODEL 9
REMARK VINA RESULT:      -6.1      3.591      5.956
REMARK  Name = 
REMARK  8 active torsions:
REMARK  status: ('A' for Active; 'I' for Inactive)
REMARK    1  A    between atoms: C_1  and  O_2
REMARK    2  A    between atoms: O_2  and  C_3
REMARK    3  A    between atoms: C_5  and  C_6
REMARK    4  A    between atoms: N_12  and  C_13
REMARK    5  A    between atoms: C_21  and  O_22
REMARK    6  A    between atoms: O_22  and  C_23
REMARK    7  A    between atoms: C_24  and  O_25
REMARK    8  A    between atoms: O_25  and  C_26
REMARK                            x       y       z     vdW  Elec       q    Type
REMARK                         _______ _______ _______ _____ _____    ______ ____
ROOT
ATOM      1  C   UNL     1       3.299   6.830  17.797  0.00  0.00    +0.000 A 
ATOM      2  C   UNL     1       4.065   7.483  16.907  0.00  0.00    +0.000 A 
ATOM      3  C   UNL     1       5.152   6.812  16.251  0.00  0.00    +0.000 A 
ATOM      4  C   UNL     1       5.430   5.533  16.525  0.00  0.00    +0.000 A 
ATOM      5  C   UNL     1       4.605   4.775  17.502  0.00  0.00    +0.000 A 
ATOM      6  O   UNL     1       4.893   3.597  17.685  0.00  0.00    +0.000 OA
ATOM      7  N   UNL     1       3.544   5.477  18.107  0.00  0.00    +0.000 N 
ENDROOT
BRANCH   7   8
ATOM      8  C   UNL     1       2.757   4.740  19.053  0.00  0.00    +0.000 A 
ATOM      9  C   UNL     1       3.188   4.628  20.382  0.00  0.00    +0.000 A 
ATOM     10  C   UNL     1       2.434   3.908  21.311  0.00  0.00    +0.000 A 
ATOM     11  C   UNL     1       1.255   3.293  20.908  0.00  0.00    +0.000 A 
ATOM     12  F   UNL     1       0.536   2.594  21.797  0.00  0.00    +0.000 F 
ATOM     13  C   UNL     1       0.816   3.379  19.593  0.00  0.00    +0.000 A 
ATOM     14  C   UNL     1       1.573   4.098  18.664  0.00  0.00    +0.000 A 
ENDBRANCH   7   8
BRANCH   1  17
ATOM     15  C   UNL     1       1.338   8.340  20.651  0.00  0.00    +0.000 A 
ATOM     16  C   UNL     1       2.107   7.428  19.908  0.00  0.00    +0.000 A 
ATOM     17  C   UNL     1       2.270   7.589  18.532  0.00  0.00    +0.000 A 
ATOM     18  C   UNL     1       1.519   8.561  17.872  0.00  0.00    +0.000 A 
ATOM     19  C   UNL     1       0.675   9.420  18.584  0.00  0.00    +0.000 A 
ATOM     20  C   UNL     1       0.577   9.328  19.989  0.00  0.00    +0.000 A 
BRANCH  15  22
ATOM     21  C   UNL     1       1.876   9.373  22.712  0.00  0.00    +0.000 C 
ATOM     22  O   UNL     1       1.316   8.255  22.021  0.00  0.00    +0.000 OA
ENDBRANCH  15  22
BRANCH  19  23
ATOM     23  O   UNL     1      -0.010  10.286  17.763  0.00  0.00    +0.000 OA
ATOM     24  C   UNL     1      -1.365   9.958  17.479  0.00  0.00    +0.000 C 
ENDBRANCH  19  23
BRANCH  20  25
ATOM     25  O   UNL     1      -0.291  10.211  20.572  0.00  0.00    +0.000 OA
ATOM     26  C   UNL     1       0.063  11.573  20.735  0.00  0.00    +0.000 C 
ENDBRANCH  20  25
ENDBRANCH   1  17
TORSDOF 5
ENDMDL
