MODEL 1
REMARK VINA RESULT:      -8.7      0.000      0.000
REMARK  Name = 
REMARK  7 active torsions:
REMARK  status: ('A' for Active; 'I' for Inactive)
REMARK    1  A    between atoms: O5*_1  and  C5*_2
REMARK    2  A    between atoms: C5*_2  and  C4*_3
REMARK    3  A    between atoms: C1*_5  and  N_6
REMARK    4  A    between atoms: N_11  and  C_12
REMARK    5  A    between atoms: C_12  and  C_13
REMARK    6  A    between atoms: C2*_28  and  O2*_29
REMARK    7  A    between atoms: C3*_30  and  O3*_31
REMARK                            x       y       z     vdW  Elec       q    Type
REMARK                         _______ _______ _______ _____ _____    ______ ____
ROOT
ATOM      1  N   UNL     1      -1.342  11.607  21.700  0.00  0.00    +0.000 N 
ATOM      2  C   UNL     1      -0.783  10.796  22.681  0.00  0.00    +0.000 A 
ATOM      3  N   UNL     1       0.021   9.883  22.175  0.00  0.00    +0.000 NA
ATOM      4  C   UNL     1      -0.043  10.015  20.791  0.00  0.00    +0.000 A 
ATOM      5  C   UNL     1       0.637   9.359  19.645  0.00  0.00    +0.000 A 
ATOM      6  N   UNL     1       1.635   8.362  19.716  0.00  0.00    +0.000 N 
ATOM      7  N   UNL     1       0.242   9.775  18.435  0.00  0.00    +0.000 NA
ATOM      8  C   UNL     1      -0.715  10.716  18.315  0.00  0.00    +0.000 A 
ATOM      9  N   UNL     1      -1.353  11.426  19.278  0.00  0.00    +0.000 NA
ATOM     10  C   UNL     1      -0.958  11.045  20.505  0.00  0.00    +0.000 A 
ATOM     11  H   UNL     1       1.521   7.745  20.511  0.00  0.00    +0.000 HD
ENDROOT
BRANCH   1  14
ATOM     12  C4* UNL     1      -3.503  13.548  23.733  0.00  0.00    +0.000 C 
ATOM     13  O4* UNL     1      -2.165  13.103  23.403  0.00  0.00    +0.000 OA
ATOM     14  C1* UNL     1      -2.081  12.858  21.977  0.00  0.00    +0.000 C 
ATOM     15  C2* UNL     1      -3.507  12.984  21.397  0.00  0.00    +0.000 C 
ATOM     16  C3* UNL     1      -4.231  13.853  22.422  0.00  0.00    +0.000 C 
BRANCH  15  17
ATOM     17  O2* UNL     1      -3.521  13.622  20.115  0.00  0.00    +0.000 OA
ATOM     18  H2* UNL     1      -4.139  14.376  20.205  0.00  0.00    +0.000 HD
ENDBRANCH  15  17
BRANCH  16  19
ATOM     19  O3* UNL     1      -4.079  15.225  21.990  0.00  0.00    +0.000 OA
ATOM     20  H3* UNL     1      -3.135  15.425  21.860  0.00  0.00    +0.000 HD
ENDBRANCH  16  19
BRANCH  12  21
ATOM     21  C5* UNL     1      -4.174  12.462  24.577  0.00  0.00    +0.000 C 
BRANCH  21  22
ATOM     22  O5* UNL     1      -5.548  12.322  24.257  0.00  0.00    +0.000 OA
ATOM     23  H5* UNL     1      -5.639  11.491  23.752  0.00  0.00    +0.000 HD
ENDBRANCH  21  22
ENDBRANCH  12  21
ENDBRANCH   1  14
BRANCH   6  24
ATOM     24  C   UNL     1       2.558   7.874  18.570  0.00  0.00    +0.000 C 
BRANCH  24  25
ATOM     25  C   UNL     1       2.597   6.273  18.410  0.00  0.00    +0.000 C 
ATOM     26  C   UNL     1       4.117   5.979  18.361  0.00  0.00    +0.000 C 
ATOM     27  C   UNL     1       4.472   5.441  16.992  0.00  0.00    +0.000 C 
ATOM     28  C   UNL     1       4.201   3.932  16.963  0.00  0.00    +0.000 C 
ATOM     29  C   UNL     1       2.702   3.664  16.945  0.00  0.00    +0.000 C 
ATOM     30  C   UNL     1       2.160   3.705  18.366  0.00  0.00    +0.000 A 
ATOM     31  C   UNL     1       1.942   2.445  18.934  0.00  0.00    +0.000 A 
ATOM     32  C   UNL     1       1.511   2.319  20.238  0.00  0.00    +0.000 A 
ATOM     33  C   UNL     1       1.258   3.487  20.949  0.00  0.00    +0.000 A 
ATOM     34  C   UNL     1       1.497   4.786  20.400  0.00  0.00    +0.000 A 
ATOM     35  C   UNL     1       2.004   4.953  19.089  0.00  0.00    +0.000 A 
ENDBRANCH  24  25
ENDBRANCH   6  24
TORSDOF 7
ENDMDL
MODEL 2
REMARK VINA RESULT:      -8.7      1.564      3.242
REMARK  Name = 
REMARK  7 active torsions:
REMARK  status: ('A' for Active; 'I' for Inactive)
REMARK    1  A    between atoms: O5*_1  and  C5*_2
REMARK    2  A    between atoms: C5*_2  and  C4*_3
REMARK    3  A    between atoms: C1*_5  and  N_6
REMARK    4  A    between atoms: N_11  and  C_12
REMARK    5  A    between atoms: C_12  and  C_13
REMARK    6  A    between atoms: C2*_28  and  O2*_29
REMARK    7  A    between atoms: C3*_30  and  O3*_31
REMARK                            x       y       z     vdW  Elec       q    Type
REMARK                         _______ _______ _______ _____ _____    ______ ____
ROOT
ATOM      1  N   UNL     1      -0.486  11.881  19.725  0.00  0.00    +0.000 N 
ATOM      2  C   UNL     1       0.336  11.825  18.605  0.00  0.00    +0.000 A 
ATOM      3  N   UNL     1       1.061  10.724  18.572  0.00  0.00    +0.000 NA
ATOM      4  C   UNL     1       0.791  10.032  19.749  0.00  0.00    +0.000 A 
ATOM      5  C   UNL     1       1.212   8.724  20.313  0.00  0.00    +0.000 A 
ATOM      6  N   UNL     1       2.054   7.773  19.695  0.00  0.00    +0.000 N 
ATOM      7  N   UNL     1       0.732   8.448  21.532  0.00  0.00    +0.000 NA
ATOM      8  C   UNL     1      -0.066   9.330  22.167  0.00  0.00    +0.000 A 
ATOM      9  N   UNL     1      -0.566  10.511  21.729  0.00  0.00    +0.000 NA
ATOM     10  C   UNL     1      -0.118  10.804  20.497  0.00  0.00    +0.000 A 
ATOM     11  H   UNL     1       2.763   8.194  19.107  0.00  0.00    +0.000 HD
ENDROOT
BRANCH   1  14
ATOM     12  C4* UNL     1      -2.644  13.766  21.812  0.00  0.00    +0.000 C 
ATOM     13  O4* UNL     1      -1.379  13.633  21.119  0.00  0.00    +0.000 OA
ATOM     14  C1* UNL     1      -1.577  12.863  19.908  0.00  0.00    +0.000 C 
ATOM     15  C2* UNL     1      -3.023  12.321  19.930  0.00  0.00    +0.000 C 
ATOM     16  C3* UNL     1      -3.748  13.283  20.868  0.00  0.00    +0.000 C 
BRANCH  15  17
ATOM     17  O2* UNL     1      -3.635  12.344  18.635  0.00  0.00    +0.000 OA
ATOM     18  H2* UNL     1      -2.895  12.402  17.998  0.00  0.00    +0.000 HD
ENDBRANCH  15  17
BRANCH  16  19
ATOM     19  O3* UNL     1      -4.298  14.337  20.044  0.00  0.00    +0.000 OA
ATOM     20  H3* UNL     1      -3.575  14.867  19.666  0.00  0.00    +0.000 HD
ENDBRANCH  16  19
BRANCH  12  21
ATOM     21  C5* UNL     1      -2.558  12.978  23.121  0.00  0.00    +0.000 C 
BRANCH  21  22
ATOM     22  O5* UNL     1      -1.215  12.718  23.490  0.00  0.00    +0.000 OA
ATOM     23  H5* UNL     1      -1.212  12.546  24.451  0.00  0.00    +0.000 HD
ENDBRANCH  21  22
ENDBRANCH  12  21
ENDBRANCH   1  14
BRANCH   6  24
ATOM     24  C   UNL     1       2.275   6.298  20.120  0.00  0.00    +0.000 C 
BRANCH  24  25
ATOM     25  C   UNL     1       2.917   5.382  18.963  0.00  0.00    +0.000 C 
ATOM     26  C   UNL     1       1.663   4.825  18.243  0.00  0.00    +0.000 C 
ATOM     27  C   UNL     1       1.601   3.328  18.447  0.00  0.00    +0.000 C 
ATOM     28  C   UNL     1       2.482   2.643  17.396  0.00  0.00    +0.000 C 
ATOM     29  C   UNL     1       3.954   2.868  17.713  0.00  0.00    +0.000 C 
ATOM     30  C   UNL     1       4.395   4.215  17.163  0.00  0.00    +0.000 A 
ATOM     31  C   UNL     1       5.109   4.139  15.962  0.00  0.00    +0.000 A 
ATOM     32  C   UNL     1       5.521   5.281  15.307  0.00  0.00    +0.000 A 
ATOM     33  C   UNL     1       5.242   6.504  15.908  0.00  0.00    +0.000 A 
ATOM     34  C   UNL     1       4.492   6.610  17.121  0.00  0.00    +0.000 A 
ATOM     35  C   UNL     1       3.994   5.463  17.784  0.00  0.00    +0.000 A 
ENDBRANCH  24  25
ENDBRANCH   6  24
TORSDOF 7
ENDMDL
MODEL 3
REMARK VINA RESULT:      -8.3      1.057      1.693
REMARK  Name = 
REMARK  7 active torsions:
REMARK  status: ('A' for Active; 'I' for Inactive)
REMARK    1  A    between atoms: O5*_1  and  C5*_2
REMARK    2  A    between atoms: C5*_2  and  C4*_3
REMARK    3  A    between atoms: C1*_5  and  N_6
REMARK    4  A    between atoms: N_11  and  C_12
REMARK    5  A    between atoms: C_12  and  C_13
REMARK    6  A    between atoms: C2*_28  and  O2*_29
REMARK    7  A    between atoms: C3*_30  and  O3*_31
REMARK                            x       y       z     vdW  Elec       q    Type
REMARK                         _______ _______ _______ _____ _____    ______ ____
ROOT
ATOM      1  N   UNL     1      -0.959  11.117  22.433  0.00  0.00    +0.000 N 
ATOM      2  C   UNL     1      -0.418  10.130  23.250  0.00  0.00    +0.000 A 
ATOM      3  N   UNL     1       0.309   9.265  22.571  0.00  0.00    +0.000 NA
ATOM      4  C   UNL     1       0.203   9.617  21.229  0.00  0.00    +0.000 A 
ATOM      5  C   UNL     1       0.800   9.114  19.965  0.00  0.00    +0.000 A 
ATOM      6  N   UNL     1       1.734   8.063  19.835  0.00  0.00    +0.000 N 
ATOM      7  N   UNL     1       0.388   9.737  18.854  0.00  0.00    +0.000 NA
ATOM      8  C   UNL     1      -0.512  10.738  18.926  0.00  0.00    +0.000 A 
ATOM      9  N   UNL     1      -1.069  11.321  20.016  0.00  0.00    +0.000 NA
ATOM     10  C   UNL     1      -0.655  10.730  21.149  0.00  0.00    +0.000 A 
ATOM     11  H   UNL     1       1.611   7.336  20.529  0.00  0.00    +0.000 HD
ENDROOT
BRANCH   1  14
ATOM     12  C4* UNL     1      -3.575  13.508  22.329  0.00  0.00    +0.000 C 
ATOM     13  O4* UNL     1      -3.050  12.252  22.824  0.00  0.00    +0.000 OA
ATOM     14  C1* UNL     1      -1.608  12.348  22.935  0.00  0.00    +0.000 C 
ATOM     15  C2* UNL     1      -1.178  13.687  22.298  0.00  0.00    +0.000 C 
ATOM     16  C3* UNL     1      -2.444  14.538  22.374  0.00  0.00    +0.000 C 
BRANCH  15  17
ATOM     17  O2* UNL     1      -0.117  14.321  23.020  0.00  0.00    +0.000 OA
ATOM     18  H2* UNL     1       0.138  15.098  22.481  0.00  0.00    +0.000 HD
ENDBRANCH  15  17
BRANCH  16  19
ATOM     19  O3* UNL     1      -2.384  15.266  23.622  0.00  0.00    +0.000 OA
ATOM     20  H3* UNL     1      -1.719  14.861  24.206  0.00  0.00    +0.000 HD
ENDBRANCH  16  19
BRANCH  12  21
ATOM     21  C5* UNL     1      -4.141  13.270  20.927  0.00  0.00    +0.000 C 
BRANCH  21  22
ATOM     22  O5* UNL     1      -3.140  13.381  19.930  0.00  0.00    +0.000 OA
ATOM     23  H5* UNL     1      -2.453  12.721  20.141  0.00  0.00    +0.000 HD
ENDBRANCH  21  22
ENDBRANCH  12  21
ENDBRANCH   1  14
BRANCH   6  24
ATOM     24  C   UNL     1       2.583   7.711  18.586  0.00  0.00    +0.000 C 
BRANCH  24  25
ATOM     25  C   UNL     1       2.709   6.130  18.316  0.00  0.00    +0.000 C 
ATOM     26  C   UNL     1       4.228   5.881  18.494  0.00  0.00    +0.000 C 
ATOM     27  C   UNL     1       4.818   5.462  17.165  0.00  0.00    +0.000 C 
ATOM     28  C   UNL     1       4.614   3.954  16.980  0.00  0.00    +0.000 C 
ATOM     29  C   UNL     1       3.149   3.649  16.700  0.00  0.00    +0.000 C 
ATOM     30  C   UNL     1       2.385   3.563  18.012  0.00  0.00    +0.000 A 
ATOM     31  C   UNL     1       2.128   2.256  18.442  0.00  0.00    +0.000 A 
ATOM     32  C   UNL     1       1.499   2.016  19.646  0.00  0.00    +0.000 A 
ATOM     33  C   UNL     1       1.091   3.117  20.391  0.00  0.00    +0.000 A 
ATOM     34  C   UNL     1       1.364   4.461  19.986  0.00  0.00    +0.000 A 
ATOM     35  C   UNL     1       2.067   4.744  18.791  0.00  0.00    +0.000 A 
ENDBRANCH  24  25
ENDBRANCH   6  24
TORSDOF 7
ENDMDL
MODEL 4
REMARK VINA RESULT:      -8.3      7.661     11.126
REMARK  Name = 
REMARK  7 active torsions:
REMARK  status: ('A' for Active; 'I' for Inactive)
REMARK    1  A    between atoms: O5*_1  and  C5*_2
REMARK    2  A    between atoms: C5*_2  and  C4*_3
REMARK    3  A    between atoms: C1*_5  and  N_6
REMARK    4  A    between atoms: N_11  and  C_12
REMARK    5  A    between atoms: C_12  and  C_13
REMARK    6  A    between atoms: C2*_28  and  O2*_29
REMARK    7  A    between atoms: C3*_30  and  O3*_31
REMARK                            x       y       z     vdW  Elec       q    Type
REMARK                         _______ _______ _______ _____ _____    ______ ____
ROOT
ATOM      1  N   UNL     1       4.823   4.994  17.802  0.00  0.00    +0.000 N 
ATOM      2  C   UNL     1       4.162   6.035  17.159  0.00  0.00    +0.000 A 
ATOM      3  N   UNL     1       4.906   7.119  17.070  0.00  0.00    +0.000 NA
ATOM      4  C   UNL     1       6.093   6.847  17.742  0.00  0.00    +0.000 A 
ATOM      5  C   UNL     1       7.359   7.590  17.972  0.00  0.00    +0.000 A 
ATOM      6  N   UNL     1       7.684   8.872  17.478  0.00  0.00    +0.000 N 
ATOM      7  N   UNL     1       8.262   6.955  18.730  0.00  0.00    +0.000 NA
ATOM      8  C   UNL     1       7.993   5.734  19.234  0.00  0.00    +0.000 A 
ATOM      9  N   UNL     1       6.913   4.939  19.039  0.00  0.00    +0.000 NA
ATOM     10  C   UNL     1       5.998   5.542  18.262  0.00  0.00    +0.000 A 
ATOM     11  H   UNL     1       6.879   9.482  17.400  0.00  0.00    +0.000 HD
ENDROOT
BRANCH   1  14
ATOM     12  C4* UNL     1       2.191   2.620  17.853  0.00  0.00    +0.000 C 
ATOM     13  O4* UNL     1       3.098   3.462  17.102  0.00  0.00    +0.000 OA
ATOM     14  C1* UNL     1       4.342   3.595  17.832  0.00  0.00    +0.000 C 
ATOM     15  C2* UNL     1       4.143   2.943  19.218  0.00  0.00    +0.000 C 
ATOM     16  C3* UNL     1       2.987   1.973  18.989  0.00  0.00    +0.000 C 
BRANCH  15  17
ATOM     17  O2* UNL     1       5.303   2.229  19.659  0.00  0.00    +0.000 OA
ATOM     18  H2* UNL     1       5.066   1.859  20.533  0.00  0.00    +0.000 HD
ENDBRANCH  15  17
BRANCH  16  19
ATOM     19  O3* UNL     1       3.573   0.702  18.624  0.00  0.00    +0.000 OA
ATOM     20  H3* UNL     1       3.093   0.326  17.866  0.00  0.00    +0.000 HD
ENDBRANCH  16  19
BRANCH  12  21
ATOM     21  C5* UNL     1       1.020   3.482  18.329  0.00  0.00    +0.000 C 
BRANCH  21  22
ATOM     22  O5* UNL     1       0.187   2.783  19.238  0.00  0.00    +0.000 OA
ATOM     23  H5* UNL     1       0.628   1.934  19.433  0.00  0.00    +0.000 HD
ENDBRANCH  21  22
ENDBRANCH  12  21
ENDBRANCH   1  14
BRANCH   6  24
ATOM     24  C   UNL     1       9.082   9.543  17.455  0.00  0.00    +0.000 C 
BRANCH  24  25
ATOM     25  C   UNL     1       9.136  10.951  18.231  0.00  0.00    +0.000 C 
ATOM     26  C   UNL     1      10.599  11.404  18.000  0.00  0.00    +0.000 C 
ATOM     27  C   UNL     1      11.326  11.423  19.327  0.00  0.00    +0.000 C 
ATOM     28  C   UNL     1      11.047  12.756  20.030  0.00  0.00    +0.000 C 
ATOM     29  C   UNL     1       9.613  12.795  20.540  0.00  0.00    +0.000 C 
ATOM     30  C   UNL     1       8.683  13.226  19.417  0.00  0.00    +0.000 A 
ATOM     31  C   UNL     1       8.286  14.567  19.482  0.00  0.00    +0.000 A 
ATOM     32  C   UNL     1       7.494  15.121  18.499  0.00  0.00    +0.000 A 
ATOM     33  C   UNL     1       7.067  14.290  17.469  0.00  0.00    +0.000 A 
ATOM     34  C   UNL     1       7.479  12.924  17.366  0.00  0.00    +0.000 A 
ATOM     35  C   UNL     1       8.347  12.340  18.319  0.00  0.00    +0.000 A 
ENDBRANCH  24  25
ENDBRANCH   6  24
TORSDOF 7
ENDMDL
MODEL 5
REMARK VINA RESULT:      -8.2      1.913      3.890
REMARK  Name = 
REMARK  7 active torsions:
REMARK  status: ('A' for Active; 'I' for Inactive)
REMARK    1  A    between atoms: O5*_1  and  C5*_2
REMARK    2  A    between atoms: C5*_2  and  C4*_3
REMARK    3  A    between atoms: C1*_5  and  N_6
REMARK    4  A    between atoms: N_11  and  C_12
REMARK    5  A    between atoms: C_12  and  C_13
REMARK    6  A    between atoms: C2*_28  and  O2*_29
REMARK    7  A    between atoms: C3*_30  and  O3*_31
REMARK                            x       y       z     vdW  Elec       q    Type
REMARK                         _______ _______ _______ _____ _____    ______ ____
ROOT
ATOM      1  N   UNL     1      -0.330  11.796  20.493  0.00  0.00    +0.000 N 
ATOM      2  C   UNL     1       0.012  11.655  19.153  0.00  0.00    +0.000 A 
ATOM      3  N   UNL     1       0.635  10.517  18.915  0.00  0.00    +0.000 NA
ATOM      4  C   UNL     1       0.799   9.885  20.143  0.00  0.00    +0.000 A 
ATOM      5  C   UNL     1       1.355   8.579  20.582  0.00  0.00    +0.000 A 
ATOM      6  N   UNL     1       1.873   7.563  19.749  0.00  0.00    +0.000 N 
ATOM      7  N   UNL     1       1.355   8.375  21.905  0.00  0.00    +0.000 NA
ATOM      8  C   UNL     1       0.881   9.321  22.741  0.00  0.00    +0.000 A 
ATOM      9  N   UNL     1       0.295  10.509  22.456  0.00  0.00    +0.000 NA
ATOM     10  C   UNL     1       0.261  10.731  21.132  0.00  0.00    +0.000 A 
ATOM     11  H   UNL     1       2.326   7.924  18.918  0.00  0.00    +0.000 HD
ENDROOT
BRANCH   1  14
ATOM     12  C4* UNL     1      -1.648  15.086  20.409  0.00  0.00    +0.000 C 
ATOM     13  O4* UNL     1      -1.686  13.714  19.947  0.00  0.00    +0.000 OA
ATOM     14  C1* UNL     1      -1.241  12.839  21.014  0.00  0.00    +0.000 C 
ATOM     15  C2* UNL     1      -0.718  13.730  22.162  0.00  0.00    +0.000 C 
ATOM     16  C3* UNL     1      -1.420  15.064  21.922  0.00  0.00    +0.000 C 
BRANCH  15  17
ATOM     17  O2* UNL     1      -1.065  13.218  23.453  0.00  0.00    +0.000 OA
ATOM     18  H2* UNL     1      -1.344  12.292  23.300  0.00  0.00    +0.000 HD
ENDBRANCH  15  17
BRANCH  16  19
ATOM     19  O3* UNL     1      -2.648  15.034  22.685  0.00  0.00    +0.000 OA
ATOM     20  H3* UNL     1      -3.359  15.464  22.178  0.00  0.00    +0.000 HD
ENDBRANCH  16  19
BRANCH  12  21
ATOM     21  C5* UNL     1      -0.559  15.824  19.628  0.00  0.00    +0.000 C 
BRANCH  21  22
ATOM     22  O5* UNL     1      -1.107  16.655  18.618  0.00  0.00    +0.000 OA
ATOM     23  H5* UNL     1      -2.025  16.855  18.882  0.00  0.00    +0.000 HD
ENDBRANCH  21  22
ENDBRANCH  12  21
ENDBRANCH   1  14
BRANCH   6  24
ATOM     24  C   UNL     1       2.186   6.096  20.142  0.00  0.00    +0.000 C 
BRANCH  24  25
ATOM     25  C   UNL     1       2.876   5.245  18.963  0.00  0.00    +0.000 C 
ATOM     26  C   UNL     1       1.652   4.651  18.220  0.00  0.00    +0.000 C 
ATOM     27  C   UNL     1       1.659   3.147  18.381  0.00  0.00    +0.000 C 
ATOM     28  C   UNL     1       2.576   2.535  17.315  0.00  0.00    +0.000 C 
ATOM     29  C   UNL     1       4.035   2.819  17.647  0.00  0.00    +0.000 C 
ATOM     30  C   UNL     1       4.414   4.201  17.138  0.00  0.00    +0.000 A 
ATOM     31  C   UNL     1       5.136   4.193  15.939  0.00  0.00    +0.000 A 
ATOM     32  C   UNL     1       5.497   5.372  15.321  0.00  0.00    +0.000 A 
ATOM     33  C   UNL     1       5.159   6.562  15.954  0.00  0.00    +0.000 A 
ATOM     34  C   UNL     1       4.399   6.598  17.165  0.00  0.00    +0.000 A 
ATOM     35  C   UNL     1       3.953   5.410  17.792  0.00  0.00    +0.000 A 
ENDBRANCH  24  25
ENDBRANCH   6  24
TORSDOF 7
ENDMDL
MODEL 6
REMARK VINA RESULT:      -8.2      1.197      1.238
REMARK  Name = 
REMARK  7 active torsions:
REMARK  status: ('A' for Active; 'I' for Inactive)
REMARK    1  A    between atoms: O5*_1  and  C5*_2
REMARK    2  A    between atoms: C5*_2  and  C4*_3
REMARK    3  A    between atoms: C1*_5  and  N_6
REMARK    4  A    between atoms: N_11  and  C_12
REMARK    5  A    between atoms: C_12  and  C_13
REMARK    6  A    between atoms: C2*_28  and  O2*_29
REMARK    7  A    between atoms: C3*_30  and  O3*_31
REMARK                            x       y       z     vdW  Elec       q    Type
REMARK                         _______ _______ _______ _____ _____    ______ ____
ROOT
ATOM      1  N   UNL     1      -0.600  11.894  21.906  0.00  0.00    +0.000 N 
ATOM      2  C   UNL     1      -0.786  10.681  22.559  0.00  0.00    +0.000 A 
ATOM      3  N   UNL     1      -0.234   9.675  21.911  0.00  0.00    +0.000 NA
ATOM      4  C   UNL     1       0.285  10.196  20.730  0.00  0.00    +0.000 A 
ATOM      5  C   UNL     1       1.068   9.640  19.596  0.00  0.00    +0.000 A 
ATOM      6  N   UNL     1       1.535   8.314  19.466  0.00  0.00    +0.000 N 
ATOM      7  N   UNL     1       1.339  10.507  18.612  0.00  0.00    +0.000 NA
ATOM      8  C   UNL     1       0.904  11.781  18.686  0.00  0.00    +0.000 A 
ATOM      9  N   UNL     1       0.248  12.412  19.690  0.00  0.00    +0.000 NA
ATOM     10  C   UNL     1      -0.019  11.570  20.703  0.00  0.00    +0.000 A 
ATOM     11  H   UNL     1       0.915   7.632  19.888  0.00  0.00    +0.000 HD
ENDROOT
BRANCH   1  14
ATOM     12  C4* UNL     1      -2.669  14.047  23.817  0.00  0.00    +0.000 C 
ATOM     13  O4* UNL     1      -1.604  13.067  23.758  0.00  0.00    +0.000 OA
ATOM     14  C1* UNL     1      -0.889  13.215  22.506  0.00  0.00    +0.000 C 
ATOM     15  C2* UNL     1      -1.665  14.233  21.642  0.00  0.00    +0.000 C 
ATOM     16  C3* UNL     1      -2.460  15.036  22.668  0.00  0.00    +0.000 C 
BRANCH  15  17
ATOM     17  O2* UNL     1      -0.795  15.101  20.906  0.00  0.00    +0.000 OA
ATOM     18  H2* UNL     1      -0.891  14.832  19.969  0.00  0.00    +0.000 HD
ENDBRANCH  15  17
BRANCH  16  19
ATOM     19  O3* UNL     1      -1.643  16.172  23.034  0.00  0.00    +0.000 OA
ATOM     20  H3* UNL     1      -0.705  15.912  23.041  0.00  0.00    +0.000 HD
ENDBRANCH  16  19
BRANCH  12  21
ATOM     21  C5* UNL     1      -4.006  13.304  23.760  0.00  0.00    +0.000 C 
BRANCH  21  22
ATOM     22  O5* UNL     1      -3.864  11.938  24.109  0.00  0.00    +0.000 OA
ATOM     23  H5* UNL     1      -4.136  11.853  25.043  0.00  0.00    +0.000 HD
ENDBRANCH  21  22
ENDBRANCH  12  21
ENDBRANCH   1  14
BRANCH   6  24
ATOM     24  C   UNL     1       2.585   7.783  18.455  0.00  0.00    +0.000 C 
BRANCH  24  25
ATOM     25  C   UNL     1       2.633   6.178  18.359  0.00  0.00    +0.000 C 
ATOM     26  C   UNL     1       4.156   5.891  18.325  0.00  0.00    +0.000 C 
ATOM     27  C   UNL     1       4.517   5.301  16.980  0.00  0.00    +0.000 C 
ATOM     28  C   UNL     1       4.255   3.791  17.010  0.00  0.00    +0.000 C 
ATOM     29  C   UNL     1       2.758   3.513  17.000  0.00  0.00    +0.000 C 
ATOM     30  C   UNL     1       2.212   3.607  18.416  0.00  0.00    +0.000 A 
ATOM     31  C   UNL     1       2.000   2.369  19.033  0.00  0.00    +0.000 A 
ATOM     32  C   UNL     1       1.567   2.293  20.340  0.00  0.00    +0.000 A 
ATOM     33  C   UNL     1       1.306   3.486  21.004  0.00  0.00    +0.000 A 
ATOM     34  C   UNL     1       1.538   4.764  20.405  0.00  0.00    +0.000 A 
ATOM     35  C   UNL     1       2.047   4.881  19.089  0.00  0.00    +0.000 A 
ENDBRANCH  24  25
ENDBRANCH   6  24
TORSDOF 7
ENDMDL
MODEL 7
REMARK VINA RESULT:      -8.2      4.700      9.192
REMARK  Name = 
REMARK  7 active torsions:
REMARK  status: ('A' for Active; 'I' for Inactive)
REMARK    1  A    between atoms: O5*_1  and  C5*_2
REMARK    2  A    between atoms: C5*_2  and  C4*_3
REMARK    3  A    between atoms: C1*_5  and  N_6
REMARK    4  A    between atoms: N_11  and  C_12
REMARK    5  A    between atoms: C_12  and  C_13
REMARK    6  A    between atoms: C2*_28  and  O2*_29
REMARK    7  A    between atoms: C3*_30  and  O3*_31
REMARK                            x       y       z     vdW  Elec       q    Type
REMARK                         _______ _______ _______ _____ _____    ______ ____
ROOT
ATOM      1  N   UNL     1       2.349   6.675  19.566  0.00  0.00    +0.000 N 
ATOM      2  C   UNL     1       1.679   6.686  20.784  0.00  0.00    +0.000 A 
ATOM      3  N   UNL     1       1.009   7.805  20.975  0.00  0.00    +0.000 NA
ATOM      4  C   UNL     1       1.288   8.629  19.889  0.00  0.00    +0.000 A 
ATOM      5  C   UNL     1       0.831   9.973  19.451  0.00  0.00    +0.000 A 
ATOM      6  N   UNL     1      -0.118  10.793  20.100  0.00  0.00    +0.000 N 
ATOM      7  N   UNL     1       1.396  10.427  18.325  0.00  0.00    +0.000 NA
ATOM      8  C   UNL     1       2.315   9.686  17.675  0.00  0.00    +0.000 A 
ATOM      9  N   UNL     1       2.756   8.432  17.940  0.00  0.00    +0.000 NA
ATOM     10  C   UNL     1       2.189   7.941  19.054  0.00  0.00    +0.000 A 
ATOM     11  H   UNL     1      -0.105  10.691  21.108  0.00  0.00    +0.000 HD
ENDROOT
BRANCH   1  14
ATOM     12  C4* UNL     1       2.553   3.158  19.169  0.00  0.00    +0.000 C 
ATOM     13  O4* UNL     1       1.993   4.430  18.762  0.00  0.00    +0.000 OA
ATOM     14  C1* UNL     1       2.976   5.473  18.973  0.00  0.00    +0.000 C 
ATOM     15  C2* UNL     1       4.168   4.847  19.729  0.00  0.00    +0.000 C 
ATOM     16  C3* UNL     1       4.052   3.360  19.404  0.00  0.00    +0.000 C 
BRANCH  15  17
ATOM     17  O2* UNL     1       5.430   5.352  19.276  0.00  0.00    +0.000 OA
ATOM     18  H2* UNL     1       5.797   4.653  18.697  0.00  0.00    +0.000 HD
ENDBRANCH  15  17
BRANCH  16  19
ATOM     19  O3* UNL     1       4.852   3.127  18.222  0.00  0.00    +0.000 OA
ATOM     20  H3* UNL     1       5.654   2.630  18.462  0.00  0.00    +0.000 HD
ENDBRANCH  16  19
BRANCH  12  21
ATOM     21  C5* UNL     1       1.792   2.673  20.404  0.00  0.00    +0.000 C 
BRANCH  21  22
ATOM     22  O5* UNL     1       0.494   3.238  20.477  0.00  0.00    +0.000 OA
ATOM     23  H5* UNL     1       0.532   4.099  20.019  0.00  0.00    +0.000 HD
ENDBRANCH  21  22
ENDBRANCH  12  21
ENDBRANCH   1  14
BRANCH   6  24
ATOM     24  C   UNL     1      -0.822  12.049  19.527  0.00  0.00    +0.000 C 
BRANCH  24  25
ATOM     25  C   UNL     1      -2.181  11.721  18.731  0.00  0.00    +0.000 C 
ATOM     26  C   UNL     1      -2.079  10.190  18.514  0.00  0.00    +0.000 C 
ATOM     27  C   UNL     1      -1.949   9.908  17.033  0.00  0.00    +0.000 C 
ATOM     28  C   UNL     1      -3.347   9.882  16.405  0.00  0.00    +0.000 C 
ATOM     29  C   UNL     1      -3.921  11.291  16.332  0.00  0.00    +0.000 C 
ATOM     30  C   UNL     1      -4.558  11.652  17.665  0.00  0.00    +0.000 A 
ATOM     31  C   UNL     1      -5.953  11.549  17.681  0.00  0.00    +0.000 A 
ATOM     32  C   UNL     1      -6.669  11.783  18.837  0.00  0.00    +0.000 A 
ATOM     33  C   UNL     1      -5.959  12.168  19.968  0.00  0.00    +0.000 A 
ATOM     34  C   UNL     1      -4.531  12.256  19.985  0.00  0.00    +0.000 A 
ATOM     35  C   UNL     1      -3.759  11.957  18.837  0.00  0.00    +0.000 A 
ENDBRANCH  24  25
ENDBRANCH   6  24
TORSDOF 7
ENDMDL
MODEL 8
REMARK VINA RESULT:      -8.2      7.612     11.305
REMARK  Name = 
REMARK  7 active torsions:
REMARK  status: ('A' for Active; 'I' for Inactive)
REMARK    1  A    between atoms: O5*_1  and  C5*_2
REMARK    2  A    between atoms: C5*_2  and  C4*_3
REMARK    3  A    between atoms: C1*_5  and  N_6
REMARK    4  A    between atoms: N_11  and  C_12
REMARK    5  A    between atoms: C_12  and  C_13
REMARK    6  A    between atoms: C2*_28  and  O2*_29
REMARK    7  A    between atoms: C3*_30  and  O3*_31
REMARK                            x       y       z     vdW  Elec       q    Type
REMARK                         _______ _______ _______ _____ _____    ______ ____
ROOT
ATOM      1  N   UNL     1       4.821   5.044  17.899  0.00  0.00    +0.000 N 
ATOM      2  C   UNL     1       4.127   6.109  17.337  0.00  0.00    +0.000 A 
ATOM      3  N   UNL     1       4.861   7.202  17.268  0.00  0.00    +0.000 NA
ATOM      4  C   UNL     1       6.078   6.907  17.872  0.00  0.00    +0.000 A 
ATOM      5  C   UNL     1       7.349   7.646  18.081  0.00  0.00    +0.000 A 
ATOM      6  N   UNL     1       7.646   8.954  17.636  0.00  0.00    +0.000 N 
ATOM      7  N   UNL     1       8.289   6.982  18.767  0.00  0.00    +0.000 NA
ATOM      8  C   UNL     1       8.048   5.737  19.223  0.00  0.00    +0.000 A 
ATOM      9  N   UNL     1       6.964   4.944  19.038  0.00  0.00    +0.000 NA
ATOM     10  C   UNL     1       6.013   5.578  18.332  0.00  0.00    +0.000 A 
ATOM     11  H   UNL     1       6.835   9.561  17.623  0.00  0.00    +0.000 HD
ENDROOT
BRANCH   1  14
ATOM     12  C4* UNL     1       2.204   2.653  17.862  0.00  0.00    +0.000 C 
ATOM     13  O4* UNL     1       3.110   3.524  17.142  0.00  0.00    +0.000 OA
ATOM     14  C1* UNL     1       4.349   3.642  17.883  0.00  0.00    +0.000 C 
ATOM     15  C2* UNL     1       4.147   2.946  19.247  0.00  0.00    +0.000 C 
ATOM     16  C3* UNL     1       2.998   1.975  18.981  0.00  0.00    +0.000 C 
BRANCH  15  17
ATOM     17  O2* UNL     1       5.310   2.226  19.671  0.00  0.00    +0.000 OA
ATOM     18  H2* UNL     1       5.078   1.279  19.581  0.00  0.00    +0.000 HD
ENDBRANCH  15  17
BRANCH  16  19
ATOM     19  O3* UNL     1       3.595   0.720  18.580  0.00  0.00    +0.000 OA
ATOM     20  H3* UNL     1       4.544   0.726  18.794  0.00  0.00    +0.000 HD
ENDBRANCH  16  19
BRANCH  12  21
ATOM     21  C5* UNL     1       1.026   3.492  18.358  0.00  0.00    +0.000 C 
BRANCH  21  22
ATOM     22  O5* UNL     1       0.240   2.789  19.305  0.00  0.00    +0.000 OA
ATOM     23  H5* UNL     1      -0.686   3.063  19.166  0.00  0.00    +0.000 HD
ENDBRANCH  21  22
ENDBRANCH  12  21
ENDBRANCH   1  14
BRANCH   6  24
ATOM     24  C   UNL     1       9.038   9.634  17.583  0.00  0.00    +0.000 C 
BRANCH  24  25
ATOM     25  C   UNL     1       9.117  11.008  18.417  0.00  0.00    +0.000 C 
ATOM     26  C   UNL     1       9.956  10.599  19.654  0.00  0.00    +0.000 C 
ATOM     27  C   UNL     1       9.090  10.695  20.891  0.00  0.00    +0.000 C 
ATOM     28  C   UNL     1       9.095  12.144  21.393  0.00  0.00    +0.000 C 
ATOM     29  C   UNL     1       8.280  13.029  20.460  0.00  0.00    +0.000 C 
ATOM     30  C   UNL     1       9.143  13.464  19.286  0.00  0.00    +0.000 A 
ATOM     31  C   UNL     1       9.640  14.768  19.390  0.00  0.00    +0.000 A 
ATOM     32  C   UNL     1      10.489  15.283  18.433  0.00  0.00    +0.000 A 
ATOM     33  C   UNL     1      10.795  14.476  17.342  0.00  0.00    +0.000 A 
ATOM     34  C   UNL     1      10.322  13.132  17.225  0.00  0.00    +0.000 A 
ATOM     35  C   UNL     1       9.504  12.547  18.221  0.00  0.00    +0.000 A 
ENDBRANCH  24  25
ENDBRANCH   6  24
TORSDOF 7
ENDMDL
MODEL 9
REMARK VINA RESULT:      -8.1      1.069      1.626
REMARK  Name = 
REMARK  7 active torsions:
REMARK  status: ('A' for Active; 'I' for Inactive)
REMARK    1  A    between atoms: O5*_1  and  C5*_2
REMARK    2  A    between atoms: C5*_2  and  C4*_3
REMARK    3  A    between atoms: C1*_5  and  N_6
REMARK    4  A    between atoms: N_11  and  C_12
REMARK    5  A    between atoms: C_12  and  C_13
REMARK    6  A    between atoms: C2*_28  and  O2*_29
REMARK    7  A    between atoms: C3*_30  and  O3*_31
REMARK                            x       y       z     vdW  Elec       q    Type
REMARK                         _______ _______ _______ _____ _____    ______ ____
ROOT
ATOM      1  N   UNL     1      -1.405  11.683  21.407  0.00  0.00    +0.000 N 
ATOM      2  C   UNL     1      -0.684  11.052  22.414  0.00  0.00    +0.000 A 
ATOM      3  N   UNL     1       0.162  10.160  21.938  0.00  0.00    +0.000 NA
ATOM      4  C   UNL     1      -0.035  10.116  20.561  0.00  0.00    +0.000 A 
ATOM      5  C   UNL     1       0.607   9.389  19.436  0.00  0.00    +0.000 A 
ATOM      6  N   UNL     1       1.703   8.502  19.522  0.00  0.00    +0.000 N 
ATOM      7  N   UNL     1       0.069   9.616  18.231  0.00  0.00    +0.000 NA
ATOM      8  C   UNL     1      -0.986  10.445  18.099  0.00  0.00    +0.000 A 
ATOM      9  N   UNL     1      -1.606  11.207  19.033  0.00  0.00    +0.000 NA
ATOM     10  C   UNL     1      -1.071  11.016  20.251  0.00  0.00    +0.000 A 
ATOM     11  H   UNL     1       1.722   7.979  20.389  0.00  0.00    +0.000 HD
ENDROOT
BRANCH   1  14
ATOM     12  C4* UNL     1      -1.786  15.059  22.422  0.00  0.00    +0.000 C 
ATOM     13  O4* UNL     1      -1.469  14.094  21.389  0.00  0.00    +0.000 OA
ATOM     14  C1* UNL     1      -2.240  12.887  21.611  0.00  0.00    +0.000 C 
ATOM     15  C2* UNL     1      -2.956  13.032  22.972  0.00  0.00    +0.000 C 
ATOM     16  C3* UNL     1      -3.010  14.543  23.184  0.00  0.00    +0.000 C 
BRANCH  15  17
ATOM     17  O2* UNL     1      -4.282  12.491  22.953  0.00  0.00    +0.000 OA
ATOM     18  H2* UNL     1      -4.702  12.802  23.781  0.00  0.00    +0.000 HD
ENDBRANCH  15  17
BRANCH  16  19
ATOM     19  O3* UNL     1      -4.264  14.999  22.627  0.00  0.00    +0.000 OA
ATOM     20  H3* UNL     1      -4.893  14.257  22.585  0.00  0.00    +0.000 HD
ENDBRANCH  16  19
BRANCH  12  21
ATOM     21  C5* UNL     1      -0.546  15.250  23.296  0.00  0.00    +0.000 C 
BRANCH  21  22
ATOM     22  O5* UNL     1      -0.812  14.958  24.657  0.00  0.00    +0.000 OA
ATOM     23  H5* UNL     1      -0.905  15.813  25.119  0.00  0.00    +0.000 HD
ENDBRANCH  21  22
ENDBRANCH  12  21
ENDBRANCH   1  14
BRANCH   6  24
ATOM     24  C   UNL     1       2.569   7.963  18.354  0.00  0.00    +0.000 C 
BRANCH  24  25
ATOM     25  C   UNL     1       2.629   6.357  18.284  0.00  0.00    +0.000 C 
ATOM     26  C   UNL     1       4.153   6.083  18.216  0.00  0.00    +0.000 C 
ATOM     27  C   UNL     1       4.486   5.472  16.872  0.00  0.00    +0.000 C 
ATOM     28  C   UNL     1       4.238   3.961  16.935  0.00  0.00    +0.000 C 
ATOM     29  C   UNL     1       2.744   3.670  16.968  0.00  0.00    +0.000 C 
ATOM     30  C   UNL     1       2.233   3.784  18.396  0.00  0.00    +0.000 A 
ATOM     31  C   UNL     1       2.049   2.555  19.040  0.00  0.00    +0.000 A 
ATOM     32  C   UNL     1       1.650   2.498  20.359  0.00  0.00    +0.000 A 
ATOM     33  C   UNL     1       1.395   3.700  21.008  0.00  0.00    +0.000 A 
ATOM     34  C   UNL     1       1.600   4.969  20.381  0.00  0.00    +0.000 A 
ATOM     35  C   UNL     1       2.074   5.068  19.051  0.00  0.00    +0.000 A 
ENDBRANCH  24  25
ENDBRANCH   6  24
TORSDOF 7
ENDMDL
