MODEL 1
REMARK VINA RESULT:      -7.6      0.000      0.000
REMARK  Name = 
REMARK  5 active torsions:
REMARK  status: ('A' for Active; 'I' for Inactive)
REMARK    1  A    between atoms: C_1  and  C_2
REMARK    2  A    between atoms: C_2  and  C_3
REMARK    3  A    between atoms: C_2  and  C_4
REMARK    4  A    between atoms: C_20  and  C_22
REMARK    5  A    between atoms: C_29  and  C_30
REMARK                            x       y       z     vdW  Elec       q    Type
REMARK                         _______ _______ _______ _____ _____    ______ ____
ROOT
ATOM      1  C   UNL     1      -2.146  14.931  20.725  0.00  0.00    +0.000 A 
ATOM      2  N   UNL     1      -2.705  16.123  20.557  0.00  0.00    +0.000 NA
ATOM      3  N   UNL     1      -1.874  16.912  19.841  0.00  0.00    +0.000 NA
ATOM      4  C   UNL     1      -0.816  16.198  19.550  0.00  0.00    +0.000 A 
ATOM      5  C   UNL     1       0.340  16.599  18.792  0.00  0.00    +0.000 A 
ATOM      6  C   UNL     1       0.480  17.889  18.267  0.00  0.00    +0.000 A 
ATOM      7  C   UNL     1       1.605  18.213  17.517  0.00  0.00    +0.000 A 
ATOM      8  C   UNL     1       2.587  17.249  17.292  0.00  0.00    +0.000 A 
ATOM      9  C   UNL     1       2.435  15.957  17.815  0.00  0.00    +0.000 A 
ATOM     10  C   UNL     1       1.311  15.626  18.576  0.00  0.00    +0.000 A 
ATOM     11  N   UNL     1       1.149  14.306  19.056  0.00  0.00    +0.000 NA
ATOM     12  C   UNL     1       0.075  13.939  19.733  0.00  0.00    +0.000 A 
ATOM     13  N   UNL     1      -0.086  12.571  20.017  0.00  0.00    +0.000 N 
ATOM     14  C   UNL     1       0.302  12.077  21.368  0.00  0.00    +0.000 C 
ATOM     15  C   UNL     1      -0.068  10.580  21.554  0.00  0.00    +0.000 C 
ATOM     16  N   UNL     1       0.477   9.725  20.483  0.00  0.00    +0.000 N 
ATOM     17  C   UNL     1       1.288   8.632  20.830  0.00  0.00    +0.000 C 
ATOM     18  O   UNL     1       1.566   8.370  21.999  0.00  0.00    +0.000 OA
ATOM     19  C   UNL     1       0.176  10.221  19.124  0.00  0.00    +0.000 C 
ATOM     20  C   UNL     1      -1.299  10.000  18.771  0.00  0.00    +0.000 C 
ATOM     21  C   UNL     1       0.566  11.699  18.981  0.00  0.00    +0.000 C 
ATOM     22  N   UNL     1      -0.933  14.907  20.039  0.00  0.00    +0.000 N 
ENDROOT
BRANCH  17  23
ATOM     23  C   UNL     1       1.913   7.771  19.778  0.00  0.00    +0.000 A 
ATOM     24  C   UNL     1       2.087   6.400  20.034  0.00  0.00    +0.000 A 
ATOM     25  C   UNL     1       2.818   5.600  19.145  0.00  0.00    +0.000 A 
ATOM     26  C   UNL     1       3.385   6.172  18.009  0.00  0.00    +0.000 A 
ATOM     27 CL   UNL     1       4.409   5.239  16.989  0.00  0.00    +0.000 Cl
ATOM     28  C   UNL     1       3.132   7.504  17.696  0.00  0.00    +0.000 A 
ATOM     29  C   UNL     1       2.341   8.279  18.552  0.00  0.00    +0.000 A 
ENDBRANCH  17  23
BRANCH   1  31
ATOM     30  C   UNL     1      -3.694  14.663  22.638  0.00  0.00    +0.000 C 
ATOM     31  C   UNL     1      -2.793  13.924  21.628  0.00  0.00    +0.000 C 
ATOM     32  C   UNL     1      -3.683  12.973  20.812  0.00  0.00    +0.000 C 
ENDBRANCH   1  31
TORSDOF 2
ENDMDL
MODEL 2
REMARK VINA RESULT:      -7.6      1.576      2.065
REMARK  Name = 
REMARK  5 active torsions:
REMARK  status: ('A' for Active; 'I' for Inactive)
REMARK    1  A    between atoms: C_1  and  C_2
REMARK    2  A    between atoms: C_2  and  C_3
REMARK    3  A    between atoms: C_2  and  C_4
REMARK    4  A    between atoms: C_20  and  C_22
REMARK    5  A    between atoms: C_29  and  C_30
REMARK                            x       y       z     vdW  Elec       q    Type
REMARK                         _______ _______ _______ _____ _____    ______ ____
ROOT
ATOM      1  C   UNL     1      -1.025  13.492  20.105  0.00  0.00    +0.000 A 
ATOM      2  N   UNL     1      -1.526  14.720  20.075  0.00  0.00    +0.000 NA
ATOM      3  N   UNL     1      -0.581  15.580  19.630  0.00  0.00    +0.000 NA
ATOM      4  C   UNL     1       0.491  14.876  19.367  0.00  0.00    +0.000 A 
ATOM      5  C   UNL     1       1.753  15.344  18.858  0.00  0.00    +0.000 A 
ATOM      6  C   UNL     1       1.997  16.697  18.593  0.00  0.00    +0.000 A 
ATOM      7  C   UNL     1       3.227  17.089  18.075  0.00  0.00    +0.000 A 
ATOM      8  C   UNL     1       4.208  16.131  17.821  0.00  0.00    +0.000 A 
ATOM      9  C   UNL     1       3.951  14.777  18.082  0.00  0.00    +0.000 A 
ATOM     10  C   UNL     1       2.722  14.376  18.611  0.00  0.00    +0.000 A 
ATOM     11  N   UNL     1       2.461  13.003  18.824  0.00  0.00    +0.000 NA
ATOM     12  C   UNL     1       1.292  12.578  19.270  0.00  0.00    +0.000 A 
ATOM     13  N   UNL     1       1.060  11.191  19.283  0.00  0.00    +0.000 N 
ATOM     14  C   UNL     1       1.237  10.455  20.567  0.00  0.00    +0.000 C 
ATOM     15  C   UNL     1       0.808   8.968  20.433  0.00  0.00    +0.000 C 
ATOM     16  N   UNL     1       1.482   8.283  19.314  0.00  0.00    +0.000 N 
ATOM     17  C   UNL     1       2.208   7.109  19.571  0.00  0.00    +0.000 C 
ATOM     18  O   UNL     1       2.309   6.638  20.703  0.00  0.00    +0.000 OA
ATOM     19  C   UNL     1       1.392   9.019  18.035  0.00  0.00    +0.000 C 
ATOM     20  C   UNL     1      -0.022   8.933  17.449  0.00  0.00    +0.000 C 
ATOM     21  C   UNL     1       1.833  10.479  18.210  0.00  0.00    +0.000 C 
ATOM     22  N   UNL     1       0.274  13.527  19.600  0.00  0.00    +0.000 N 
ENDROOT
BRANCH  17  23
ATOM     23  C   UNL     1       2.958   6.411  18.480  0.00  0.00    +0.000 A 
ATOM     24  C   UNL     1       2.641   5.075  18.182  0.00  0.00    +0.000 A 
ATOM     25  C   UNL     1       3.432   4.342  17.287  0.00  0.00    +0.000 A 
ATOM     26  C   UNL     1       4.546   4.938  16.702  0.00  0.00    +0.000 A 
ATOM     27 CL   UNL     1       5.612   4.009  15.722  0.00  0.00    +0.000 Cl
ATOM     28  C   UNL     1       4.808   6.289  16.913  0.00  0.00    +0.000 A 
ATOM     29  C   UNL     1       3.971   7.034  17.751  0.00  0.00    +0.000 A 
ENDBRANCH  17  23
BRANCH   1  31
ATOM     30  C   UNL     1      -1.520  12.323  22.230  0.00  0.00    +0.000 C 
ATOM     31  C   UNL     1      -1.819  12.378  20.718  0.00  0.00    +0.000 C 
ATOM     32  C   UNL     1      -3.324  12.639  20.545  0.00  0.00    +0.000 C 
ENDBRANCH   1  31
TORSDOF 2
ENDMDL
MODEL 3
REMARK VINA RESULT:      -7.3      1.652      1.836
REMARK  Name = 
REMARK  5 active torsions:
REMARK  status: ('A' for Active; 'I' for Inactive)
REMARK    1  A    between atoms: C_1  and  C_2
REMARK    2  A    between atoms: C_2  and  C_3
REMARK    3  A    between atoms: C_2  and  C_4
REMARK    4  A    between atoms: C_20  and  C_22
REMARK    5  A    between atoms: C_29  and  C_30
REMARK                            x       y       z     vdW  Elec       q    Type
REMARK                         _______ _______ _______ _____ _____    ______ ____
ROOT
ATOM      1  C   UNL     1      -1.311  13.773  21.011  0.00  0.00    +0.000 A 
ATOM      2  N   UNL     1      -1.777  15.011  21.114  0.00  0.00    +0.000 NA
ATOM      3  N   UNL     1      -0.776  15.888  20.873  0.00  0.00    +0.000 NA
ATOM      4  C   UNL     1       0.296  15.188  20.602  0.00  0.00    +0.000 A 
ATOM      5  C   UNL     1       1.609  15.675  20.268  0.00  0.00    +0.000 A 
ATOM      6  C   UNL     1       1.909  17.042  20.218  0.00  0.00    +0.000 A 
ATOM      7  C   UNL     1       3.188  17.456  19.861  0.00  0.00    +0.000 A 
ATOM      8  C   UNL     1       4.163  16.508  19.556  0.00  0.00    +0.000 A 
ATOM      9  C   UNL     1       3.850  15.141  19.601  0.00  0.00    +0.000 A 
ATOM     10  C   UNL     1       2.570  14.716  19.966  0.00  0.00    +0.000 A 
ATOM     11  N   UNL     1       2.258  13.337  19.961  0.00  0.00    +0.000 NA
ATOM     12  C   UNL     1       1.045  12.898  20.247  0.00  0.00    +0.000 A 
ATOM     13  N   UNL     1       0.777  11.532  20.045  0.00  0.00    +0.000 N 
ATOM     14  C   UNL     1       0.825  10.619  21.222  0.00  0.00    +0.000 C 
ATOM     15  C   UNL     1       0.372   9.182  20.845  0.00  0.00    +0.000 C 
ATOM     16  N   UNL     1       1.121   8.635  19.699  0.00  0.00    +0.000 N 
ATOM     17  C   UNL     1       1.794   7.410  19.846  0.00  0.00    +0.000 C 
ATOM     18  O   UNL     1       1.785   6.783  20.904  0.00  0.00    +0.000 OA
ATOM     19  C   UNL     1       1.160   9.543  18.534  0.00  0.00    +0.000 C 
ATOM     20  C   UNL     1      -0.200   9.592  17.828  0.00  0.00    +0.000 C 
ATOM     21  C   UNL     1       1.622  10.948  18.949  0.00  0.00    +0.000 C 
ATOM     22  N   UNL     1       0.026  13.829  20.623  0.00  0.00    +0.000 N 
ENDROOT
BRANCH  17  23
ATOM     23  C   UNL     1       2.616   6.843  18.732  0.00  0.00    +0.000 A 
ATOM     24  C   UNL     1       2.499   5.477  18.426  0.00  0.00    +0.000 A 
ATOM     25  C   UNL     1       3.372   4.879  17.507  0.00  0.00    +0.000 A 
ATOM     26  C   UNL     1       4.369   5.643  16.905  0.00  0.00    +0.000 A 
ATOM     27 CL   UNL     1       5.542   4.894  15.894  0.00  0.00    +0.000 Cl
ATOM     28  C   UNL     1       4.428   7.015  17.126  0.00  0.00    +0.000 A 
ATOM     29  C   UNL     1       3.506   7.618  17.990  0.00  0.00    +0.000 A 
ENDBRANCH  17  23
BRANCH   1  31
ATOM     30  C   UNL     1      -2.022  12.344  22.904  0.00  0.00    +0.000 C 
ATOM     31  C   UNL     1      -2.183  12.615  21.394  0.00  0.00    +0.000 C 
ATOM     32  C   UNL     1      -3.660  12.950  21.132  0.00  0.00    +0.000 C 
ENDBRANCH   1  31
TORSDOF 2
ENDMDL
MODEL 4
REMARK VINA RESULT:      -7.2      0.616      1.055
REMARK  Name = 
REMARK  5 active torsions:
REMARK  status: ('A' for Active; 'I' for Inactive)
REMARK    1  A    between atoms: C_1  and  C_2
REMARK    2  A    between atoms: C_2  and  C_3
REMARK    3  A    between atoms: C_2  and  C_4
REMARK    4  A    between atoms: C_20  and  C_22
REMARK    5  A    between atoms: C_29  and  C_30
REMARK                            x       y       z     vdW  Elec       q    Type
REMARK                         _______ _______ _______ _____ _____    ______ ____
ROOT
ATOM      1  C   UNL     1      -1.935  15.137  20.448  0.00  0.00    +0.000 A 
ATOM      2  N   UNL     1      -2.403  16.339  20.138  0.00  0.00    +0.000 NA
ATOM      3  N   UNL     1      -1.485  17.001  19.399  0.00  0.00    +0.000 NA
ATOM      4  C   UNL     1      -0.463  16.199  19.239  0.00  0.00    +0.000 A 
ATOM      5  C   UNL     1       0.754  16.451  18.514  0.00  0.00    +0.000 A 
ATOM      6  C   UNL     1       1.007  17.673  17.880  0.00  0.00    +0.000 A 
ATOM      7  C   UNL     1       2.190  17.851  17.169  0.00  0.00    +0.000 A 
ATOM      8  C   UNL     1       3.115  16.811  17.093  0.00  0.00    +0.000 A 
ATOM      9  C   UNL     1       2.849  15.588  17.726  0.00  0.00    +0.000 A 
ATOM     10  C   UNL     1       1.667  15.403  18.448  0.00  0.00    +0.000 A 
ATOM     11  N   UNL     1       1.393  14.149  19.040  0.00  0.00    +0.000 NA
ATOM     12  C   UNL     1       0.263  13.917  19.685  0.00  0.00    +0.000 A 
ATOM     13  N   UNL     1      -0.004  12.596  20.086  0.00  0.00    +0.000 N 
ATOM     14  C   UNL     1       0.279  12.213  21.499  0.00  0.00    +0.000 C 
ATOM     15  C   UNL     1      -0.200  10.768  21.803  0.00  0.00    +0.000 C 
ATOM     16  N   UNL     1       0.341   9.780  20.850  0.00  0.00    +0.000 N 
ATOM     17  C   UNL     1       1.058   8.678  21.345  0.00  0.00    +0.000 C 
ATOM     18  O   UNL     1       1.257   8.514  22.547  0.00  0.00    +0.000 OA
ATOM     19  C   UNL     1       0.144  10.158  19.435  0.00  0.00    +0.000 C 
ATOM     20  C   UNL     1      -1.322   9.996  19.020  0.00  0.00    +0.000 C 
ATOM     21  C   UNL     1       0.640  11.589  19.177  0.00  0.00    +0.000 C 
ATOM     22  N   UNL     1      -0.692  14.971  19.840  0.00  0.00    +0.000 N 
ENDROOT
BRANCH  17  23
ATOM     23  C   UNL     1       1.677   7.681  20.417  0.00  0.00    +0.000 A 
ATOM     24  C   UNL     1       2.151   8.115  19.167  0.00  0.00    +0.000 A 
ATOM     25  C   UNL     1       2.581   7.185  18.211  0.00  0.00    +0.000 A 
ATOM     26  C   UNL     1       2.524   5.824  18.497  0.00  0.00    +0.000 A 
ATOM     27 CL   UNL     1       2.903   4.667  17.282  0.00  0.00    +0.000 Cl
ATOM     28  C   UNL     1       2.152   5.391  19.766  0.00  0.00    +0.000 A 
ATOM     29  C   UNL     1       1.794   6.329  20.740  0.00  0.00    +0.000 A 
ENDBRANCH  17  23
BRANCH   1  31
ATOM     30  C   UNL     1      -3.721  15.129  22.163  0.00  0.00    +0.000 C 
ATOM     31  C   UNL     1      -2.694  14.265  21.403  0.00  0.00    +0.000 C 
ATOM     32  C   UNL     1      -3.469  13.183  20.634  0.00  0.00    +0.000 C 
ENDBRANCH   1  31
TORSDOF 2
ENDMDL
MODEL 5
REMARK VINA RESULT:      -7.1      4.042      7.515
REMARK  Name = 
REMARK  5 active torsions:
REMARK  status: ('A' for Active; 'I' for Inactive)
REMARK    1  A    between atoms: C_1  and  C_2
REMARK    2  A    between atoms: C_2  and  C_3
REMARK    3  A    between atoms: C_2  and  C_4
REMARK    4  A    between atoms: C_20  and  C_22
REMARK    5  A    between atoms: C_29  and  C_30
REMARK                            x       y       z     vdW  Elec       q    Type
REMARK                         _______ _______ _______ _____ _____    ______ ____
ROOT
ATOM      1  C   UNL     1      -1.144  13.987  22.687  0.00  0.00    +0.000 A 
ATOM      2  N   UNL     1      -2.031  13.372  23.459  0.00  0.00    +0.000 NA
ATOM      3  N   UNL     1      -1.879  12.034  23.339  0.00  0.00    +0.000 NA
ATOM      4  C   UNL     1      -0.886  11.829  22.511  0.00  0.00    +0.000 A 
ATOM      5  C   UNL     1      -0.341  10.569  22.078  0.00  0.00    +0.000 A 
ATOM      6  C   UNL     1      -0.864   9.343  22.505  0.00  0.00    +0.000 A 
ATOM      7  C   UNL     1      -0.279   8.155  22.077  0.00  0.00    +0.000 A 
ATOM      8  C   UNL     1       0.824   8.195  21.226  0.00  0.00    +0.000 A 
ATOM      9  C   UNL     1       1.345   9.429  20.810  0.00  0.00    +0.000 A 
ATOM     10  C   UNL     1       0.759  10.626  21.229  0.00  0.00    +0.000 A 
ATOM     11  N   UNL     1       1.325  11.861  20.839  0.00  0.00    +0.000 NA
ATOM     12  C   UNL     1       0.834  13.015  21.258  0.00  0.00    +0.000 A 
ATOM     13  N   UNL     1       1.562  14.182  20.969  0.00  0.00    +0.000 N 
ATOM     14  C   UNL     1       1.137  15.012  19.807  0.00  0.00    +0.000 C 
ATOM     15  C   UNL     1       1.960  16.326  19.716  0.00  0.00    +0.000 C 
ATOM     16  N   UNL     1       3.415  16.085  19.711  0.00  0.00    +0.000 N 
ATOM     17  C   UNL     1       4.187  16.593  18.653  0.00  0.00    +0.000 C 
ATOM     18  O   UNL     1       3.687  17.228  17.726  0.00  0.00    +0.000 OA
ATOM     19  C   UNL     1       3.868  15.204  20.808  0.00  0.00    +0.000 C 
ATOM     20  C   UNL     1       3.832  15.937  22.153  0.00  0.00    +0.000 C 
ATOM     21  C   UNL     1       3.036  13.914  20.855  0.00  0.00    +0.000 C 
ATOM     22  N   UNL     1      -0.333  13.027  22.086  0.00  0.00    +0.000 N 
ENDROOT
BRANCH  17  23
ATOM     23  C   UNL     1       5.656  16.324  18.572  0.00  0.00    +0.000 A 
ATOM     24  C   UNL     1       6.555  17.301  19.032  0.00  0.00    +0.000 A 
ATOM     25  C   UNL     1       7.932  17.154  18.817  0.00  0.00    +0.000 A 
ATOM     26  C   UNL     1       8.410  16.040  18.132  0.00  0.00    +0.000 A 
ATOM     27 CL   UNL     1      10.077  15.920  17.728  0.00  0.00    +0.000 Cl
ATOM     28  C   UNL     1       7.538  15.020  17.763  0.00  0.00    +0.000 A 
ATOM     29  C   UNL     1       6.172  15.140  18.046  0.00  0.00    +0.000 A 
ENDBRANCH  17  23
BRANCH   1  31
ATOM     30  C   UNL     1      -2.575  15.979  23.032  0.00  0.00    +0.000 C 
ATOM     31  C   UNL     1      -1.212  15.475  22.513  0.00  0.00    +0.000 C 
ATOM     32  C   UNL     1      -0.113  16.159  23.341  0.00  0.00    +0.000 C 
ENDBRANCH   1  31
TORSDOF 2
ENDMDL
MODEL 6
REMARK VINA RESULT:      -7.0      4.004      7.373
REMARK  Name = 
REMARK  5 active torsions:
REMARK  status: ('A' for Active; 'I' for Inactive)
REMARK    1  A    between atoms: C_1  and  C_2
REMARK    2  A    between atoms: C_2  and  C_3
REMARK    3  A    between atoms: C_2  and  C_4
REMARK    4  A    between atoms: C_20  and  C_22
REMARK    5  A    between atoms: C_29  and  C_30
REMARK                            x       y       z     vdW  Elec       q    Type
REMARK                         _______ _______ _______ _____ _____    ______ ____
ROOT
ATOM      1  C   UNL     1      -1.044  14.364  22.802  0.00  0.00    +0.000 A 
ATOM      2  N   UNL     1      -1.938  13.812  23.611  0.00  0.00    +0.000 NA
ATOM      3  N   UNL     1      -1.855  12.466  23.520  0.00  0.00    +0.000 NA
ATOM      4  C   UNL     1      -0.896  12.192  22.671  0.00  0.00    +0.000 A 
ATOM      5  C   UNL     1      -0.427  10.898  22.255  0.00  0.00    +0.000 A 
ATOM      6  C   UNL     1      -0.997   9.708  22.724  0.00  0.00    +0.000 A 
ATOM      7  C   UNL     1      -0.483   8.484  22.310  0.00  0.00    +0.000 A 
ATOM      8  C   UNL     1       0.597   8.449  21.429  0.00  0.00    +0.000 A 
ATOM      9  C   UNL     1       1.167   9.646  20.971  0.00  0.00    +0.000 A 
ATOM     10  C   UNL     1       0.652  10.880  21.376  0.00  0.00    +0.000 A 
ATOM     11  N   UNL     1       1.268  12.076  20.942  0.00  0.00    +0.000 NA
ATOM     12  C   UNL     1       0.845  13.262  21.346  0.00  0.00    +0.000 A 
ATOM     13  N   UNL     1       1.622  14.385  21.010  0.00  0.00    +0.000 N 
ATOM     14  C   UNL     1       1.207  15.209  19.840  0.00  0.00    +0.000 C 
ATOM     15  C   UNL     1       2.091  16.478  19.696  0.00  0.00    +0.000 C 
ATOM     16  N   UNL     1       3.531  16.164  19.659  0.00  0.00    +0.000 N 
ATOM     17  C   UNL     1       4.298  16.609  18.571  0.00  0.00    +0.000 C 
ATOM     18  O   UNL     1       3.805  17.247  17.641  0.00  0.00    +0.000 OA
ATOM     19  C   UNL     1       3.970  15.287  20.765  0.00  0.00    +0.000 C 
ATOM     20  C   UNL     1       4.006  16.050  22.093  0.00  0.00    +0.000 C 
ATOM     21  C   UNL     1       3.077  14.042  20.864  0.00  0.00    +0.000 C 
ATOM     22  N   UNL     1      -0.297  13.351  22.203  0.00  0.00    +0.000 N 
ENDROOT
BRANCH  17  23
ATOM     23  C   UNL     1       5.750  16.265  18.458  0.00  0.00    +0.000 A 
ATOM     24  C   UNL     1       6.118  15.055  17.847  0.00  0.00    +0.000 A 
ATOM     25  C   UNL     1       7.452  14.624  17.874  0.00  0.00    +0.000 A 
ATOM     26  C   UNL     1       8.413  15.395  18.523  0.00  0.00    +0.000 A 
ATOM     27 CL   UNL     1      10.021  14.809  18.697  0.00  0.00    +0.000 Cl
ATOM     28  C   UNL     1       8.077  16.642  19.041  0.00  0.00    +0.000 A 
ATOM     29  C   UNL     1       6.757  17.098  18.946  0.00  0.00    +0.000 A 
ENDBRANCH  17  23
BRANCH   1  31
ATOM     30  C   UNL     1      -2.016  16.195  21.448  0.00  0.00    +0.000 C 
ATOM     31  C   UNL     1      -1.043  15.849  22.594  0.00  0.00    +0.000 C 
ATOM     32  C   UNL     1      -1.536  16.564  23.862  0.00  0.00    +0.000 C 
ENDBRANCH   1  31
TORSDOF 2
ENDMDL
MODEL 7
REMARK VINA RESULT:      -6.9      4.092      6.449
REMARK  Name = 
REMARK  5 active torsions:
REMARK  status: ('A' for Active; 'I' for Inactive)
REMARK    1  A    between atoms: C_1  and  C_2
REMARK    2  A    between atoms: C_2  and  C_3
REMARK    3  A    between atoms: C_2  and  C_4
REMARK    4  A    between atoms: C_20  and  C_22
REMARK    5  A    between atoms: C_29  and  C_30
REMARK                            x       y       z     vdW  Elec       q    Type
REMARK                         _______ _______ _______ _____ _____    ______ ____
ROOT
ATOM      1  C   UNL     1      -2.407  14.624  21.008  0.00  0.00    +0.000 A 
ATOM      2  N   UNL     1      -3.616  14.190  21.338  0.00  0.00    +0.000 NA
ATOM      3  N   UNL     1      -3.932  13.119  20.575  0.00  0.00    +0.000 NA
ATOM      4  C   UNL     1      -2.909  12.883  19.793  0.00  0.00    +0.000 A 
ATOM      5  C   UNL     1      -2.767  11.839  18.813  0.00  0.00    +0.000 A 
ATOM      6  C   UNL     1      -3.784  10.914  18.554  0.00  0.00    +0.000 A 
ATOM      7  C   UNL     1      -3.581   9.907  17.615  0.00  0.00    +0.000 A 
ATOM      8  C   UNL     1      -2.364   9.827  16.940  0.00  0.00    +0.000 A 
ATOM      9  C   UNL     1      -1.348  10.754  17.212  0.00  0.00    +0.000 A 
ATOM     10  C   UNL     1      -1.547  11.773  18.147  0.00  0.00    +0.000 A 
ATOM     11  N   UNL     1      -0.496  12.671  18.445  0.00  0.00    +0.000 NA
ATOM     12  C   UNL     1      -0.626  13.613  19.362  0.00  0.00    +0.000 A 
ATOM     13  N   UNL     1       0.522  14.343  19.719  0.00  0.00    +0.000 N 
ATOM     14  C   UNL     1       0.726  15.687  19.107  0.00  0.00    +0.000 C 
ATOM     15  C   UNL     1       1.962  16.406  19.713  0.00  0.00    +0.000 C 
ATOM     16  N   UNL     1       3.185  15.584  19.645  0.00  0.00    +0.000 N 
ATOM     17  C   UNL     1       4.323  16.108  19.010  0.00  0.00    +0.000 C 
ATOM     18  O   UNL     1       4.331  17.227  18.502  0.00  0.00    +0.000 OA
ATOM     19  C   UNL     1       3.004  14.217  20.176  0.00  0.00    +0.000 C 
ATOM     20  C   UNL     1       2.904  14.228  21.705  0.00  0.00    +0.000 C 
ATOM     21  C   UNL     1       1.779  13.540  19.544  0.00  0.00    +0.000 C 
ATOM     22  N   UNL     1      -1.875  13.773  20.041  0.00  0.00    +0.000 N 
ENDROOT
BRANCH  17  23
ATOM     23  C   UNL     1       5.568  15.291  18.863  0.00  0.00    +0.000 A 
ATOM     24  C   UNL     1       6.515  15.297  19.901  0.00  0.00    +0.000 A 
ATOM     25  C   UNL     1       7.762  14.681  19.726  0.00  0.00    +0.000 A 
ATOM     26  C   UNL     1       8.068  14.073  18.512  0.00  0.00    +0.000 A 
ATOM     27 CL   UNL     1       9.645  13.448  18.229  0.00  0.00    +0.000 Cl
ATOM     28  C   UNL     1       7.101  13.975  17.516  0.00  0.00    +0.000 A 
ATOM     29  C   UNL     1       5.832  14.528  17.725  0.00  0.00    +0.000 A 
ENDBRANCH  17  23
BRANCH   1  31
ATOM     30  C   UNL     1      -3.083  16.813  21.946  0.00  0.00    +0.000 C 
ATOM     31  C   UNL     1      -1.888  15.903  21.593  0.00  0.00    +0.000 C 
ATOM     32  C   UNL     1      -1.114  15.620  22.890  0.00  0.00    +0.000 C 
ENDBRANCH   1  31
TORSDOF 2
ENDMDL
MODEL 8
REMARK VINA RESULT:      -6.8      2.239      2.314
REMARK  Name = 
REMARK  5 active torsions:
REMARK  status: ('A' for Active; 'I' for Inactive)
REMARK    1  A    between atoms: C_1  and  C_2
REMARK    2  A    between atoms: C_2  and  C_3
REMARK    3  A    between atoms: C_2  and  C_4
REMARK    4  A    between atoms: C_20  and  C_22
REMARK    5  A    between atoms: C_29  and  C_30
REMARK                            x       y       z     vdW  Elec       q    Type
REMARK                         _______ _______ _______ _____ _____    ______ ____
ROOT
ATOM      1  C   UNL     1      -2.316  13.825  22.457  0.00  0.00    +0.000 A 
ATOM      2  N   UNL     1      -2.852  15.011  22.714  0.00  0.00    +0.000 NA
ATOM      3  N   UNL     1      -1.889  15.958  22.669  0.00  0.00    +0.000 NA
ATOM      4  C   UNL     1      -0.767  15.357  22.362  0.00  0.00    +0.000 A 
ATOM      5  C   UNL     1       0.533  15.948  22.187  0.00  0.00    +0.000 A 
ATOM      6  C   UNL     1       0.761  17.319  22.359  0.00  0.00    +0.000 A 
ATOM      7  C   UNL     1       2.034  17.840  22.148  0.00  0.00    +0.000 A 
ATOM      8  C   UNL     1       3.073  16.994  21.765  0.00  0.00    +0.000 A 
ATOM      9  C   UNL     1       2.833  15.623  21.587  0.00  0.00    +0.000 A 
ATOM     10  C   UNL     1       1.560  15.090  21.805  0.00  0.00    +0.000 A 
ATOM     11  N   UNL     1       1.324  13.716  21.576  0.00  0.00    +0.000 NA
ATOM     12  C   UNL     1       0.122  13.184  21.718  0.00  0.00    +0.000 A 
ATOM     13  N   UNL     1      -0.060  11.854  21.298  0.00  0.00    +0.000 N 
ATOM     14  C   UNL     1      -0.027  10.776  22.327  0.00  0.00    +0.000 C 
ATOM     15  C   UNL     1      -0.380   9.394  21.713  0.00  0.00    +0.000 C 
ATOM     16  N   UNL     1       0.458   9.061  20.546  0.00  0.00    +0.000 N 
ATOM     17  C   UNL     1       1.187   7.860  20.550  0.00  0.00    +0.000 C 
ATOM     18  O   UNL     1       1.155   7.080  21.501  0.00  0.00    +0.000 OA
ATOM     19  C   UNL     1       0.511  10.136  19.534  0.00  0.00    +0.000 C 
ATOM     20  C   UNL     1      -0.809  10.231  18.761  0.00  0.00    +0.000 C 
ATOM     21  C   UNL     1       0.873  11.481  20.181  0.00  0.00    +0.000 C 
ATOM     22  N   UNL     1      -0.964  14.000  22.165  0.00  0.00    +0.000 N 
ENDROOT
BRANCH  17  23
ATOM     23  C   UNL     1       2.098   7.506  19.418  0.00  0.00    +0.000 A 
ATOM     24  C   UNL     1       2.805   6.293  19.465  0.00  0.00    +0.000 A 
ATOM     25  C   UNL     1       3.790   6.009  18.509  0.00  0.00    +0.000 A 
ATOM     26  C   UNL     1       4.075   6.941  17.514  0.00  0.00    +0.000 A 
ATOM     27 CL   UNL     1       5.381   6.675  16.427  0.00  0.00    +0.000 Cl
ATOM     28  C   UNL     1       3.311   8.098  17.400  0.00  0.00    +0.000 A 
ATOM     29  C   UNL     1       2.281   8.341  18.316  0.00  0.00    +0.000 A 
ENDBRANCH  17  23
BRANCH   1  31
ATOM     30  C   UNL     1      -3.636  12.485  24.067  0.00  0.00    +0.000 C 
ATOM     31  C   UNL     1      -3.143  12.584  22.608  0.00  0.00    +0.000 C 
ATOM     32  C   UNL     1      -4.379  12.653  21.698  0.00  0.00    +0.000 C 
ENDBRANCH   1  31
TORSDOF 2
ENDMDL
MODEL 9
REMARK VINA RESULT:      -6.8      3.815      5.650
REMARK  Name = 
REMARK  5 active torsions:
REMARK  status: ('A' for Active; 'I' for Inactive)
REMARK    1  A    between atoms: C_1  and  C_2
REMARK    2  A    between atoms: C_2  and  C_3
REMARK    3  A    between atoms: C_2  and  C_4
REMARK    4  A    between atoms: C_20  and  C_22
REMARK    5  A    between atoms: C_29  and  C_30
REMARK                            x       y       z     vdW  Elec       q    Type
REMARK                         _______ _______ _______ _____ _____    ______ ____
ROOT
ATOM      1  C   UNL     1       3.494  17.519  21.697  0.00  0.00    +0.000 A 
ATOM      2  N   UNL     1       4.385  18.499  21.767  0.00  0.00    +0.000 NA
ATOM      3  N   UNL     1       5.429  18.215  20.955  0.00  0.00    +0.000 NA
ATOM      4  C   UNL     1       5.167  17.072  20.372  0.00  0.00    +0.000 A 
ATOM      5  C   UNL     1       5.973  16.364  19.413  0.00  0.00    +0.000 A 
ATOM      6  C   UNL     1       7.220  16.838  18.988  0.00  0.00    +0.000 A 
ATOM      7  C   UNL     1       7.943  16.126  18.036  0.00  0.00    +0.000 A 
ATOM      8  C   UNL     1       7.421  14.945  17.512  0.00  0.00    +0.000 A 
ATOM      9  C   UNL     1       6.168  14.482  17.938  0.00  0.00    +0.000 A 
ATOM     10  C   UNL     1       5.438  15.186  18.900  0.00  0.00    +0.000 A 
ATOM     11  N   UNL     1       4.156  14.731  19.284  0.00  0.00    +0.000 NA
ATOM     12  C   UNL     1       3.412  15.399  20.149  0.00  0.00    +0.000 A 
ATOM     13  N   UNL     1       2.085  14.973  20.338  0.00  0.00    +0.000 N 
ATOM     14  C   UNL     1       1.776  14.117  21.518  0.00  0.00    +0.000 C 
ATOM     15  C   UNL     1       0.251  13.856  21.648  0.00  0.00    +0.000 C 
ATOM     16  N   UNL     1      -0.337  13.311  20.410  0.00  0.00    +0.000 N 
ATOM     17  C   UNL     1      -1.042  12.097  20.467  0.00  0.00    +0.000 C 
ATOM     18  O   UNL     1      -1.177  11.469  21.516  0.00  0.00    +0.000 OA
ATOM     19  C   UNL     1       0.006  14.091  19.203  0.00  0.00    +0.000 C 
ATOM     20  C   UNL     1      -0.756  15.421  19.171  0.00  0.00    +0.000 C 
ATOM     21  C   UNL     1       1.522  14.318  19.109  0.00  0.00    +0.000 C 
ATOM     22  N   UNL     1       3.928  16.586  20.758  0.00  0.00    +0.000 N 
ENDROOT
BRANCH  17  23
ATOM     23  C   UNL     1      -1.606  11.474  19.229  0.00  0.00    +0.000 A 
ATOM     24  C   UNL     1      -0.885  10.449  18.593  0.00  0.00    +0.000 A 
ATOM     25  C   UNL     1      -1.298   9.961  17.346  0.00  0.00    +0.000 A 
ATOM     26  C   UNL     1      -2.422  10.505  16.729  0.00  0.00    +0.000 A 
ATOM     27 CL   UNL     1      -2.852  10.026  15.135  0.00  0.00    +0.000 Cl
ATOM     28  C   UNL     1      -3.198  11.447  17.397  0.00  0.00    +0.000 A 
ATOM     29  C   UNL     1      -2.820  11.877  18.674  0.00  0.00    +0.000 A 
ENDBRANCH  17  23
BRANCH   1  31
ATOM     30  C   UNL     1       2.615  18.452  23.815  0.00  0.00    +0.000 C 
ATOM     31  C   UNL     1       2.318  17.513  22.628  0.00  0.00    +0.000 C 
ATOM     32  C   UNL     1       1.068  18.045  21.910  0.00  0.00    +0.000 C 
ENDBRANCH   1  31
TORSDOF 2
ENDMDL
