MODEL 1
REMARK VINA RESULT:      -6.8      0.000      0.000
REMARK  Name = 
REMARK  3 active torsions:
REMARK  status: ('A' for Active; 'I' for Inactive)
REMARK    1  A    between atoms: C_4  and  C_5
REMARK    2  A    between atoms: C_5  and  N_6
REMARK    3  A    between atoms: N_6  and  C_7
REMARK                            x       y       z     vdW  Elec       q    Type
REMARK                         _______ _______ _______ _____ _____    ______ ____
ROOT
ATOM      1  N   UNL     1       4.245   6.409  18.513  0.00  0.00    +0.000 NA
ATOM      2  H   UNL     1       4.338   5.897  19.389  0.00  0.00    +0.000 HD
ENDROOT
BRANCH   1   3
ATOM      3  C   UNL     1       5.312   6.022  17.567  0.00  0.00    +0.000 C 
ATOM      4  C   UNL     1       4.717   5.613  16.203  0.00  0.00    +0.000 C 
ATOM      5  C   UNL     1       5.711   5.247  15.104  0.00  0.00    +0.000 C 
ATOM      6  C   UNL     1       6.709   4.152  15.459  0.00  0.00    +0.000 C 
ATOM      7  N   UNL     1       7.769   4.656  16.316  0.00  0.00    +0.000 NA
ATOM      8  C   UNL     1       7.488   4.611  17.743  0.00  0.00    +0.000 C 
ATOM      9  C   UNL     1       6.055   4.845  18.227  0.00  0.00    +0.000 C 
ATOM     10  H   UNL     1       8.033   5.599  16.038  0.00  0.00    +0.000 HD
ENDBRANCH   1   3
BRANCH   1  11
ATOM     11  C   UNL     1       2.884   6.240  18.004  0.00  0.00    +0.000 C 
BRANCH  11  15
ATOM     12  C   UNL     1       0.845   2.925  19.886  0.00  0.00    +0.000 A 
ATOM     13  C   UNL     1       1.229   4.032  20.644  0.00  0.00    +0.000 A 
ATOM     14  C   UNL     1       1.895   5.099  20.038  0.00  0.00    +0.000 A 
ATOM     15  C   UNL     1       2.188   5.072  18.667  0.00  0.00    +0.000 A 
ATOM     16  C   UNL     1       1.797   3.951  17.916  0.00  0.00    +0.000 A 
ATOM     17  C   UNL     1       1.129   2.886  18.523  0.00  0.00    +0.000 A 
ENDBRANCH  11  15
ENDBRANCH   1  11
TORSDOF 3
ENDMDL
MODEL 2
REMARK VINA RESULT:      -6.7      1.687      2.771
REMARK  Name = 
REMARK  3 active torsions:
REMARK  status: ('A' for Active; 'I' for Inactive)
REMARK    1  A    between atoms: C_4  and  C_5
REMARK    2  A    between atoms: C_5  and  N_6
REMARK    3  A    between atoms: N_6  and  C_7
REMARK                            x       y       z     vdW  Elec       q    Type
REMARK                         _______ _______ _______ _____ _____    ______ ____
ROOT
ATOM      1  N   UNL     1       5.425   3.533  18.900  0.00  0.00    +0.000 NA
ATOM      2  H   UNL     1       5.913   2.695  19.214  0.00  0.00    +0.000 HD
ENDROOT
BRANCH   1   3
ATOM      3  C   UNL     1       6.366   4.472  18.253  0.00  0.00    +0.000 C 
ATOM      4  C   UNL     1       6.878   5.520  19.262  0.00  0.00    +0.000 C 
ATOM      5  C   UNL     1       7.910   6.521  18.746  0.00  0.00    +0.000 C 
ATOM      6  C   UNL     1       7.498   7.310  17.510  0.00  0.00    +0.000 C 
ATOM      7  N   UNL     1       7.606   6.506  16.304  0.00  0.00    +0.000 NA
ATOM      8  C   UNL     1       6.425   5.722  15.974  0.00  0.00    +0.000 C 
ATOM      9  C   UNL     1       5.579   5.136  17.108  0.00  0.00    +0.000 C 
ATOM     10  H   UNL     1       8.427   5.904  16.350  0.00  0.00    +0.000 HD
ENDBRANCH   1   3
BRANCH   1  11
ATOM     11  C   UNL     1       4.286   3.140  18.072  0.00  0.00    +0.000 C 
BRANCH  11  15
ATOM     12  C   UNL     1       0.590   3.348  20.304  0.00  0.00    +0.000 A 
ATOM     13  C   UNL     1       0.654   2.605  19.125  0.00  0.00    +0.000 A 
ATOM     14  C   UNL     1       1.845   2.545  18.400  0.00  0.00    +0.000 A 
ATOM     15  C   UNL     1       2.986   3.228  18.843  0.00  0.00    +0.000 A 
ATOM     16  C   UNL     1       2.908   3.973  20.031  0.00  0.00    +0.000 A 
ATOM     17  C   UNL     1       1.716   4.030  20.756  0.00  0.00    +0.000 A 
ENDBRANCH  11  15
ENDBRANCH   1  11
TORSDOF 3
ENDMDL
MODEL 3
REMARK VINA RESULT:      -6.7      0.568      1.329
REMARK  Name = 
REMARK  3 active torsions:
REMARK  status: ('A' for Active; 'I' for Inactive)
REMARK    1  A    between atoms: C_4  and  C_5
REMARK    2  A    between atoms: C_5  and  N_6
REMARK    3  A    between atoms: N_6  and  C_7
REMARK                            x       y       z     vdW  Elec       q    Type
REMARK                         _______ _______ _______ _____ _____    ______ ____
ROOT
ATOM      1  N   UNL     1       4.043   6.291  18.397  0.00  0.00    +0.000 NA
ATOM      2  H   UNL     1       4.226   6.033  19.367  0.00  0.00    +0.000 HD
ENDROOT
BRANCH   1   3
ATOM      3  C   UNL     1       5.196   5.944  17.541  0.00  0.00    +0.000 C 
ATOM      4  C   UNL     1       4.727   5.487  16.144  0.00  0.00    +0.000 C 
ATOM      5  C   UNL     1       5.818   5.155  15.128  0.00  0.00    +0.000 C 
ATOM      6  C   UNL     1       6.838   4.116  15.577  0.00  0.00    +0.000 C 
ATOM      7  N   UNL     1       7.805   4.684  16.501  0.00  0.00    +0.000 NA
ATOM      8  C   UNL     1       7.419   4.645  17.904  0.00  0.00    +0.000 C 
ATOM      9  C   UNL     1       5.944   4.815  18.276  0.00  0.00    +0.000 C 
ATOM     10  H   UNL     1       8.043   5.636  16.228  0.00  0.00    +0.000 HD
ENDBRANCH   1   3
BRANCH   1  11
ATOM     11  C   UNL     1       2.771   5.703  17.980  0.00  0.00    +0.000 C 
BRANCH  11  15
ATOM     12  C   UNL     1       1.275   2.953  20.960  0.00  0.00    +0.000 A 
ATOM     13  C   UNL     1       0.890   2.816  19.626  0.00  0.00    +0.000 A 
ATOM     14  C   UNL     1       1.367   3.710  18.665  0.00  0.00    +0.000 A 
ATOM     15  C   UNL     1       2.231   4.752  19.026  0.00  0.00    +0.000 A 
ATOM     16  C   UNL     1       2.610   4.879  20.372  0.00  0.00    +0.000 A 
ATOM     17  C   UNL     1       2.134   3.983  21.332  0.00  0.00    +0.000 A 
ENDBRANCH  11  15
ENDBRANCH   1  11
TORSDOF 3
ENDMDL
MODEL 4
REMARK VINA RESULT:      -6.6      2.030      5.768
REMARK  Name = 
REMARK  3 active torsions:
REMARK  status: ('A' for Active; 'I' for Inactive)
REMARK    1  A    between atoms: C_4  and  C_5
REMARK    2  A    between atoms: C_5  and  N_6
REMARK    3  A    between atoms: N_6  and  C_7
REMARK                            x       y       z     vdW  Elec       q    Type
REMARK                         _______ _______ _______ _____ _____    ______ ____
ROOT
ATOM      1  N   UNL     1       5.172   3.139  19.324  0.00  0.00    +0.000 NA
ATOM      2  H   UNL     1       5.814   2.878  20.071  0.00  0.00    +0.000 HD
ENDROOT
BRANCH   1   3
ATOM      3  C   UNL     1       3.772   2.895  19.732  0.00  0.00    +0.000 C 
ATOM      4  C   UNL     1       2.990   2.177  18.611  0.00  0.00    +0.000 C 
ATOM      5  C   UNL     1       1.542   1.803  18.919  0.00  0.00    +0.000 C 
ATOM      6  C   UNL     1       0.648   2.951  19.370  0.00  0.00    +0.000 C 
ATOM      7  N   UNL     1       0.900   3.308  20.757  0.00  0.00    +0.000 NA
ATOM      8  C   UNL     1       1.956   4.287  20.964  0.00  0.00    +0.000 C 
ATOM      9  C   UNL     1       3.172   4.280  20.033  0.00  0.00    +0.000 C 
ATOM     10  H   UNL     1       1.081   2.473  21.312  0.00  0.00    +0.000 HD
ENDBRANCH   1   3
BRANCH   1  11
ATOM     11  C   UNL     1       5.457   4.511  18.907  0.00  0.00    +0.000 C 
BRANCH  11  15
ATOM     12  C   UNL     1       6.508   4.648  14.716  0.00  0.00    +0.000 A 
ATOM     13  C   UNL     1       7.493   4.815  15.690  0.00  0.00    +0.000 A 
ATOM     14  C   UNL     1       7.152   4.779  17.044  0.00  0.00    +0.000 A 
ATOM     15  C   UNL     1       5.823   4.579  17.440  0.00  0.00    +0.000 A 
ATOM     16  C   UNL     1       4.841   4.414  16.449  0.00  0.00    +0.000 A 
ATOM     17  C   UNL     1       5.184   4.447  15.096  0.00  0.00    +0.000 A 
ENDBRANCH  11  15
ENDBRANCH   1  11
TORSDOF 3
ENDMDL
MODEL 5
REMARK VINA RESULT:      -6.6      2.032      5.822
REMARK  Name = 
REMARK  3 active torsions:
REMARK  status: ('A' for Active; 'I' for Inactive)
REMARK    1  A    between atoms: C_4  and  C_5
REMARK    2  A    between atoms: C_5  and  N_6
REMARK    3  A    between atoms: N_6  and  C_7
REMARK                            x       y       z     vdW  Elec       q    Type
REMARK                         _______ _______ _______ _____ _____    ______ ____
ROOT
ATOM      1  N   UNL     1       5.172   3.128  19.285  0.00  0.00    +0.000 NA
ATOM      2  H   UNL     1       5.825   2.871  20.025  0.00  0.00    +0.000 HD
ENDROOT
BRANCH   1   3
ATOM      3  C   UNL     1       3.778   2.907  19.723  0.00  0.00    +0.000 C 
ATOM      4  C   UNL     1       2.972   2.163  18.637  0.00  0.00    +0.000 C 
ATOM      5  C   UNL     1       1.526   1.810  18.979  0.00  0.00    +0.000 C 
ATOM      6  C   UNL     1       0.649   2.979  19.410  0.00  0.00    +0.000 C 
ATOM      7  N   UNL     1       0.926   3.375  20.781  0.00  0.00    +0.000 NA
ATOM      8  C   UNL     1       1.992   4.352  20.941  0.00  0.00    +0.000 C 
ATOM      9  C   UNL     1       3.193   4.307  19.992  0.00  0.00    +0.000 C 
ATOM     10  H   UNL     1       1.109   2.556  21.358  0.00  0.00    +0.000 HD
ENDBRANCH   1   3
BRANCH   1  11
ATOM     11  C   UNL     1       5.467   4.490  18.841  0.00  0.00    +0.000 C 
BRANCH  11  15
ATOM     12  C   UNL     1       6.475   4.649  14.640  0.00  0.00    +0.000 A 
ATOM     13  C   UNL     1       5.160   4.398  15.035  0.00  0.00    +0.000 A 
ATOM     14  C   UNL     1       4.837   4.338  16.392  0.00  0.00    +0.000 A 
ATOM     15  C   UNL     1       5.822   4.526  17.370  0.00  0.00    +0.000 A 
ATOM     16  C   UNL     1       7.142   4.777  16.959  0.00  0.00    +0.000 A 
ATOM     17  C   UNL     1       7.464   4.838  15.602  0.00  0.00    +0.000 A 
ENDBRANCH  11  15
ENDBRANCH   1  11
TORSDOF 3
ENDMDL
MODEL 6
REMARK VINA RESULT:      -6.5      2.088      5.935
REMARK  Name = 
REMARK  3 active torsions:
REMARK  status: ('A' for Active; 'I' for Inactive)
REMARK    1  A    between atoms: C_4  and  C_5
REMARK    2  A    between atoms: C_5  and  N_6
REMARK    3  A    between atoms: N_6  and  C_7
REMARK                            x       y       z     vdW  Elec       q    Type
REMARK                         _______ _______ _______ _____ _____    ______ ____
ROOT
ATOM      1  N   UNL     1       4.383   3.103  17.595  0.00  0.00    +0.000 NA
ATOM      2  H   UNL     1       5.190   2.929  18.194  0.00  0.00    +0.000 HD
ENDROOT
BRANCH   1   3
ATOM      3  C   UNL     1       3.190   3.419  18.408  0.00  0.00    +0.000 C 
ATOM      4  C   UNL     1       3.596   3.916  19.812  0.00  0.00    +0.000 C 
ATOM      5  C   UNL     1       2.463   4.342  20.743  0.00  0.00    +0.000 C 
ATOM      6  C   UNL     1       1.380   3.296  20.978  0.00  0.00    +0.000 C 
ATOM      7  N   UNL     1       0.476   3.203  19.843  0.00  0.00    +0.000 NA
ATOM      8  C   UNL     1       0.887   2.278  18.797  0.00  0.00    +0.000 C 
ATOM      9  C   UNL     1       2.378   2.113  18.493  0.00  0.00    +0.000 C 
ATOM     10  H   UNL     1       0.302   4.126  19.449  0.00  0.00    +0.000 HD
ENDBRANCH   1   3
BRANCH   1  11
ATOM     11  C   UNL     1       4.734   4.118  16.603  0.00  0.00    +0.000 C 
BRANCH  11  15
ATOM     12  C   UNL     1       7.695   6.852  18.167  0.00  0.00    +0.000 A 
ATOM     13  C   UNL     1       6.728   7.307  17.270  0.00  0.00    +0.000 A 
ATOM     14  C   UNL     1       5.777   6.421  16.759  0.00  0.00    +0.000 A 
ATOM     15  C   UNL     1       5.783   5.071  17.135  0.00  0.00    +0.000 A 
ATOM     16  C   UNL     1       6.763   4.626  18.037  0.00  0.00    +0.000 A 
ATOM     17  C   UNL     1       7.712   5.513  18.549  0.00  0.00    +0.000 A 
ENDBRANCH  11  15
ENDBRANCH   1  11
TORSDOF 3
ENDMDL
MODEL 7
REMARK VINA RESULT:      -6.5      1.129      1.762
REMARK  Name = 
REMARK  3 active torsions:
REMARK  status: ('A' for Active; 'I' for Inactive)
REMARK    1  A    between atoms: C_4  and  C_5
REMARK    2  A    between atoms: C_5  and  N_6
REMARK    3  A    between atoms: N_6  and  C_7
REMARK                            x       y       z     vdW  Elec       q    Type
REMARK                         _______ _______ _______ _____ _____    ______ ____
ROOT
ATOM      1  N   UNL     1       3.180   6.096  17.727  0.00  0.00    +0.000 NA
ATOM      2  H   UNL     1       2.772   7.001  17.496  0.00  0.00    +0.000 HD
ENDROOT
BRANCH   1   3
ATOM      3  C   UNL     1       4.432   5.881  16.971  0.00  0.00    +0.000 C 
ATOM      4  C   UNL     1       4.578   4.401  16.557  0.00  0.00    +0.000 C 
ATOM      5  C   UNL     1       5.799   4.043  15.712  0.00  0.00    +0.000 C 
ATOM      6  C   UNL     1       7.146   4.437  16.306  0.00  0.00    +0.000 C 
ATOM      7  N   UNL     1       7.398   5.860  16.153  0.00  0.00    +0.000 NA
ATOM      8  C   UNL     1       6.886   6.700  17.225  0.00  0.00    +0.000 C 
ATOM      9  C   UNL     1       5.573   6.314  17.911  0.00  0.00    +0.000 C 
ATOM     10  H   UNL     1       7.054   6.189  15.253  0.00  0.00    +0.000 HD
ENDBRANCH   1   3
BRANCH   1  11
ATOM     11  C   UNL     1       3.315   5.990  19.179  0.00  0.00    +0.000 C 
BRANCH  11  15
ATOM     12  C   UNL     1       1.083   2.628  20.728  0.00  0.00    +0.000 A 
ATOM     13  C   UNL     1       0.981   2.974  19.380  0.00  0.00    +0.000 A 
ATOM     14  C   UNL     1       1.695   4.066  18.882  0.00  0.00    +0.000 A 
ATOM     15  C   UNL     1       2.518   4.825  19.724  0.00  0.00    +0.000 A 
ATOM     16  C   UNL     1       2.611   4.466  21.079  0.00  0.00    +0.000 A 
ATOM     17  C   UNL     1       1.898   3.374  21.576  0.00  0.00    +0.000 A 
ENDBRANCH  11  15
ENDBRANCH   1  11
TORSDOF 3
ENDMDL
MODEL 8
REMARK VINA RESULT:      -6.5      1.711      2.591
REMARK  Name = 
REMARK  3 active torsions:
REMARK  status: ('A' for Active; 'I' for Inactive)
REMARK    1  A    between atoms: C_4  and  C_5
REMARK    2  A    between atoms: C_5  and  N_6
REMARK    3  A    between atoms: N_6  and  C_7
REMARK                            x       y       z     vdW  Elec       q    Type
REMARK                         _______ _______ _______ _____ _____    ______ ____
ROOT
ATOM      1  N   UNL     1       4.808   3.050  17.725  0.00  0.00    +0.000 NA
ATOM      2  H   UNL     1       4.893   2.244  17.107  0.00  0.00    +0.000 HD
ENDROOT
BRANCH   1   3
ATOM      3  C   UNL     1       5.865   4.042  17.437  0.00  0.00    +0.000 C 
ATOM      4  C   UNL     1       6.163   4.905  18.681  0.00  0.00    +0.000 C 
ATOM      5  C   UNL     1       7.283   5.935  18.547  0.00  0.00    +0.000 C 
ATOM      6  C   UNL     1       7.137   6.918  17.392  0.00  0.00    +0.000 C 
ATOM      7  N   UNL     1       7.486   6.303  16.123  0.00  0.00    +0.000 NA
ATOM      8  C   UNL     1       6.396   5.622  15.442  0.00  0.00    +0.000 C 
ATOM      9  C   UNL     1       5.333   4.901  16.275  0.00  0.00    +0.000 C 
ATOM     10  H   UNL     1       8.278   5.673  16.238  0.00  0.00    +0.000 HD
ENDBRANCH   1   3
BRANCH   1  11
ATOM     11  C   UNL     1       3.443   3.569  17.646  0.00  0.00    +0.000 C 
BRANCH  11  15
ATOM     12  C   UNL     1       1.372   3.146  21.417  0.00  0.00    +0.000 A 
ATOM     13  C   UNL     1       0.743   3.772  20.340  0.00  0.00    +0.000 A 
ATOM     14  C   UNL     1       1.416   3.916  19.125  0.00  0.00    +0.000 A 
ATOM     15  C   UNL     1       2.725   3.438  18.972  0.00  0.00    +0.000 A 
ATOM     16  C   UNL     1       3.346   2.812  20.065  0.00  0.00    +0.000 A 
ATOM     17  C   UNL     1       2.672   2.667  21.278  0.00  0.00    +0.000 A 
ENDBRANCH  11  15
ENDBRANCH   1  11
TORSDOF 3
ENDMDL
MODEL 9
REMARK VINA RESULT:      -6.5      1.699      2.561
REMARK  Name = 
REMARK  3 active torsions:
REMARK  status: ('A' for Active; 'I' for Inactive)
REMARK    1  A    between atoms: C_4  and  C_5
REMARK    2  A    between atoms: C_5  and  N_6
REMARK    3  A    between atoms: N_6  and  C_7
REMARK                            x       y       z     vdW  Elec       q    Type
REMARK                         _______ _______ _______ _____ _____    ______ ____
ROOT
ATOM      1  N   UNL     1       4.805   3.002  17.728  0.00  0.00    +0.000 NA
ATOM      2  H   UNL     1       4.910   2.185  17.128  0.00  0.00    +0.000 HD
ENDROOT
BRANCH   1   3
ATOM      3  C   UNL     1       5.850   4.004  17.428  0.00  0.00    +0.000 C 
ATOM      4  C   UNL     1       6.156   4.868  18.670  0.00  0.00    +0.000 C 
ATOM      5  C   UNL     1       7.265   5.908  18.525  0.00  0.00    +0.000 C 
ATOM      6  C   UNL     1       7.096   6.892  17.374  0.00  0.00    +0.000 C 
ATOM      7  N   UNL     1       7.435   6.282  16.099  0.00  0.00    +0.000 NA
ATOM      8  C   UNL     1       6.342   5.592  15.430  0.00  0.00    +0.000 C 
ATOM      9  C   UNL     1       5.296   4.861  16.275  0.00  0.00    +0.000 C 
ATOM     10  H   UNL     1       8.234   5.659  16.203  0.00  0.00    +0.000 HD
ENDBRANCH   1   3
BRANCH   1  11
ATOM     11  C   UNL     1       3.434   3.498  17.625  0.00  0.00    +0.000 C 
BRANCH  11  15
ATOM     12  C   UNL     1       1.385   3.255  21.424  0.00  0.00    +0.000 A 
ATOM     13  C   UNL     1       2.620   2.628  21.253  0.00  0.00    +0.000 A 
ATOM     14  C   UNL     1       3.277   2.700  20.023  0.00  0.00    +0.000 A 
ATOM     15  C   UNL     1       2.708   3.396  18.949  0.00  0.00    +0.000 A 
ATOM     16  C   UNL     1       1.464   4.022  19.133  0.00  0.00    +0.000 A 
ATOM     17  C   UNL     1       0.809   3.951  20.364  0.00  0.00    +0.000 A 
ENDBRANCH  11  15
ENDBRANCH   1  11
TORSDOF 3
ENDMDL
