MODEL 1
REMARK VINA RESULT:      -7.2      0.000      0.000
REMARK  Name = 
REMARK  10 active torsions:
REMARK  status: ('A' for Active; 'I' for Inactive)
REMARK    1  A    between atoms: C_1  and  C_2
REMARK    2  A    between atoms: C_2  and  C_3
REMARK    3  A    between atoms: C_2  and  O_4
REMARK    4  A    between atoms: O_4  and  C_5
REMARK    5  A    between atoms: C_5  and  C_6
REMARK    6  A    between atoms: C_6  and  C_7
REMARK    7  A    between atoms: C_7  and  N_8
REMARK    8  A    between atoms: C_9  and  C_11
REMARK    9  A    between atoms: C_11  and  O_12
REMARK   10  A    between atoms: O_12  and  C_13
REMARK                            x       y       z     vdW  Elec       q    Type
REMARK                         _______ _______ _______ _____ _____    ______ ____
ROOT
ATOM      1  O   UNL     1       2.676   5.404  20.160  0.00  0.00    +0.000 OA
ENDROOT
BRANCH   1   2
ATOM      2  C   UNL     1       2.231   6.651  19.800  0.00  0.00    +0.000 A 
ATOM      3  C   UNL     1       2.468   7.271  18.568  0.00  0.00    +0.000 A 
ATOM      4  C   UNL     1       1.977   8.556  18.291  0.00  0.00    +0.000 A 
ATOM      5  C   UNL     1       1.248   9.178  19.300  0.00  0.00    +0.000 A 
ATOM      6  O   UNL     1       0.680  10.418  19.218  0.00  0.00    +0.000 OA
ATOM      7  C   UNL     1       0.064  10.623  20.404  0.00  0.00    +0.000 A 
ATOM      8  C   UNL     1       0.236   9.558  21.260  0.00  0.00    +0.000 A 
ATOM      9  C   UNL     1       0.999   8.602  20.543  0.00  0.00    +0.000 A 
ATOM     10  C   UNL     1       1.500   7.313  20.799  0.00  0.00    +0.000 A 
ATOM     11  C   UNL     1      -0.349   9.542  22.626  0.00  0.00    +0.000 C 
ATOM     12  C   UNL     1      -0.781  10.962  23.053  0.00  0.00    +0.000 C 
ATOM     13  C   UNL     1      -1.528  11.711  21.928  0.00  0.00    +0.000 C 
ATOM     14  C   UNL     1      -0.661  11.886  20.663  0.00  0.00    +0.000 C 
ENDBRANCH   1   2
BRANCH   1  15
ATOM     15  C   UNL     1       3.196   4.592  19.116  0.00  0.00    +0.000 C 
BRANCH  15  17
ATOM     16  N   UNL     1       5.482   5.449  19.192  0.00  0.00    +0.000 N 
ATOM     17  C   UNL     1       4.677   4.340  19.370  0.00  0.00    +0.000 C 
ATOM     18  O   UNL     1       5.106   3.235  19.688  0.00  0.00    +0.000 OA
ATOM     19  H   UNL     1       5.052   6.342  18.991  0.00  0.00    +0.000 HD
BRANCH  16  20
ATOM     20  C   UNL     1       6.915   5.389  19.405  0.00  0.00    +0.000 C 
BRANCH  20  21
ATOM     21  C   UNL     1       7.660   6.384  18.519  0.00  0.00    +0.000 C 
BRANCH  21  22
ATOM     22  C   UNL     1       7.437   6.098  17.037  0.00  0.00    +0.000 C 
BRANCH  22  23
ATOM     23  O   UNL     1       6.966   4.762  16.883  0.00  0.00    +0.000 OA
BRANCH  23  25
ATOM     24  C   UNL     1       5.304   5.971  15.692  0.00  0.00    +0.000 C 
ATOM     25  C   UNL     1       5.948   4.603  15.893  0.00  0.00    +0.000 C 
ATOM     26  C   UNL     1       6.519   4.101  14.570  0.00  0.00    +0.000 C 
ENDBRANCH  23  25
ENDBRANCH  22  23
ENDBRANCH  21  22
ENDBRANCH  20  21
ENDBRANCH  16  20
ENDBRANCH  15  17
ENDBRANCH   1  15
TORSDOF 8
ENDMDL
MODEL 2
REMARK VINA RESULT:      -7.1      3.574      8.073
REMARK  Name = 
REMARK  10 active torsions:
REMARK  status: ('A' for Active; 'I' for Inactive)
REMARK    1  A    between atoms: C_1  and  C_2
REMARK    2  A    between atoms: C_2  and  C_3
REMARK    3  A    between atoms: C_2  and  O_4
REMARK    4  A    between atoms: O_4  and  C_5
REMARK    5  A    between atoms: C_5  and  C_6
REMARK    6  A    between atoms: C_6  and  C_7
REMARK    7  A    between atoms: C_7  and  N_8
REMARK    8  A    between atoms: C_9  and  C_11
REMARK    9  A    between atoms: C_11  and  O_12
REMARK   10  A    between atoms: O_12  and  C_13
REMARK                            x       y       z     vdW  Elec       q    Type
REMARK                         _______ _______ _______ _____ _____    ______ ____
ROOT
ATOM      1  O   UNL     1       5.148   3.998  19.502  0.00  0.00    +0.000 OA
ENDROOT
BRANCH   1   2
ATOM      2  C   UNL     1       5.876   4.522  18.465  0.00  0.00    +0.000 A 
ATOM      3  C   UNL     1       6.851   5.519  18.582  0.00  0.00    +0.000 A 
ATOM      4  C   UNL     1       7.542   6.000  17.460  0.00  0.00    +0.000 A 
ATOM      5  C   UNL     1       7.209   5.438  16.232  0.00  0.00    +0.000 A 
ATOM      6  O   UNL     1       7.776   5.763  15.033  0.00  0.00    +0.000 OA
ATOM      7  C   UNL     1       7.173   4.978  14.111  0.00  0.00    +0.000 A 
ATOM      8  C   UNL     1       6.214   4.169  14.680  0.00  0.00    +0.000 A 
ATOM      9  C   UNL     1       6.238   4.453  16.068  0.00  0.00    +0.000 A 
ATOM     10  C   UNL     1       5.558   3.985  17.207  0.00  0.00    +0.000 A 
ATOM     11  C   UNL     1       5.412   3.211  13.875  0.00  0.00    +0.000 C 
ATOM     12  C   UNL     1       5.514   3.543  12.370  0.00  0.00    +0.000 C 
ATOM     13  C   UNL     1       6.962   3.857  11.935  0.00  0.00    +0.000 C 
ATOM     14  C   UNL     1       7.549   5.071  12.684  0.00  0.00    +0.000 C 
ENDBRANCH   1   2
BRANCH   1  15
ATOM     15  C   UNL     1       4.961   2.589  19.497  0.00  0.00    +0.000 C 
BRANCH  15  17
ATOM     16  N   UNL     1       2.977   2.857  20.896  0.00  0.00    +0.000 N 
ATOM     17  C   UNL     1       3.491   2.280  19.750  0.00  0.00    +0.000 C 
ATOM     18  O   UNL     1       2.835   1.562  19.000  0.00  0.00    +0.000 OA
ATOM     19  H   UNL     1       3.557   3.487  21.433  0.00  0.00    +0.000 HD
BRANCH  16  20
ATOM     20  C   UNL     1       1.590   2.676  21.280  0.00  0.00    +0.000 C 
BRANCH  20  21
ATOM     21  C   UNL     1       0.657   3.564  20.461  0.00  0.00    +0.000 C 
BRANCH  21  22
ATOM     22  C   UNL     1       1.046   5.036  20.559  0.00  0.00    +0.000 C 
BRANCH  22  23
ATOM     23  O   UNL     1       2.215   5.265  19.778  0.00  0.00    +0.000 OA
BRANCH  23  25
ATOM     24  C   UNL     1       3.033   6.778  18.139  0.00  0.00    +0.000 C 
ATOM     25  C   UNL     1       1.962   5.738  18.453  0.00  0.00    +0.000 C 
ATOM     26  C   UNL     1       2.021   4.609  17.429  0.00  0.00    +0.000 C 
ENDBRANCH  23  25
ENDBRANCH  22  23
ENDBRANCH  21  22
ENDBRANCH  20  21
ENDBRANCH  16  20
ENDBRANCH  15  17
ENDBRANCH   1  15
TORSDOF 8
ENDMDL
MODEL 3
REMARK VINA RESULT:      -7.0      0.882      1.815
REMARK  Name = 
REMARK  10 active torsions:
REMARK  status: ('A' for Active; 'I' for Inactive)
REMARK    1  A    between atoms: C_1  and  C_2
REMARK    2  A    between atoms: C_2  and  C_3
REMARK    3  A    between atoms: C_2  and  O_4
REMARK    4  A    between atoms: O_4  and  C_5
REMARK    5  A    between atoms: C_5  and  C_6
REMARK    6  A    between atoms: C_6  and  C_7
REMARK    7  A    between atoms: C_7  and  N_8
REMARK    8  A    between atoms: C_9  and  C_11
REMARK    9  A    between atoms: C_11  and  O_12
REMARK   10  A    between atoms: O_12  and  C_13
REMARK                            x       y       z     vdW  Elec       q    Type
REMARK                         _______ _______ _______ _____ _____    ______ ____
ROOT
ATOM      1  O   UNL     1       2.688   5.603  19.724  0.00  0.00    +0.000 OA
ENDROOT
BRANCH   1   2
ATOM      2  C   UNL     1       2.255   6.884  19.493  0.00  0.00    +0.000 A 
ATOM      3  C   UNL     1       2.526   7.637  18.345  0.00  0.00    +0.000 A 
ATOM      4  C   UNL     1       2.046   8.946  18.199  0.00  0.00    +0.000 A 
ATOM      5  C   UNL     1       1.290   9.455  19.250  0.00  0.00    +0.000 A 
ATOM      6  O   UNL     1       0.726  10.699  19.291  0.00  0.00    +0.000 OA
ATOM      7  C   UNL     1       0.077  10.775  20.476  0.00  0.00    +0.000 A 
ATOM      8  C   UNL     1       0.225   9.620  21.212  0.00  0.00    +0.000 A 
ATOM      9  C   UNL     1       1.006   8.747  20.415  0.00  0.00    +0.000 A 
ATOM     10  C   UNL     1       1.498   7.435  20.540  0.00  0.00    +0.000 A 
ATOM     11  C   UNL     1      -0.398   9.455  22.552  0.00  0.00    +0.000 C 
ATOM     12  C   UNL     1      -0.840  10.821  23.121  0.00  0.00    +0.000 C 
ATOM     13  C   UNL     1      -1.554  11.693  22.067  0.00  0.00    +0.000 C 
ATOM     14  C   UNL     1      -0.652  12.004  20.853  0.00  0.00    +0.000 C 
ENDBRANCH   1   2
BRANCH   1  15
ATOM     15  C   UNL     1       4.094   5.400  19.724  0.00  0.00    +0.000 C 
BRANCH  15  17
ATOM     16  N   UNL     1       4.454   4.629  17.434  0.00  0.00    +0.000 N 
ATOM     17  C   UNL     1       4.434   4.265  18.767  0.00  0.00    +0.000 C 
ATOM     18  O   UNL     1       4.650   3.122  19.160  0.00  0.00    +0.000 OA
ATOM     19  H   UNL     1       4.328   5.602  17.188  0.00  0.00    +0.000 HD
BRANCH  16  20
ATOM     20  C   UNL     1       4.773   3.674  16.390  0.00  0.00    +0.000 C 
BRANCH  20  21
ATOM     21  C   UNL     1       5.928   4.156  15.517  0.00  0.00    +0.000 C 
BRANCH  21  22
ATOM     22  C   UNL     1       7.145   4.544  16.352  0.00  0.00    +0.000 C 
BRANCH  22  23
ATOM     23  O   UNL     1       7.474   5.907  16.096  0.00  0.00    +0.000 OA
BRANCH  23  25
ATOM     24  C   UNL     1       6.161   7.473  17.308  0.00  0.00    +0.000 C 
ATOM     25  C   UNL     1       7.499   6.739  17.258  0.00  0.00    +0.000 C 
ATOM     26  C   UNL     1       7.690   5.924  18.533  0.00  0.00    +0.000 C 
ENDBRANCH  23  25
ENDBRANCH  22  23
ENDBRANCH  21  22
ENDBRANCH  20  21
ENDBRANCH  16  20
ENDBRANCH  15  17
ENDBRANCH   1  15
TORSDOF 8
ENDMDL
MODEL 4
REMARK VINA RESULT:      -7.0      2.786      8.177
REMARK  Name = 
REMARK  10 active torsions:
REMARK  status: ('A' for Active; 'I' for Inactive)
REMARK    1  A    between atoms: C_1  and  C_2
REMARK    2  A    between atoms: C_2  and  C_3
REMARK    3  A    between atoms: C_2  and  O_4
REMARK    4  A    between atoms: O_4  and  C_5
REMARK    5  A    between atoms: C_5  and  C_6
REMARK    6  A    between atoms: C_6  and  C_7
REMARK    7  A    between atoms: C_7  and  N_8
REMARK    8  A    between atoms: C_9  and  C_11
REMARK    9  A    between atoms: C_11  and  O_12
REMARK   10  A    between atoms: O_12  and  C_13
REMARK                            x       y       z     vdW  Elec       q    Type
REMARK                         _______ _______ _______ _____ _____    ______ ____
ROOT
ATOM      1  O   UNL     1       4.797   3.638  19.164  0.00  0.00    +0.000 OA
ENDROOT
BRANCH   1   2
ATOM      2  C   UNL     1       5.599   4.233  18.224  0.00  0.00    +0.000 A 
ATOM      3  C   UNL     1       6.560   5.216  18.485  0.00  0.00    +0.000 A 
ATOM      4  C   UNL     1       7.331   5.775  17.455  0.00  0.00    +0.000 A 
ATOM      5  C   UNL     1       7.092   5.304  16.169  0.00  0.00    +0.000 A 
ATOM      6  O   UNL     1       7.746   5.713  15.041  0.00  0.00    +0.000 OA
ATOM      7  C   UNL     1       7.215   4.997  14.023  0.00  0.00    +0.000 A 
ATOM      8  C   UNL     1       6.219   4.152  14.460  0.00  0.00    +0.000 A 
ATOM      9  C   UNL     1       6.139   4.336  15.863  0.00  0.00    +0.000 A 
ATOM     10  C   UNL     1       5.377   3.789  16.911  0.00  0.00    +0.000 A 
ATOM     11  C   UNL     1       5.481   3.256  13.531  0.00  0.00    +0.000 C 
ATOM     12  C   UNL     1       5.694   3.695  12.065  0.00  0.00    +0.000 C 
ATOM     13  C   UNL     1       7.169   4.036  11.763  0.00  0.00    +0.000 C 
ATOM     14  C   UNL     1       7.696   5.192  12.639  0.00  0.00    +0.000 C 
ENDBRANCH   1   2
BRANCH   1  15
ATOM     15  C   UNL     1       3.930   2.612  18.700  0.00  0.00    +0.000 C 
BRANCH  15  17
ATOM     16  N   UNL     1       2.396   4.027  19.970  0.00  0.00    +0.000 N 
ATOM     17  C   UNL     1       2.533   2.849  19.260  0.00  0.00    +0.000 C 
ATOM     18  O   UNL     1       1.620   2.043  19.102  0.00  0.00    +0.000 OA
ATOM     19  H   UNL     1       3.174   4.673  20.007  0.00  0.00    +0.000 HD
BRANCH  16  20
ATOM     20  C   UNL     1       1.130   4.415  20.561  0.00  0.00    +0.000 C 
BRANCH  20  21
ATOM     21  C   UNL     1       1.052   5.922  20.791  0.00  0.00    +0.000 C 
BRANCH  21  22
ATOM     22  C   UNL     1       2.289   6.640  20.259  0.00  0.00    +0.000 C 
BRANCH  22  23
ATOM     23  O   UNL     1       1.910   7.920  19.761  0.00  0.00    +0.000 OA
BRANCH  23  25
ATOM     24  C   UNL     1       3.019   6.979  17.883  0.00  0.00    +0.000 C 
ATOM     25  C   UNL     1       2.507   8.272  18.512  0.00  0.00    +0.000 C 
ATOM     26  C   UNL     1       1.507   8.942  17.576  0.00  0.00    +0.000 C 
ENDBRANCH  23  25
ENDBRANCH  22  23
ENDBRANCH  21  22
ENDBRANCH  20  21
ENDBRANCH  16  20
ENDBRANCH  15  17
ENDBRANCH   1  15
TORSDOF 8
ENDMDL
MODEL 5
REMARK VINA RESULT:      -7.0      1.209      2.120
REMARK  Name = 
REMARK  10 active torsions:
REMARK  status: ('A' for Active; 'I' for Inactive)
REMARK    1  A    between atoms: C_1  and  C_2
REMARK    2  A    between atoms: C_2  and  C_3
REMARK    3  A    between atoms: C_2  and  O_4
REMARK    4  A    between atoms: O_4  and  C_5
REMARK    5  A    between atoms: C_5  and  C_6
REMARK    6  A    between atoms: C_6  and  C_7
REMARK    7  A    between atoms: C_7  and  N_8
REMARK    8  A    between atoms: C_9  and  C_11
REMARK    9  A    between atoms: C_11  and  O_12
REMARK   10  A    between atoms: O_12  and  C_13
REMARK                            x       y       z     vdW  Elec       q    Type
REMARK                         _______ _______ _______ _____ _____    ______ ____
ROOT
ATOM      1  O   UNL     1       3.097   5.507  19.324  0.00  0.00    +0.000 OA
ENDROOT
BRANCH   1   2
ATOM      2  C   UNL     1       2.581   6.767  19.163  0.00  0.00    +0.000 A 
ATOM      3  C   UNL     1       2.747   7.572  18.030  0.00  0.00    +0.000 A 
ATOM      4  C   UNL     1       2.186   8.856  17.957  0.00  0.00    +0.000 A 
ATOM      5  C   UNL     1       1.461   9.285  19.064  0.00  0.00    +0.000 A 
ATOM      6  O   UNL     1       0.832  10.492  19.179  0.00  0.00    +0.000 OA
ATOM      7  C   UNL     1       0.245  10.491  20.398  0.00  0.00    +0.000 A 
ATOM      8  C   UNL     1       0.497   9.323  21.083  0.00  0.00    +0.000 A 
ATOM      9  C   UNL     1       1.281   8.523  20.215  0.00  0.00    +0.000 A 
ATOM     10  C   UNL     1       1.852   7.238  20.266  0.00  0.00    +0.000 A 
ATOM     11  C   UNL     1      -0.042   9.077  22.447  0.00  0.00    +0.000 C 
ATOM     12  C   UNL     1      -0.528  10.396  23.088  0.00  0.00    +0.000 C 
ATOM     13  C   UNL     1      -1.346  11.260  22.104  0.00  0.00    +0.000 C 
ATOM     14  C   UNL     1      -0.530  11.663  20.857  0.00  0.00    +0.000 C 
ENDBRANCH   1   2
BRANCH   1  15
ATOM     15  C   UNL     1       2.337   4.437  18.779  0.00  0.00    +0.000 C 
BRANCH  15  17
ATOM     16  N   UNL     1       4.058   4.231  17.059  0.00  0.00    +0.000 N 
ATOM     17  C   UNL     1       3.253   3.547  17.949  0.00  0.00    +0.000 C 
ATOM     18  O   UNL     1       3.251   2.324  18.060  0.00  0.00    +0.000 OA
ATOM     19  H   UNL     1       4.052   5.242  17.066  0.00  0.00    +0.000 HD
BRANCH  16  20
ATOM     20  C   UNL     1       5.000   3.538  16.200  0.00  0.00    +0.000 C 
BRANCH  20  21
ATOM     21  C   UNL     1       5.633   4.482  15.181  0.00  0.00    +0.000 C 
BRANCH  21  22
ATOM     22  C   UNL     1       6.687   5.381  15.819  0.00  0.00    +0.000 C 
BRANCH  22  23
ATOM     23  O   UNL     1       6.042   6.331  16.663  0.00  0.00    +0.000 OA
BRANCH  23  25
ATOM     24  C   UNL     1       7.591   5.441  18.229  0.00  0.00    +0.000 C 
ATOM     25  C   UNL     1       6.775   6.671  17.842  0.00  0.00    +0.000 C 
ATOM     26  C   UNL     1       7.706   7.857  17.608  0.00  0.00    +0.000 C 
ENDBRANCH  23  25
ENDBRANCH  22  23
ENDBRANCH  21  22
ENDBRANCH  20  21
ENDBRANCH  16  20
ENDBRANCH  15  17
ENDBRANCH   1  15
TORSDOF 8
ENDMDL
MODEL 6
REMARK VINA RESULT:      -7.0      1.624      8.710
REMARK  Name = 
REMARK  10 active torsions:
REMARK  status: ('A' for Active; 'I' for Inactive)
REMARK    1  A    between atoms: C_1  and  C_2
REMARK    2  A    between atoms: C_2  and  C_3
REMARK    3  A    between atoms: C_2  and  O_4
REMARK    4  A    between atoms: O_4  and  C_5
REMARK    5  A    between atoms: C_5  and  C_6
REMARK    6  A    between atoms: C_6  and  C_7
REMARK    7  A    between atoms: C_7  and  N_8
REMARK    8  A    between atoms: C_9  and  C_11
REMARK    9  A    between atoms: C_11  and  O_12
REMARK   10  A    between atoms: O_12  and  C_13
REMARK                            x       y       z     vdW  Elec       q    Type
REMARK                         _______ _______ _______ _____ _____    ______ ____
ROOT
ATOM      1  O   UNL     1       4.201   4.234  19.049  0.00  0.00    +0.000 OA
ENDROOT
BRANCH   1   2
ATOM      2  C   UNL     1       5.142   4.657  18.146  0.00  0.00    +0.000 A 
ATOM      3  C   UNL     1       6.210   5.516  18.430  0.00  0.00    +0.000 A 
ATOM      4  C   UNL     1       7.122   5.902  17.437  0.00  0.00    +0.000 A 
ATOM      5  C   UNL     1       6.911   5.388  16.161  0.00  0.00    +0.000 A 
ATOM      6  O   UNL     1       7.693   5.635  15.069  0.00  0.00    +0.000 OA
ATOM      7  C   UNL     1       7.142   4.936  14.051  0.00  0.00    +0.000 A 
ATOM      8  C   UNL     1       6.010   4.260  14.451  0.00  0.00    +0.000 A 
ATOM      9  C   UNL     1       5.857   4.540  15.832  0.00  0.00    +0.000 A 
ATOM     10  C   UNL     1       4.954   4.166  16.844  0.00  0.00    +0.000 A 
ATOM     11  C   UNL     1       5.223   3.417  13.514  0.00  0.00    +0.000 C 
ATOM     12  C   UNL     1       5.598   3.731  12.049  0.00  0.00    +0.000 C 
ATOM     13  C   UNL     1       7.123   3.851  11.846  0.00  0.00    +0.000 C 
ATOM     14  C   UNL     1       7.742   4.978  12.700  0.00  0.00    +0.000 C 
ENDBRANCH   1   2
BRANCH   1  15
ATOM     15  C   UNL     1       3.452   5.248  19.705  0.00  0.00    +0.000 C 
BRANCH  15  17
ATOM     16  N   UNL     1       2.799   7.341  18.630  0.00  0.00    +0.000 N 
ATOM     17  C   UNL     1       2.593   5.976  18.678  0.00  0.00    +0.000 C 
ATOM     18  O   UNL     1       1.778   5.388  17.973  0.00  0.00    +0.000 OA
ATOM     19  H   UNL     1       3.531   7.750  19.196  0.00  0.00    +0.000 HD
BRANCH  16  20
ATOM     20  C   UNL     1       2.074   8.186  17.700  0.00  0.00    +0.000 C 
BRANCH  20  21
ATOM     21  C   UNL     1       1.775   9.557  18.298  0.00  0.00    +0.000 C 
BRANCH  21  22
ATOM     22  C   UNL     1       0.628   9.498  19.304  0.00  0.00    +0.000 C 
BRANCH  22  23
ATOM     23  O   UNL     1       1.160   9.294  20.610  0.00  0.00    +0.000 OA
BRANCH  23  25
ATOM     24  C   UNL     1      -0.386  11.070  20.919  0.00  0.00    +0.000 C 
ATOM     25  C   UNL     1       0.607  10.144  21.616  0.00  0.00    +0.000 C 
ATOM     26  C   UNL     1      -0.106   9.344  22.702  0.00  0.00    +0.000 C 
ENDBRANCH  23  25
ENDBRANCH  22  23
ENDBRANCH  21  22
ENDBRANCH  20  21
ENDBRANCH  16  20
ENDBRANCH  15  17
ENDBRANCH   1  15
TORSDOF 8
ENDMDL
MODEL 7
REMARK VINA RESULT:      -6.9      4.581      7.300
REMARK  Name = 
REMARK  10 active torsions:
REMARK  status: ('A' for Active; 'I' for Inactive)
REMARK    1  A    between atoms: C_1  and  C_2
REMARK    2  A    between atoms: C_2  and  C_3
REMARK    3  A    between atoms: C_2  and  O_4
REMARK    4  A    between atoms: O_4  and  C_5
REMARK    5  A    between atoms: C_5  and  C_6
REMARK    6  A    between atoms: C_6  and  C_7
REMARK    7  A    between atoms: C_7  and  N_8
REMARK    8  A    between atoms: C_9  and  C_11
REMARK    9  A    between atoms: C_11  and  O_12
REMARK   10  A    between atoms: O_12  and  C_13
REMARK                            x       y       z     vdW  Elec       q    Type
REMARK                         _______ _______ _______ _____ _____    ______ ____
ROOT
ATOM      1  O   UNL     1       7.431   6.567  16.577  0.00  0.00    +0.000 OA
ENDROOT
BRANCH   1   2
ATOM      2  C   UNL     1       6.382   5.684  16.600  0.00  0.00    +0.000 A 
ATOM      3  C   UNL     1       6.128   4.702  15.636  0.00  0.00    +0.000 A 
ATOM      4  C   UNL     1       5.021   3.846  15.739  0.00  0.00    +0.000 A 
ATOM      5  C   UNL     1       4.195   4.023  16.843  0.00  0.00    +0.000 A 
ATOM      6  O   UNL     1       3.081   3.284  17.126  0.00  0.00    +0.000 OA
ATOM      7  C   UNL     1       2.590   3.779  18.285  0.00  0.00    +0.000 A 
ATOM      8  C   UNL     1       3.345   4.834  18.749  0.00  0.00    +0.000 A 
ATOM      9  C   UNL     1       4.403   4.994  17.820  0.00  0.00    +0.000 A 
ATOM     10  C   UNL     1       5.519   5.842  17.696  0.00  0.00    +0.000 A 
ATOM     11  C   UNL     1       3.012   5.548  20.009  0.00  0.00    +0.000 C 
ATOM     12  C   UNL     1       1.567   5.226  20.454  0.00  0.00    +0.000 C 
ATOM     13  C   UNL     1       1.239   3.723  20.336  0.00  0.00    +0.000 C 
ATOM     14  C   UNL     1       1.368   3.205  18.888  0.00  0.00    +0.000 C 
ENDBRANCH   1   2
BRANCH   1  15
ATOM     15  C   UNL     1       7.155   7.892  17.009  0.00  0.00    +0.000 C 
BRANCH  15  17
ATOM     16  N   UNL     1       8.535   9.595  18.085  0.00  0.00    +0.000 N 
ATOM     17  C   UNL     1       8.136   8.272  18.110  0.00  0.00    +0.000 C 
ATOM     18  O   UNL     1       8.545   7.457  18.932  0.00  0.00    +0.000 OA
ATOM     19  H   UNL     1       8.110  10.225  17.418  0.00  0.00    +0.000 HD
BRANCH  16  20
ATOM     20  C   UNL     1       9.457  10.129  19.070  0.00  0.00    +0.000 C 
BRANCH  20  21
ATOM     21  C   UNL     1       9.611  11.642  18.936  0.00  0.00    +0.000 C 
BRANCH  21  22
ATOM     22  C   UNL     1      10.567  12.016  17.808  0.00  0.00    +0.000 C 
BRANCH  22  23
ATOM     23  O   UNL     1      10.264  13.333  17.355  0.00  0.00    +0.000 OA
BRANCH  23  25
ATOM     24  C   UNL     1      10.860  15.625  17.174  0.00  0.00    +0.000 C 
ATOM     25  C   UNL     1      11.396  14.198  17.247  0.00  0.00    +0.000 C 
ATOM     26  C   UNL     1      12.331  14.058  18.445  0.00  0.00    +0.000 C 
ENDBRANCH  23  25
ENDBRANCH  22  23
ENDBRANCH  21  22
ENDBRANCH  20  21
ENDBRANCH  16  20
ENDBRANCH  15  17
ENDBRANCH   1  15
TORSDOF 8
ENDMDL
MODEL 8
REMARK VINA RESULT:      -6.9      1.680      2.261
REMARK  Name = 
REMARK  10 active torsions:
REMARK  status: ('A' for Active; 'I' for Inactive)
REMARK    1  A    between atoms: C_1  and  C_2
REMARK    2  A    between atoms: C_2  and  C_3
REMARK    3  A    between atoms: C_2  and  O_4
REMARK    4  A    between atoms: O_4  and  C_5
REMARK    5  A    between atoms: C_5  and  C_6
REMARK    6  A    between atoms: C_6  and  C_7
REMARK    7  A    between atoms: C_7  and  N_8
REMARK    8  A    between atoms: C_9  and  C_11
REMARK    9  A    between atoms: C_11  and  O_12
REMARK   10  A    between atoms: O_12  and  C_13
REMARK                            x       y       z     vdW  Elec       q    Type
REMARK                         _______ _______ _______ _____ _____    ______ ____
ROOT
ATOM      1  O   UNL     1       3.299   5.275  19.600  0.00  0.00    +0.000 OA
ENDROOT
BRANCH   1   2
ATOM      2  C   UNL     1       2.780   6.508  19.302  0.00  0.00    +0.000 A 
ATOM      3  C   UNL     1       2.977   7.203  18.103  0.00  0.00    +0.000 A 
ATOM      4  C   UNL     1       2.410   8.468  17.889  0.00  0.00    +0.000 A 
ATOM      5  C   UNL     1       1.646   8.993  18.926  0.00  0.00    +0.000 A 
ATOM      6  O   UNL     1       1.004  10.199  18.904  0.00  0.00    +0.000 OA
ATOM      7  C   UNL     1       0.377  10.308  20.098  0.00  0.00    +0.000 A 
ATOM      8  C   UNL     1       0.615   9.214  20.900  0.00  0.00    +0.000 A 
ATOM      9  C   UNL     1       1.433   8.343  20.139  0.00  0.00    +0.000 A 
ATOM     10  C   UNL     1       2.011   7.075  20.331  0.00  0.00    +0.000 A 
ATOM     11  C   UNL     1       0.033   9.095  22.263  0.00  0.00    +0.000 C 
ATOM     12  C   UNL     1      -0.483  10.464  22.759  0.00  0.00    +0.000 C 
ATOM     13  C   UNL     1      -1.275  11.221  21.671  0.00  0.00    +0.000 C 
ATOM     14  C   UNL     1      -0.421  11.511  20.418  0.00  0.00    +0.000 C 
ENDBRANCH   1   2
BRANCH   1  15
ATOM     15  C   UNL     1       2.566   4.150  19.135  0.00  0.00    +0.000 C 
BRANCH  15  17
ATOM     16  N   UNL     1       4.417   3.920  17.558  0.00  0.00    +0.000 N 
ATOM     17  C   UNL     1       3.055   3.777  17.741  0.00  0.00    +0.000 C 
ATOM     18  O   UNL     1       2.288   3.402  16.858  0.00  0.00    +0.000 OA
ATOM     19  H   UNL     1       4.996   4.175  18.347  0.00  0.00    +0.000 HD
BRANCH  16  20
ATOM     20  C   UNL     1       5.052   3.597  16.294  0.00  0.00    +0.000 C 
BRANCH  20  21
ATOM     21  C   UNL     1       6.201   4.551  15.980  0.00  0.00    +0.000 C 
BRANCH  21  22
ATOM     22  C   UNL     1       6.410   4.709  14.477  0.00  0.00    +0.000 C 
BRANCH  22  23
ATOM     23  O   UNL     1       5.337   4.076  13.785  0.00  0.00    +0.000 OA
BRANCH  23  25
ATOM     24  C   UNL     1       4.570   3.273  11.685  0.00  0.00    +0.000 C 
ATOM     25  C   UNL     1       5.738   3.282  12.667  0.00  0.00    +0.000 C 
ATOM     26  C   UNL     1       6.981   3.849  11.987  0.00  0.00    +0.000 C 
ENDBRANCH  23  25
ENDBRANCH  22  23
ENDBRANCH  21  22
ENDBRANCH  20  21
ENDBRANCH  16  20
ENDBRANCH  15  17
ENDBRANCH   1  15
TORSDOF 8
ENDMDL
MODEL 9
REMARK VINA RESULT:      -6.9      4.508      7.247
REMARK  Name = 
REMARK  10 active torsions:
REMARK  status: ('A' for Active; 'I' for Inactive)
REMARK    1  A    between atoms: C_1  and  C_2
REMARK    2  A    between atoms: C_2  and  C_3
REMARK    3  A    between atoms: C_2  and  O_4
REMARK    4  A    between atoms: O_4  and  C_5
REMARK    5  A    between atoms: C_5  and  C_6
REMARK    6  A    between atoms: C_6  and  C_7
REMARK    7  A    between atoms: C_7  and  N_8
REMARK    8  A    between atoms: C_9  and  C_11
REMARK    9  A    between atoms: C_11  and  O_12
REMARK   10  A    between atoms: O_12  and  C_13
REMARK                            x       y       z     vdW  Elec       q    Type
REMARK                         _______ _______ _______ _____ _____    ______ ____
ROOT
ATOM      1  O   UNL     1       6.029   7.588  17.068  0.00  0.00    +0.000 OA
ENDROOT
BRANCH   1   2
ATOM      2  C   UNL     1       5.360   6.393  16.992  0.00  0.00    +0.000 A 
ATOM      3  C   UNL     1       5.513   5.442  15.978  0.00  0.00    +0.000 A 
ATOM      4  C   UNL     1       4.778   4.247  15.979  0.00  0.00    +0.000 A 
ATOM      5  C   UNL     1       3.894   4.059  17.037  0.00  0.00    +0.000 A 
ATOM      6  O   UNL     1       3.103   2.961  17.221  0.00  0.00    +0.000 OA
ATOM      7  C   UNL     1       2.418   3.184  18.366  0.00  0.00    +0.000 A 
ATOM      8  C   UNL     1       2.729   4.408  18.915  0.00  0.00    +0.000 A 
ATOM      9  C   UNL     1       3.702   4.983  18.060  0.00  0.00    +0.000 A 
ATOM     10  C   UNL     1       4.450   6.174  18.038  0.00  0.00    +0.000 A 
ATOM     11  C   UNL     1       2.108   4.886  20.179  0.00  0.00    +0.000 C 
ATOM     12  C   UNL     1       0.854   4.052  20.521  0.00  0.00    +0.000 C 
ATOM     13  C   UNL     1       1.084   2.538  20.326  0.00  0.00    +0.000 C 
ATOM     14  C   UNL     1       1.453   2.183  18.870  0.00  0.00    +0.000 C 
ENDBRANCH   1   2
BRANCH   1  15
ATOM     15  C   UNL     1       7.430   7.546  16.832  0.00  0.00    +0.000 C 
BRANCH  15  17
ATOM     16  N   UNL     1       8.446   9.353  18.123  0.00  0.00    +0.000 N 
ATOM     17  C   UNL     1       8.161   8.002  18.088  0.00  0.00    +0.000 C 
ATOM     18  O   UNL     1       8.481   7.219  18.978  0.00  0.00    +0.000 OA
ATOM     19  H   UNL     1       8.097   9.949  17.383  0.00  0.00    +0.000 HD
BRANCH  16  20
ATOM     20  C   UNL     1       9.126   9.958  19.252  0.00  0.00    +0.000 C 
BRANCH  20  21
ATOM     21  C   UNL     1       9.622  11.364  18.925  0.00  0.00    +0.000 C 
BRANCH  21  22
ATOM     22  C   UNL     1      11.137  11.477  19.070  0.00  0.00    +0.000 C 
BRANCH  22  23
ATOM     23  O   UNL     1      11.638  12.365  18.075  0.00  0.00    +0.000 OA
BRANCH  23  25
ATOM     24  C   UNL     1      12.103  14.264  19.425  0.00  0.00    +0.000 C 
ATOM     25  C   UNL     1      11.270  13.734  18.261  0.00  0.00    +0.000 C 
ATOM     26  C   UNL     1      11.539  14.567  17.012  0.00  0.00    +0.000 C 
ENDBRANCH  23  25
ENDBRANCH  22  23
ENDBRANCH  21  22
ENDBRANCH  20  21
ENDBRANCH  16  20
ENDBRANCH  15  17
ENDBRANCH   1  15
TORSDOF 8
ENDMDL
