MODEL 1
REMARK VINA RESULT:      -7.6      0.000      0.000
REMARK  Name = 
REMARK  7 active torsions:
REMARK  status: ('A' for Active; 'I' for Inactive)
REMARK    1  A    between atoms: C_1  and  C_2
REMARK    2  A    between atoms: C_2  and  O_4
REMARK    3  A    between atoms: O_4  and  C_5
REMARK    4  A    between atoms: C_12  and  C_13
REMARK    5  A    between atoms: C_13  and  O_14
REMARK    6  A    between atoms: O_14  and  C_15
REMARK    7  A    between atoms: C_15  and  C_17
REMARK                            x       y       z     vdW  Elec       q    Type
REMARK                         _______ _______ _______ _____ _____    ______ ____
ROOT
ATOM      1  C   UNL     1       2.339   4.951  18.695  0.00  0.00    +0.000 C 
ATOM      2  C   UNL     1       1.668   4.310  19.919  0.00  0.00    +0.000 C 
ATOM      3  O   UNL     1       1.663   4.822  21.042  0.00  0.00    +0.000 OA
ATOM      4  C   UNL     1       0.865   3.091  19.739  0.00  0.00    +0.000 C 
ATOM      5  C   UNL     1       1.286   2.017  19.069  0.00  0.00    +0.000 C 
ATOM      6  O   UNL     1       2.469   1.778  18.439  0.00  0.00    +0.000 OA
ATOM      7  C   UNL     1       3.242   2.718  17.828  0.00  0.00    +0.000 C 
ATOM      8  C   UNL     1       3.233   4.063  17.865  0.00  0.00    +0.000 C 
ENDROOT
BRANCH   1   9
ATOM      9  O   UNL     1       3.145   6.030  19.213  0.00  0.00    +0.000 OA
BRANCH   9  11
ATOM     10  C   UNL     1       2.742   7.881  17.826  0.00  0.00    +0.000 C 
ATOM     11  C   UNL     1       2.560   7.260  19.175  0.00  0.00    +0.000 C 
ATOM     12  O   UNL     1       1.976   7.793  20.109  0.00  0.00    +0.000 OA
ENDBRANCH   9  11
ENDBRANCH   1   9
BRANCH   8  13
ATOM     13  C   UNL     1       4.212   4.804  16.974  0.00  0.00    +0.000 C 
BRANCH  13  14
ATOM     14  O   UNL     1       5.144   3.865  16.411  0.00  0.00    +0.000 OA
BRANCH  14  15
ATOM     15  C   UNL     1       6.262   4.410  15.877  0.00  0.00    +0.000 C 
ATOM     16  O   UNL     1       6.719   4.169  14.771  0.00  0.00    +0.000 OA
BRANCH  15  17
ATOM     17  C   UNL     1       6.934   5.332  16.833  0.00  0.00    +0.000 A 
ATOM     18  C   UNL     1       7.461   4.774  18.007  0.00  0.00    +0.000 A 
ATOM     19  C   UNL     1       8.048   5.586  18.977  0.00  0.00    +0.000 A 
ATOM     20  C   UNL     1       8.119   6.963  18.778  0.00  0.00    +0.000 A 
ATOM     21  C   UNL     1       7.623   7.525  17.600  0.00  0.00    +0.000 A 
ATOM     22  C   UNL     1       7.033   6.713  16.625  0.00  0.00    +0.000 A 
ENDBRANCH  15  17
ENDBRANCH  14  15
ENDBRANCH  13  14
ENDBRANCH   8  13
TORSDOF 6
ENDMDL
MODEL 2
REMARK VINA RESULT:      -7.5      0.166      1.041
REMARK  Name = 
REMARK  7 active torsions:
REMARK  status: ('A' for Active; 'I' for Inactive)
REMARK    1  A    between atoms: C_1  and  C_2
REMARK    2  A    between atoms: C_2  and  O_4
REMARK    3  A    between atoms: O_4  and  C_5
REMARK    4  A    between atoms: C_12  and  C_13
REMARK    5  A    between atoms: C_13  and  O_14
REMARK    6  A    between atoms: O_14  and  C_15
REMARK    7  A    between atoms: C_15  and  C_17
REMARK                            x       y       z     vdW  Elec       q    Type
REMARK                         _______ _______ _______ _____ _____    ______ ____
ROOT
ATOM      1  C   UNL     1       2.261   4.923  18.715  0.00  0.00    +0.000 C 
ATOM      2  C   UNL     1       1.654   4.314  19.987  0.00  0.00    +0.000 C 
ATOM      3  O   UNL     1       1.715   4.850  21.097  0.00  0.00    +0.000 OA
ATOM      4  C   UNL     1       0.834   3.098  19.877  0.00  0.00    +0.000 C 
ATOM      5  C   UNL     1       1.210   2.007  19.209  0.00  0.00    +0.000 C 
ATOM      6  O   UNL     1       2.355   1.745  18.521  0.00  0.00    +0.000 OA
ATOM      7  C   UNL     1       3.100   2.666  17.848  0.00  0.00    +0.000 C 
ATOM      8  C   UNL     1       3.101   4.011  17.856  0.00  0.00    +0.000 C 
ENDROOT
BRANCH   1   9
ATOM      9  O   UNL     1       3.101   6.007  19.164  0.00  0.00    +0.000 OA
BRANCH   9  11
ATOM     10  C   UNL     1       2.606   7.795  17.726  0.00  0.00    +0.000 C 
ATOM     11  C   UNL     1       2.530   7.243  19.115  0.00  0.00    +0.000 C 
ATOM     12  O   UNL     1       2.033   7.829  20.066  0.00  0.00    +0.000 OA
ENDBRANCH   9  11
ENDBRANCH   1   9
BRANCH   8  13
ATOM     13  C   UNL     1       4.035   4.725  16.896  0.00  0.00    +0.000 C 
BRANCH  13  14
ATOM     14  O   UNL     1       5.129   3.853  16.564  0.00  0.00    +0.000 OA
BRANCH  14  15
ATOM     15  C   UNL     1       6.221   4.467  16.049  0.00  0.00    +0.000 C 
ATOM     16  O   UNL     1       6.674   4.300  14.927  0.00  0.00    +0.000 OA
BRANCH  15  17
ATOM     17  C   UNL     1       6.869   5.363  17.045  0.00  0.00    +0.000 A 
ATOM     18  C   UNL     1       7.019   6.714  16.698  0.00  0.00    +0.000 A 
ATOM     19  C   UNL     1       7.674   7.598  17.555  0.00  0.00    +0.000 A 
ATOM     20  C   UNL     1       8.178   7.140  18.770  0.00  0.00    +0.000 A 
ATOM     21  C   UNL     1       8.009   5.803  19.138  0.00  0.00    +0.000 A 
ATOM     22  C   UNL     1       7.352   4.914  18.280  0.00  0.00    +0.000 A 
ENDBRANCH  15  17
ENDBRANCH  14  15
ENDBRANCH  13  14
ENDBRANCH   8  13
TORSDOF 6
ENDMDL
MODEL 3
REMARK VINA RESULT:      -7.5      1.837      3.043
REMARK  Name = 
REMARK  7 active torsions:
REMARK  status: ('A' for Active; 'I' for Inactive)
REMARK    1  A    between atoms: C_1  and  C_2
REMARK    2  A    between atoms: C_2  and  O_4
REMARK    3  A    between atoms: O_4  and  C_5
REMARK    4  A    between atoms: C_12  and  C_13
REMARK    5  A    between atoms: C_13  and  O_14
REMARK    6  A    between atoms: O_14  and  C_15
REMARK    7  A    between atoms: C_15  and  C_17
REMARK                            x       y       z     vdW  Elec       q    Type
REMARK                         _______ _______ _______ _____ _____    ______ ____
ROOT
ATOM      1  C   UNL     1       2.800   5.185  18.522  0.00  0.00    +0.000 C 
ATOM      2  C   UNL     1       1.776   4.285  19.229  0.00  0.00    +0.000 C 
ATOM      3  O   UNL     1       1.236   4.576  20.299  0.00  0.00    +0.000 OA
ATOM      4  C   UNL     1       1.296   3.074  18.546  0.00  0.00    +0.000 C 
ATOM      5  C   UNL     1       2.099   2.174  17.978  0.00  0.00    +0.000 C 
ATOM      6  O   UNL     1       3.457   2.132  17.895  0.00  0.00    +0.000 OA
ATOM      7  C   UNL     1       4.277   3.217  17.820  0.00  0.00    +0.000 C 
ATOM      8  C   UNL     1       4.070   4.528  18.041  0.00  0.00    +0.000 C 
ENDROOT
BRANCH   1   9
ATOM      9  O   UNL     1       3.161   6.196  19.486  0.00  0.00    +0.000 OA
BRANCH   9  11
ATOM     10  C   UNL     1       2.515   7.881  17.984  0.00  0.00    +0.000 C 
ATOM     11  C   UNL     1       2.469   7.365  19.388  0.00  0.00    +0.000 C 
ATOM     12  O   UNL     1       1.897   7.926  20.313  0.00  0.00    +0.000 OA
ENDBRANCH   9  11
ENDBRANCH   1   9
BRANCH   8  13
ATOM     13  C   UNL     1       5.219   5.483  17.778  0.00  0.00    +0.000 C 
BRANCH  13  14
ATOM     14  O   UNL     1       5.279   5.773  16.371  0.00  0.00    +0.000 OA
BRANCH  14  15
ATOM     15  C   UNL     1       6.514   5.706  15.820  0.00  0.00    +0.000 C 
ATOM     16  O   UNL     1       7.535   6.186  16.288  0.00  0.00    +0.000 OA
BRANCH  15  17
ATOM     17  C   UNL     1       6.493   5.004  14.508  0.00  0.00    +0.000 A 
ATOM     18  C   UNL     1       5.391   4.180  14.233  0.00  0.00    +0.000 A 
ATOM     19  C   UNL     1       5.335   3.441  13.051  0.00  0.00    +0.000 A 
ATOM     20  C   UNL     1       6.376   3.527  12.130  0.00  0.00    +0.000 A 
ATOM     21  C   UNL     1       7.464   4.366  12.381  0.00  0.00    +0.000 A 
ATOM     22  C   UNL     1       7.524   5.107  13.566  0.00  0.00    +0.000 A 
ENDBRANCH  15  17
ENDBRANCH  14  15
ENDBRANCH  13  14
ENDBRANCH   8  13
TORSDOF 6
ENDMDL
MODEL 4
REMARK VINA RESULT:      -7.4      2.382      5.361
REMARK  Name = 
REMARK  7 active torsions:
REMARK  status: ('A' for Active; 'I' for Inactive)
REMARK    1  A    between atoms: C_1  and  C_2
REMARK    2  A    between atoms: C_2  and  O_4
REMARK    3  A    between atoms: O_4  and  C_5
REMARK    4  A    between atoms: C_12  and  C_13
REMARK    5  A    between atoms: C_13  and  O_14
REMARK    6  A    between atoms: O_14  and  C_15
REMARK    7  A    between atoms: C_15  and  C_17
REMARK                            x       y       z     vdW  Elec       q    Type
REMARK                         _______ _______ _______ _____ _____    ______ ____
ROOT
ATOM      1  C   UNL     1       3.894   4.191  19.620  0.00  0.00    +0.000 C 
ATOM      2  C   UNL     1       3.874   2.815  20.303  0.00  0.00    +0.000 C 
ATOM      3  O   UNL     1       4.722   1.942  20.103  0.00  0.00    +0.000 OA
ATOM      4  C   UNL     1       2.881   2.553  21.356  0.00  0.00    +0.000 C 
ATOM      5  C   UNL     1       1.579   2.810  21.229  0.00  0.00    +0.000 C 
ATOM      6  O   UNL     1       0.879   3.327  20.181  0.00  0.00    +0.000 OA
ATOM      7  C   UNL     1       1.357   4.233  19.284  0.00  0.00    +0.000 C 
ATOM      8  C   UNL     1       2.601   4.668  19.008  0.00  0.00    +0.000 C 
ENDROOT
BRANCH   1   9
ATOM      9  O   UNL     1       4.873   4.088  18.565  0.00  0.00    +0.000 OA
BRANCH   9  11
ATOM     10  C   UNL     1       6.618   5.153  17.412  0.00  0.00    +0.000 C 
ATOM     11  C   UNL     1       5.992   4.846  18.735  0.00  0.00    +0.000 C 
ATOM     12  O   UNL     1       6.434   5.218  19.813  0.00  0.00    +0.000 OA
ENDBRANCH   9  11
ENDBRANCH   1   9
BRANCH   8  13
ATOM     13  C   UNL     1       2.755   5.769  17.976  0.00  0.00    +0.000 C 
BRANCH  13  14
ATOM     14  O   UNL     1       3.126   6.990  18.639  0.00  0.00    +0.000 OA
BRANCH  14  15
ATOM     15  C   UNL     1       2.420   8.085  18.271  0.00  0.00    +0.000 C 
ATOM     16  O   UNL     1       2.477   8.644  17.187  0.00  0.00    +0.000 OA
BRANCH  15  17
ATOM     17  C   UNL     1       1.569   8.589  19.384  0.00  0.00    +0.000 A 
ATOM     18  C   UNL     1       0.760   9.705  19.124  0.00  0.00    +0.000 A 
ATOM     19  C   UNL     1      -0.015  10.270  20.138  0.00  0.00    +0.000 A 
ATOM     20  C   UNL     1       0.009   9.720  21.417  0.00  0.00    +0.000 A 
ATOM     21  C   UNL     1       0.791   8.592  21.679  0.00  0.00    +0.000 A 
ATOM     22  C   UNL     1       1.568   8.023  20.665  0.00  0.00    +0.000 A 
ENDBRANCH  15  17
ENDBRANCH  14  15
ENDBRANCH  13  14
ENDBRANCH   8  13
TORSDOF 6
ENDMDL
MODEL 5
REMARK VINA RESULT:      -7.4      1.782      3.022
REMARK  Name = 
REMARK  7 active torsions:
REMARK  status: ('A' for Active; 'I' for Inactive)
REMARK    1  A    between atoms: C_1  and  C_2
REMARK    2  A    between atoms: C_2  and  O_4
REMARK    3  A    between atoms: O_4  and  C_5
REMARK    4  A    between atoms: C_12  and  C_13
REMARK    5  A    between atoms: C_13  and  O_14
REMARK    6  A    between atoms: O_14  and  C_15
REMARK    7  A    between atoms: C_15  and  C_17
REMARK                            x       y       z     vdW  Elec       q    Type
REMARK                         _______ _______ _______ _____ _____    ______ ____
ROOT
ATOM      1  C   UNL     1       2.703   5.065  18.733  0.00  0.00    +0.000 C 
ATOM      2  C   UNL     1       1.719   4.345  19.667  0.00  0.00    +0.000 C 
ATOM      3  O   UNL     1       1.300   4.830  20.721  0.00  0.00    +0.000 OA
ATOM      4  C   UNL     1       1.124   3.071  19.235  0.00  0.00    +0.000 C 
ATOM      5  C   UNL     1       1.829   2.050  18.748  0.00  0.00    +0.000 C 
ATOM      6  O   UNL     1       3.170   1.918  18.549  0.00  0.00    +0.000 OA
ATOM      7  C   UNL     1       4.022   2.931  18.225  0.00  0.00    +0.000 C 
ATOM      8  C   UNL     1       3.891   4.270  18.250  0.00  0.00    +0.000 C 
ENDROOT
BRANCH   1   9
ATOM      9  O   UNL     1       3.200   6.192  19.484  0.00  0.00    +0.000 OA
BRANCH   9  11
ATOM     10  C   UNL     1       2.749   7.870  17.905  0.00  0.00    +0.000 C 
ATOM     11  C   UNL     1       2.524   7.360  19.294  0.00  0.00    +0.000 C 
ATOM     12  O   UNL     1       1.838   7.923  20.135  0.00  0.00    +0.000 OA
ENDBRANCH   9  11
ENDBRANCH   1   9
BRANCH   8  13
ATOM     13  C   UNL     1       5.046   5.106  17.732  0.00  0.00    +0.000 C 
BRANCH  13  14
ATOM     14  O   UNL     1       5.669   4.421  16.631  0.00  0.00    +0.000 OA
BRANCH  14  15
ATOM     15  C   UNL     1       6.601   5.137  15.959  0.00  0.00    +0.000 C 
ATOM     16  O   UNL     1       7.256   6.063  16.410  0.00  0.00    +0.000 OA
BRANCH  15  17
ATOM     17  C   UNL     1       6.713   4.697  14.541  0.00  0.00    +0.000 A 
ATOM     18  C   UNL     1       7.643   5.364  13.730  0.00  0.00    +0.000 A 
ATOM     19  C   UNL     1       7.757   5.048  12.375  0.00  0.00    +0.000 A 
ATOM     20  C   UNL     1       6.947   4.058  11.824  0.00  0.00    +0.000 A 
ATOM     21  C   UNL     1       6.038   3.369  12.630  0.00  0.00    +0.000 A 
ATOM     22  C   UNL     1       5.921   3.683  13.988  0.00  0.00    +0.000 A 
ENDBRANCH  15  17
ENDBRANCH  14  15
ENDBRANCH  13  14
ENDBRANCH   8  13
TORSDOF 6
ENDMDL
MODEL 6
REMARK VINA RESULT:      -7.4      2.429      5.395
REMARK  Name = 
REMARK  7 active torsions:
REMARK  status: ('A' for Active; 'I' for Inactive)
REMARK    1  A    between atoms: C_1  and  C_2
REMARK    2  A    between atoms: C_2  and  O_4
REMARK    3  A    between atoms: O_4  and  C_5
REMARK    4  A    between atoms: C_12  and  C_13
REMARK    5  A    between atoms: C_13  and  O_14
REMARK    6  A    between atoms: O_14  and  C_15
REMARK    7  A    between atoms: C_15  and  C_17
REMARK                            x       y       z     vdW  Elec       q    Type
REMARK                         _______ _______ _______ _____ _____    ______ ____
ROOT
ATOM      1  C   UNL     1       3.848   4.222  19.606  0.00  0.00    +0.000 C 
ATOM      2  C   UNL     1       3.867   2.818  20.230  0.00  0.00    +0.000 C 
ATOM      3  O   UNL     1       4.703   1.957  19.948  0.00  0.00    +0.000 OA
ATOM      4  C   UNL     1       2.932   2.509  21.322  0.00  0.00    +0.000 C 
ATOM      5  C   UNL     1       1.624   2.766  21.276  0.00  0.00    +0.000 C 
ATOM      6  O   UNL     1       0.869   3.324  20.290  0.00  0.00    +0.000 OA
ATOM      7  C   UNL     1       1.297   4.270  19.408  0.00  0.00    +0.000 C 
ATOM      8  C   UNL     1       2.523   4.720  19.084  0.00  0.00    +0.000 C 
ENDROOT
BRANCH   1   9
ATOM      9  O   UNL     1       4.769   4.167  18.496  0.00  0.00    +0.000 OA
BRANCH   9  11
ATOM     10  C   UNL     1       6.850   4.618  17.507  0.00  0.00    +0.000 C 
ATOM     11  C   UNL     1       5.981   4.748  18.718  0.00  0.00    +0.000 C 
ATOM     12  O   UNL     1       6.322   5.293  19.759  0.00  0.00    +0.000 OA
ENDBRANCH   9  11
ENDBRANCH   1   9
BRANCH   8  13
ATOM     13  C   UNL     1       2.621   5.864  18.093  0.00  0.00    +0.000 C 
BRANCH  13  14
ATOM     14  O   UNL     1       2.942   7.075  18.799  0.00  0.00    +0.000 OA
BRANCH  14  15
ATOM     15  C   UNL     1       2.324   8.190  18.344  0.00  0.00    +0.000 C 
ATOM     16  O   UNL     1       2.477   8.696  17.243  0.00  0.00    +0.000 OA
BRANCH  15  17
ATOM     17  C   UNL     1       1.441   8.791  19.381  0.00  0.00    +0.000 A 
ATOM     18  C   UNL     1       1.468   8.221  20.662  0.00  0.00    +0.000 A 
ATOM     19  C   UNL     1       0.621   8.692  21.666  0.00  0.00    +0.000 A 
ATOM     20  C   UNL     1      -0.254   9.742  21.398  0.00  0.00    +0.000 A 
ATOM     21  C   UNL     1      -0.269  10.335  20.134  0.00  0.00    +0.000 A 
ATOM     22  C   UNL     1       0.579   9.866  19.125  0.00  0.00    +0.000 A 
ENDBRANCH  15  17
ENDBRANCH  14  15
ENDBRANCH  13  14
ENDBRANCH   8  13
TORSDOF 6
ENDMDL
MODEL 7
REMARK VINA RESULT:      -7.4      0.813      1.005
REMARK  Name = 
REMARK  7 active torsions:
REMARK  status: ('A' for Active; 'I' for Inactive)
REMARK    1  A    between atoms: C_1  and  C_2
REMARK    2  A    between atoms: C_2  and  O_4
REMARK    3  A    between atoms: O_4  and  C_5
REMARK    4  A    between atoms: C_12  and  C_13
REMARK    5  A    between atoms: C_13  and  O_14
REMARK    6  A    between atoms: O_14  and  C_15
REMARK    7  A    between atoms: C_15  and  C_17
REMARK                            x       y       z     vdW  Elec       q    Type
REMARK                         _______ _______ _______ _____ _____    ______ ____
ROOT
ATOM      1  C   UNL     1       2.488   4.909  18.513  0.00  0.00    +0.000 C 
ATOM      2  C   UNL     1       2.008   4.649  19.949  0.00  0.00    +0.000 C 
ATOM      3  O   UNL     1       2.343   5.339  20.916  0.00  0.00    +0.000 OA
ATOM      4  C   UNL     1       0.988   3.616  20.187  0.00  0.00    +0.000 C 
ATOM      5  C   UNL     1       1.058   2.378  19.698  0.00  0.00    +0.000 C 
ATOM      6  O   UNL     1       2.011   1.786  18.926  0.00  0.00    +0.000 OA
ATOM      7  C   UNL     1       2.778   2.419  17.995  0.00  0.00    +0.000 C 
ATOM      8  C   UNL     1       3.007   3.721  17.742  0.00  0.00    +0.000 C 
ENDROOT
BRANCH   1   9
ATOM      9  O   UNL     1       3.562   5.866  18.629  0.00  0.00    +0.000 OA
BRANCH   9  11
ATOM     10  C   UNL     1       2.233   7.798  18.523  0.00  0.00    +0.000 C 
ATOM     11  C   UNL     1       3.378   7.029  17.944  0.00  0.00    +0.000 C 
ATOM     12  O   UNL     1       4.043   7.396  16.985  0.00  0.00    +0.000 OA
ENDBRANCH   9  11
ENDBRANCH   1   9
BRANCH   8  13
ATOM     13  C   UNL     1       3.874   4.069  16.547  0.00  0.00    +0.000 C 
BRANCH  13  14
ATOM     14  O   UNL     1       5.206   3.572  16.767  0.00  0.00    +0.000 OA
BRANCH  14  15
ATOM     15  C   UNL     1       6.183   4.219  16.089  0.00  0.00    +0.000 C 
ATOM     16  O   UNL     1       6.509   4.011  14.931  0.00  0.00    +0.000 OA
BRANCH  15  17
ATOM     17  C   UNL     1       6.882   5.213  16.948  0.00  0.00    +0.000 A 
ATOM     18  C   UNL     1       7.331   4.779  18.204  0.00  0.00    +0.000 A 
ATOM     19  C   UNL     1       7.938   5.673  19.088  0.00  0.00    +0.000 A 
ATOM     20  C   UNL     1       8.107   7.005  18.718  0.00  0.00    +0.000 A 
ATOM     21  C   UNL     1       7.689   7.440  17.459  0.00  0.00    +0.000 A 
ATOM     22  C   UNL     1       7.081   6.547  16.571  0.00  0.00    +0.000 A 
ENDBRANCH  15  17
ENDBRANCH  14  15
ENDBRANCH  13  14
ENDBRANCH   8  13
TORSDOF 6
ENDMDL
MODEL 8
REMARK VINA RESULT:      -7.3      1.824      2.973
REMARK  Name = 
REMARK  7 active torsions:
REMARK  status: ('A' for Active; 'I' for Inactive)
REMARK    1  A    between atoms: C_1  and  C_2
REMARK    2  A    between atoms: C_2  and  O_4
REMARK    3  A    between atoms: O_4  and  C_5
REMARK    4  A    between atoms: C_12  and  C_13
REMARK    5  A    between atoms: C_13  and  O_14
REMARK    6  A    between atoms: O_14  and  C_15
REMARK    7  A    between atoms: C_15  and  C_17
REMARK                            x       y       z     vdW  Elec       q    Type
REMARK                         _______ _______ _______ _____ _____    ______ ____
ROOT
ATOM      1  C   UNL     1       2.435   4.919  18.713  0.00  0.00    +0.000 C 
ATOM      2  C   UNL     1       1.577   4.192  19.759  0.00  0.00    +0.000 C 
ATOM      3  O   UNL     1       1.252   4.691  20.840  0.00  0.00    +0.000 OA
ATOM      4  C   UNL     1       0.986   2.888  19.421  0.00  0.00    +0.000 C 
ATOM      5  C   UNL     1       1.674   1.878  18.888  0.00  0.00    +0.000 C 
ATOM      6  O   UNL     1       2.990   1.785  18.554  0.00  0.00    +0.000 OA
ATOM      7  C   UNL     1       3.769   2.816  18.121  0.00  0.00    +0.000 C 
ATOM      8  C   UNL     1       3.594   4.150  18.129  0.00  0.00    +0.000 C 
ENDROOT
BRANCH   1   9
ATOM      9  O   UNL     1       2.966   6.081  19.383  0.00  0.00    +0.000 OA
BRANCH   9  11
ATOM     10  C   UNL     1       1.839   7.956  20.235  0.00  0.00    +0.000 C 
ATOM     11  C   UNL     1       2.395   7.266  19.029  0.00  0.00    +0.000 C 
ATOM     12  O   UNL     1       2.332   7.707  17.890  0.00  0.00    +0.000 OA
ENDBRANCH   9  11
ENDBRANCH   1   9
BRANCH   8  13
ATOM     13  C   UNL     1       4.661   5.009  17.476  0.00  0.00    +0.000 C 
BRANCH  13  14
ATOM     14  O   UNL     1       5.137   4.351  16.289  0.00  0.00    +0.000 OA
BRANCH  14  15
ATOM     15  C   UNL     1       6.448   4.542  16.010  0.00  0.00    +0.000 C 
ATOM     16  O   UNL     1       7.334   4.740  16.827  0.00  0.00    +0.000 OA
BRANCH  15  17
ATOM     17  C   UNL     1       6.704   4.537  14.544  0.00  0.00    +0.000 A 
ATOM     18  C   UNL     1       5.968   3.634  13.762  0.00  0.00    +0.000 A 
ATOM     19  C   UNL     1       6.201   3.530  12.390  0.00  0.00    +0.000 A 
ATOM     20  C   UNL     1       7.166   4.334  11.788  0.00  0.00    +0.000 A 
ATOM     21  C   UNL     1       7.884   5.257  12.553  0.00  0.00    +0.000 A 
ATOM     22  C   UNL     1       7.653   5.363  13.928  0.00  0.00    +0.000 A 
ENDBRANCH  15  17
ENDBRANCH  14  15
ENDBRANCH  13  14
ENDBRANCH   8  13
TORSDOF 6
ENDMDL
MODEL 9
REMARK VINA RESULT:      -7.3      1.760      2.649
REMARK  Name = 
REMARK  7 active torsions:
REMARK  status: ('A' for Active; 'I' for Inactive)
REMARK    1  A    between atoms: C_1  and  C_2
REMARK    2  A    between atoms: C_2  and  O_4
REMARK    3  A    between atoms: O_4  and  C_5
REMARK    4  A    between atoms: C_12  and  C_13
REMARK    5  A    between atoms: C_13  and  O_14
REMARK    6  A    between atoms: O_14  and  C_15
REMARK    7  A    between atoms: C_15  and  C_17
REMARK                            x       y       z     vdW  Elec       q    Type
REMARK                         _______ _______ _______ _____ _____    ______ ____
ROOT
ATOM      1  C   UNL     1       2.736   4.882  19.268  0.00  0.00    +0.000 C 
ATOM      2  C   UNL     1       1.572   3.896  19.438  0.00  0.00    +0.000 C 
ATOM      3  O   UNL     1       0.606   4.101  20.177  0.00  0.00    +0.000 OA
ATOM      4  C   UNL     1       1.515   2.701  18.582  0.00  0.00    +0.000 C 
ATOM      5  C   UNL     1       2.544   1.873  18.393  0.00  0.00    +0.000 C 
ATOM      6  O   UNL     1       3.805   1.903  18.904  0.00  0.00    +0.000 OA
ATOM      7  C   UNL     1       4.502   3.030  19.221  0.00  0.00    +0.000 C 
ATOM      8  C   UNL     1       4.131   4.315  19.366  0.00  0.00    +0.000 C 
ENDROOT
BRANCH   1   9
ATOM      9  O   UNL     1       2.579   5.856  20.320  0.00  0.00    +0.000 OA
BRANCH   9  11
ATOM     10  C   UNL     1       2.469   7.319  18.487  0.00  0.00    +0.000 C 
ATOM     11  C   UNL     1       2.116   7.074  19.920  0.00  0.00    +0.000 C 
ATOM     12  O   UNL     1       1.506   7.864  20.627  0.00  0.00    +0.000 OA
ENDBRANCH   9  11
ENDBRANCH   1   9
BRANCH   8  13
ATOM     13  C   UNL     1       5.214   5.339  19.651  0.00  0.00    +0.000 C 
BRANCH  13  14
ATOM     14  O   UNL     1       6.487   4.806  19.247  0.00  0.00    +0.000 OA
BRANCH  14  15
ATOM     15  C   UNL     1       7.178   5.567  18.366  0.00  0.00    +0.000 C 
ATOM     16  O   UNL     1       8.049   6.376  18.646  0.00  0.00    +0.000 OA
BRANCH  15  17
ATOM     17  C   UNL     1       6.716   5.346  16.968  0.00  0.00    +0.000 A 
ATOM     18  C   UNL     1       5.787   6.257  16.444  0.00  0.00    +0.000 A 
ATOM     19  C   UNL     1       5.261   6.076  15.164  0.00  0.00    +0.000 A 
ATOM     20  C   UNL     1       5.666   4.987  14.396  0.00  0.00    +0.000 A 
ATOM     21  C   UNL     1       6.611   4.090  14.898  0.00  0.00    +0.000 A 
ATOM     22  C   UNL     1       7.140   4.268  16.181  0.00  0.00    +0.000 A 
ENDBRANCH  15  17
ENDBRANCH  14  15
ENDBRANCH  13  14
ENDBRANCH   8  13
TORSDOF 6
ENDMDL
