MODEL 1
REMARK VINA RESULT:      -8.1      0.000      0.000
REMARK  Name = 
REMARK  14 active torsions:
REMARK  status: ('A' for Active; 'I' for Inactive)
REMARK    1  A    between atoms: C_1  and  O_2
REMARK    2  A    between atoms: O_2  and  C_3
REMARK    3  A    between atoms: C_6  and  C_7
REMARK    4  A    between atoms: C_7  and  C_8
REMARK    5  A    between atoms: C_7  and  N_9
REMARK    6  A    between atoms: N_9  and  C_10
REMARK    7  A    between atoms: N_9  and  C_21
REMARK    8  A    between atoms: C_10  and  C_11
REMARK    9  A    between atoms: C_14  and  C_15
REMARK   10  A    between atoms: C_15  and  C_16
REMARK   11  A    between atoms: C_15  and  C_17
REMARK   12  A    between atoms: C_15  and  C_18
REMARK   13  A    between atoms: C_21  and  C_22
REMARK   14  A    between atoms: C_26  and  C_27
REMARK                            x       y       z     vdW  Elec       q    Type
REMARK                         _______ _______ _______ _____ _____    ______ ____
ROOT
ATOM      1  N   UNL     1       0.698  11.994  19.777  0.00  0.00    +0.000 NA
ENDROOT
BRANCH   1   2
ATOM      2  C   UNL     1      -0.078  12.585  18.657  0.00  0.00    +0.000 C 
ATOM      3  C   UNL     1      -0.288  14.110  18.789  0.00  0.00    +0.000 C 
BRANCH   2   7
ATOM      4  C   UNL     1      -4.076  10.934  18.198  0.00  0.00    +0.000 A 
ATOM      5  C   UNL     1      -3.845  12.044  19.006  0.00  0.00    +0.000 A 
ATOM      6  C   UNL     1      -2.562  12.579  19.121  0.00  0.00    +0.000 A 
ATOM      7  C   UNL     1      -1.476  11.999  18.443  0.00  0.00    +0.000 A 
ATOM      8  C   UNL     1      -1.709  10.845  17.680  0.00  0.00    +0.000 A 
ATOM      9  C   UNL     1      -3.003  10.317  17.555  0.00  0.00    +0.000 A 
BRANCH   4  11
ATOM     10  C   UNL     1      -6.253  11.097  19.111  0.00  0.00    +0.000 C 
ATOM     11  O   UNL     1      -5.379  10.527  18.145  0.00  0.00    +0.000 OA
ENDBRANCH   4  11
ENDBRANCH   2   7
ENDBRANCH   1   2
BRANCH   1  12
ATOM     12  C   UNL     1       0.880  12.938  20.913  0.00  0.00    +0.000 C 
BRANCH  12  13
ATOM     13  C   UNL     1      -0.348  13.047  21.805  0.00  0.00    +0.000 A 
ATOM     14  C   UNL     1      -0.936  11.898  22.345  0.00  0.00    +0.000 A 
ATOM     15  C   UNL     1      -2.186  11.959  22.964  0.00  0.00    +0.000 A 
ATOM     16  C   UNL     1      -2.908  13.162  23.049  0.00  0.00    +0.000 A 
ATOM     17  C   UNL     1      -2.250  14.328  22.618  0.00  0.00    +0.000 A 
ATOM     18  C   UNL     1      -0.980  14.273  22.022  0.00  0.00    +0.000 A 
BRANCH  16  19
ATOM     19  C   UNL     1      -4.376  13.213  23.508  0.00  0.00    +0.000 C 
ATOM     20  C   UNL     1      -4.841  14.632  23.905  0.00  0.00    +0.000 C 
ATOM     21  C   UNL     1      -5.309  12.711  22.390  0.00  0.00    +0.000 C 
ATOM     22  C   UNL     1      -4.562  12.314  24.755  0.00  0.00    +0.000 C 
ENDBRANCH  16  19
ENDBRANCH  12  13
ENDBRANCH   1  12
BRANCH   1  23
ATOM     23  C   UNL     1       0.175  10.674  20.240  0.00  0.00    +0.000 C 
BRANCH  23  24
ATOM     24  C   UNL     1       1.032   9.446  20.019  0.00  0.00    +0.000 A 
ATOM     25  C   UNL     1       1.636   9.108  18.864  0.00  0.00    +0.000 A 
ATOM     26  C   UNL     1       2.382   7.855  18.743  0.00  0.00    +0.000 A 
ATOM     27  C   UNL     1       3.197   7.583  17.644  0.00  0.00    +0.000 A 
ATOM     28  C   UNL     1       3.905   6.374  17.576  0.00  0.00    +0.000 A 
ATOM     29  C   UNL     1       4.893   6.125  16.476  0.00  0.00    +0.000 C 
ATOM     30  C   UNL     1       3.721   5.408  18.577  0.00  0.00    +0.000 A 
ATOM     31  C   UNL     1       2.896   5.669  19.671  0.00  0.00    +0.000 A 
ATOM     32  C   UNL     1       2.271   6.908  19.767  0.00  0.00    +0.000 A 
ATOM     33  N   UNL     1       1.632   7.274  20.956  0.00  0.00    +0.000 N 
ATOM     34  C   UNL     1       1.293   8.578  21.210  0.00  0.00    +0.000 A 
ATOM     35  O   UNL     1       1.211   8.988  22.361  0.00  0.00    +0.000 OA
ATOM     36  H   UNL     1       1.726   6.684  21.771  0.00  0.00    +0.000 HD
ENDBRANCH  23  24
ENDBRANCH   1  23
TORSDOF 8
ENDMDL
MODEL 2
REMARK VINA RESULT:      -8.1      2.133      4.657
REMARK  Name = 
REMARK  14 active torsions:
REMARK  status: ('A' for Active; 'I' for Inactive)
REMARK    1  A    between atoms: C_1  and  O_2
REMARK    2  A    between atoms: O_2  and  C_3
REMARK    3  A    between atoms: C_6  and  C_7
REMARK    4  A    between atoms: C_7  and  C_8
REMARK    5  A    between atoms: C_7  and  N_9
REMARK    6  A    between atoms: N_9  and  C_10
REMARK    7  A    between atoms: N_9  and  C_21
REMARK    8  A    between atoms: C_10  and  C_11
REMARK    9  A    between atoms: C_14  and  C_15
REMARK   10  A    between atoms: C_15  and  C_16
REMARK   11  A    between atoms: C_15  and  C_17
REMARK   12  A    between atoms: C_15  and  C_18
REMARK   13  A    between atoms: C_21  and  C_22
REMARK   14  A    between atoms: C_26  and  C_27
REMARK                            x       y       z     vdW  Elec       q    Type
REMARK                         _______ _______ _______ _____ _____    ______ ____
ROOT
ATOM      1  N   UNL     1       0.302  10.013  18.595  0.00  0.00    +0.000 NA
ENDROOT
BRANCH   1   2
ATOM      2  C   UNL     1       0.042  11.437  18.932  0.00  0.00    +0.000 C 
ATOM      3  C   UNL     1       1.328  12.279  19.087  0.00  0.00    +0.000 C 
BRANCH   2   7
ATOM      4  C   UNL     1      -2.224  11.963  22.607  0.00  0.00    +0.000 A 
ATOM      5  C   UNL     1      -1.124  11.110  22.556  0.00  0.00    +0.000 A 
ATOM      6  C   UNL     1      -0.391  10.973  21.378  0.00  0.00    +0.000 A 
ATOM      7  C   UNL     1      -0.757  11.674  20.216  0.00  0.00    +0.000 A 
ATOM      8  C   UNL     1      -1.902  12.484  20.261  0.00  0.00    +0.000 A 
ATOM      9  C   UNL     1      -2.630  12.630  21.451  0.00  0.00    +0.000 A 
BRANCH   4  11
ATOM     10  C   UNL     1      -3.654  13.175  24.052  0.00  0.00    +0.000 C 
ATOM     11  O   UNL     1      -2.838  12.032  23.826  0.00  0.00    +0.000 OA
ENDBRANCH   4  11
ENDBRANCH   2   7
ENDBRANCH   1   2
BRANCH   1  12
ATOM     12  C   UNL     1      -0.433   9.565  17.381  0.00  0.00    +0.000 C 
BRANCH  12  13
ATOM     13  C   UNL     1      -1.890  10.004  17.366  0.00  0.00    +0.000 A 
ATOM     14  C   UNL     1      -2.304  11.057  16.542  0.00  0.00    +0.000 A 
ATOM     15  C   UNL     1      -3.574  11.620  16.689  0.00  0.00    +0.000 A 
ATOM     16  C   UNL     1      -4.469  11.172  17.675  0.00  0.00    +0.000 A 
ATOM     17  C   UNL     1      -4.089  10.033  18.406  0.00  0.00    +0.000 A 
ATOM     18  C   UNL     1      -2.825   9.444  18.240  0.00  0.00    +0.000 A 
BRANCH  16  19
ATOM     19  C   UNL     1      -5.769  11.925  18.012  0.00  0.00    +0.000 C 
ATOM     20  C   UNL     1      -6.231  12.877  16.886  0.00  0.00    +0.000 C 
ATOM     21  C   UNL     1      -6.914  10.930  18.283  0.00  0.00    +0.000 C 
ATOM     22  C   UNL     1      -5.554  12.793  19.276  0.00  0.00    +0.000 C 
ENDBRANCH  16  19
ENDBRANCH  12  13
ENDBRANCH   1  12
BRANCH   1  23
ATOM     23  C   UNL     1       1.753   9.670  18.513  0.00  0.00    +0.000 C 
BRANCH  23  24
ATOM     24  C   UNL     1       2.162   8.229  18.732  0.00  0.00    +0.000 A 
ATOM     25  C   UNL     1       1.696   7.419  19.703  0.00  0.00    +0.000 A 
ATOM     26  C   UNL     1       2.219   6.063  19.867  0.00  0.00    +0.000 A 
ATOM     27  C   UNL     1       1.609   5.133  20.709  0.00  0.00    +0.000 A 
ATOM     28  C   UNL     1       2.135   3.838  20.825  0.00  0.00    +0.000 A 
ATOM     29  C   UNL     1       1.415   2.785  21.613  0.00  0.00    +0.000 C 
ATOM     30  C   UNL     1       3.325   3.514  20.155  0.00  0.00    +0.000 A 
ATOM     31  C   UNL     1       3.947   4.444  19.323  0.00  0.00    +0.000 A 
ATOM     32  C   UNL     1       3.362   5.694  19.150  0.00  0.00    +0.000 A 
ATOM     33  N   UNL     1       3.836   6.551  18.151  0.00  0.00    +0.000 N 
ATOM     34  C   UNL     1       3.102   7.632  17.734  0.00  0.00    +0.000 A 
ATOM     35  O   UNL     1       3.231   8.070  16.598  0.00  0.00    +0.000 OA
ATOM     36  H   UNL     1       4.522   6.211  17.492  0.00  0.00    +0.000 HD
ENDBRANCH  23  24
ENDBRANCH   1  23
TORSDOF 8
ENDMDL
MODEL 3
REMARK VINA RESULT:      -8.1      3.875      8.632
REMARK  Name = 
REMARK  14 active torsions:
REMARK  status: ('A' for Active; 'I' for Inactive)
REMARK    1  A    between atoms: C_1  and  O_2
REMARK    2  A    between atoms: O_2  and  C_3
REMARK    3  A    between atoms: C_6  and  C_7
REMARK    4  A    between atoms: C_7  and  C_8
REMARK    5  A    between atoms: C_7  and  N_9
REMARK    6  A    between atoms: N_9  and  C_10
REMARK    7  A    between atoms: N_9  and  C_21
REMARK    8  A    between atoms: C_10  and  C_11
REMARK    9  A    between atoms: C_14  and  C_15
REMARK   10  A    between atoms: C_15  and  C_16
REMARK   11  A    between atoms: C_15  and  C_17
REMARK   12  A    between atoms: C_15  and  C_18
REMARK   13  A    between atoms: C_21  and  C_22
REMARK   14  A    between atoms: C_26  and  C_27
REMARK                            x       y       z     vdW  Elec       q    Type
REMARK                         _______ _______ _______ _____ _____    ______ ____
ROOT
ATOM      1  N   UNL     1       3.214   5.709  18.479  0.00  0.00    +0.000 NA
ENDROOT
BRANCH   1   2
ATOM      2  C   UNL     1       2.830   4.280  18.345  0.00  0.00    +0.000 C 
ATOM      3  C   UNL     1       1.303   4.052  18.305  0.00  0.00    +0.000 C 
BRANCH   2   7
ATOM      4  C   UNL     1       4.357   1.552  21.370  0.00  0.00    +0.000 A 
ATOM      5  C   UNL     1       5.099   1.851  20.230  0.00  0.00    +0.000 A 
ATOM      6  C   UNL     1       4.609   2.749  19.283  0.00  0.00    +0.000 A 
ATOM      7  C   UNL     1       3.351   3.353  19.447  0.00  0.00    +0.000 A 
ATOM      8  C   UNL     1       2.586   3.000  20.569  0.00  0.00    +0.000 A 
ATOM      9  C   UNL     1       3.087   2.107  21.528  0.00  0.00    +0.000 A 
BRANCH   4  11
ATOM     10  C   UNL     1       5.978  -0.145  21.682  0.00  0.00    +0.000 C 
ATOM     11  O   UNL     1       4.962   0.684  22.235  0.00  0.00    +0.000 OA
ENDBRANCH   4  11
ENDBRANCH   2   7
ENDBRANCH   1   2
BRANCH   1  12
ATOM     12  C   UNL     1       2.703   6.327  19.733  0.00  0.00    +0.000 C 
BRANCH  12  13
ATOM     13  C   UNL     1       2.068   7.692  19.514  0.00  0.00    +0.000 A 
ATOM     14  C   UNL     1       1.453   8.365  20.575  0.00  0.00    +0.000 A 
ATOM     15  C   UNL     1       0.668   9.497  20.343  0.00  0.00    +0.000 A 
ATOM     16  C   UNL     1       0.448   9.987  19.045  0.00  0.00    +0.000 A 
ATOM     17  C   UNL     1       1.174   9.378  18.006  0.00  0.00    +0.000 A 
ATOM     18  C   UNL     1       1.989   8.259  18.240  0.00  0.00    +0.000 A 
BRANCH  16  19
ATOM     19  C   UNL     1      -0.595  11.078  18.740  0.00  0.00    +0.000 C 
ATOM     20  C   UNL     1       0.031  12.384  18.200  0.00  0.00    +0.000 C 
ATOM     21  C   UNL     1      -1.610  10.578  17.694  0.00  0.00    +0.000 C 
ATOM     22  C   UNL     1      -1.356  11.447  20.037  0.00  0.00    +0.000 C 
ENDBRANCH  16  19
ENDBRANCH  12  13
ENDBRANCH   1  12
BRANCH   1  23
ATOM     23  C   UNL     1       4.675   5.958  18.302  0.00  0.00    +0.000 C 
BRANCH  23  24
ATOM     24  C   UNL     1       5.295   5.657  16.953  0.00  0.00    +0.000 A 
ATOM     25  C   UNL     1       4.820   4.779  16.049  0.00  0.00    +0.000 A 
ATOM     26  C   UNL     1       5.544   4.513  14.806  0.00  0.00    +0.000 A 
ATOM     27  C   UNL     1       4.974   3.787  13.760  0.00  0.00    +0.000 A 
ATOM     28  C   UNL     1       5.700   3.568  12.580  0.00  0.00    +0.000 A 
ATOM     29  C   UNL     1       5.055   2.913  11.394  0.00  0.00    +0.000 C 
ATOM     30  C   UNL     1       7.029   4.009  12.494  0.00  0.00    +0.000 A 
ATOM     31  C   UNL     1       7.608   4.724  13.542  0.00  0.00    +0.000 A 
ATOM     32  C   UNL     1       6.845   5.010  14.669  0.00  0.00    +0.000 A 
ATOM     33  N   UNL     1       7.324   5.914  15.622  0.00  0.00    +0.000 N 
ATOM     34  C   UNL     1       6.492   6.465  16.562  0.00  0.00    +0.000 A 
ATOM     35  O   UNL     1       6.738   7.563  17.045  0.00  0.00    +0.000 OA
ATOM     36  H   UNL     1       8.168   6.435  15.430  0.00  0.00    +0.000 HD
ENDBRANCH  23  24
ENDBRANCH   1  23
TORSDOF 8
ENDMDL
MODEL 4
REMARK VINA RESULT:      -8.0      2.058      8.052
REMARK  Name = 
REMARK  14 active torsions:
REMARK  status: ('A' for Active; 'I' for Inactive)
REMARK    1  A    between atoms: C_1  and  O_2
REMARK    2  A    between atoms: O_2  and  C_3
REMARK    3  A    between atoms: C_6  and  C_7
REMARK    4  A    between atoms: C_7  and  C_8
REMARK    5  A    between atoms: C_7  and  N_9
REMARK    6  A    between atoms: N_9  and  C_10
REMARK    7  A    between atoms: N_9  and  C_21
REMARK    8  A    between atoms: C_10  and  C_11
REMARK    9  A    between atoms: C_14  and  C_15
REMARK   10  A    between atoms: C_15  and  C_16
REMARK   11  A    between atoms: C_15  and  C_17
REMARK   12  A    between atoms: C_15  and  C_18
REMARK   13  A    between atoms: C_21  and  C_22
REMARK   14  A    between atoms: C_26  and  C_27
REMARK                            x       y       z     vdW  Elec       q    Type
REMARK                         _______ _______ _______ _____ _____    ______ ____
ROOT
ATOM      1  N   UNL     1       0.131  11.208  21.226  0.00  0.00    +0.000 NA
ENDROOT
BRANCH   1   2
ATOM      2  C   UNL     1      -0.222  11.194  22.669  0.00  0.00    +0.000 C 
ATOM      3  C   UNL     1      -0.745   9.827  23.163  0.00  0.00    +0.000 C 
BRANCH   2   7
ATOM      4  C   UNL     1      -3.328  14.024  23.793  0.00  0.00    +0.000 A 
ATOM      5  C   UNL     1      -3.604  12.665  23.670  0.00  0.00    +0.000 A 
ATOM      6  C   UNL     1      -2.592  11.766  23.337  0.00  0.00    +0.000 A 
ATOM      7  C   UNL     1      -1.282  12.214  23.097  0.00  0.00    +0.000 A 
ATOM      8  C   UNL     1      -1.027  13.592  23.165  0.00  0.00    +0.000 A 
ATOM      9  C   UNL     1      -2.045  14.493  23.514  0.00  0.00    +0.000 A 
BRANCH   4  11
ATOM     10  C   UNL     1      -4.798  15.790  23.222  0.00  0.00    +0.000 C 
ATOM     11  O   UNL     1      -4.398  14.794  24.156  0.00  0.00    +0.000 OA
ENDBRANCH   4  11
ENDBRANCH   2   7
ENDBRANCH   1   2
BRANCH   1  12
ATOM     12  C   UNL     1      -0.321   9.984  20.511  0.00  0.00    +0.000 C 
BRANCH  12  13
ATOM     13  C   UNL     1       0.829   9.109  20.034  0.00  0.00    +0.000 A 
ATOM     14  C   UNL     1       1.357   9.271  18.748  0.00  0.00    +0.000 A 
ATOM     15  C   UNL     1       2.243   8.332  18.217  0.00  0.00    +0.000 A 
ATOM     16  C   UNL     1       2.619   7.184  18.935  0.00  0.00    +0.000 A 
ATOM     17  C   UNL     1       2.183   7.101  20.270  0.00  0.00    +0.000 A 
ATOM     18  C   UNL     1       1.316   8.060  20.818  0.00  0.00    +0.000 A 
BRANCH  16  19
ATOM     19  C   UNL     1       3.397   6.024  18.290  0.00  0.00    +0.000 C 
ATOM     20  C   UNL     1       4.241   6.461  17.070  0.00  0.00    +0.000 C 
ATOM     21  C   UNL     1       4.353   5.380  19.312  0.00  0.00    +0.000 C 
ATOM     22  C   UNL     1       2.405   4.947  17.787  0.00  0.00    +0.000 C 
ENDBRANCH  16  19
ENDBRANCH  12  13
ENDBRANCH   1  12
BRANCH   1  23
ATOM     23  C   UNL     1      -0.300  12.448  20.514  0.00  0.00    +0.000 C 
BRANCH  23  24
ATOM     24  C   UNL     1      -1.498  12.364  19.591  0.00  0.00    +0.000 A 
ATOM     25  C   UNL     1      -2.788  12.342  19.978  0.00  0.00    +0.000 A 
ATOM     26  C   UNL     1      -3.864  12.183  19.000  0.00  0.00    +0.000 A 
ATOM     27  C   UNL     1      -5.204  12.378  19.338  0.00  0.00    +0.000 A 
ATOM     28  C   UNL     1      -6.203  12.229  18.365  0.00  0.00    +0.000 A 
ATOM     29  C   UNL     1      -7.630  12.571  18.673  0.00  0.00    +0.000 C 
ATOM     30  C   UNL     1      -5.853  11.800  17.076  0.00  0.00    +0.000 A 
ATOM     31  C   UNL     1      -4.516  11.590  16.737  0.00  0.00    +0.000 A 
ATOM     32  C   UNL     1      -3.531  11.829  17.688  0.00  0.00    +0.000 A 
ATOM     33  N   UNL     1      -2.186  11.849  17.307  0.00  0.00    +0.000 N 
ATOM     34  C   UNL     1      -1.223  12.389  18.120  0.00  0.00    +0.000 A 
ATOM     35  O   UNL     1      -0.197  12.858  17.644  0.00  0.00    +0.000 OA
ATOM     36  H   UNL     1      -1.949  11.801  16.326  0.00  0.00    +0.000 HD
ENDBRANCH  23  24
ENDBRANCH   1  23
TORSDOF 8
ENDMDL
MODEL 5
REMARK VINA RESULT:      -8.0      3.838      8.511
REMARK  Name = 
REMARK  14 active torsions:
REMARK  status: ('A' for Active; 'I' for Inactive)
REMARK    1  A    between atoms: C_1  and  O_2
REMARK    2  A    between atoms: O_2  and  C_3
REMARK    3  A    between atoms: C_6  and  C_7
REMARK    4  A    between atoms: C_7  and  C_8
REMARK    5  A    between atoms: C_7  and  N_9
REMARK    6  A    between atoms: N_9  and  C_10
REMARK    7  A    between atoms: N_9  and  C_21
REMARK    8  A    between atoms: C_10  and  C_11
REMARK    9  A    between atoms: C_14  and  C_15
REMARK   10  A    between atoms: C_15  and  C_16
REMARK   11  A    between atoms: C_15  and  C_17
REMARK   12  A    between atoms: C_15  and  C_18
REMARK   13  A    between atoms: C_21  and  C_22
REMARK   14  A    between atoms: C_26  and  C_27
REMARK                            x       y       z     vdW  Elec       q    Type
REMARK                         _______ _______ _______ _____ _____    ______ ____
ROOT
ATOM      1  N   UNL     1       3.235   5.906  18.342  0.00  0.00    +0.000 NA
ENDROOT
BRANCH   1   2
ATOM      2  C   UNL     1       2.786   4.507  18.126  0.00  0.00    +0.000 C 
ATOM      3  C   UNL     1       1.250   4.342  18.141  0.00  0.00    +0.000 C 
BRANCH   2   7
ATOM      4  C   UNL     1       4.271   1.700  21.098  0.00  0.00    +0.000 A 
ATOM      5  C   UNL     1       3.166   2.506  21.359  0.00  0.00    +0.000 A 
ATOM      6  C   UNL     1       2.685   3.381  20.386  0.00  0.00    +0.000 A 
ATOM      7  C   UNL     1       3.315   3.482  19.134  0.00  0.00    +0.000 A 
ATOM      8  C   UNL     1       4.462   2.709  18.903  0.00  0.00    +0.000 A 
ATOM      9  C   UNL     1       4.937   1.820  19.878  0.00  0.00    +0.000 A 
BRANCH   4  11
ATOM     10  C   UNL     1       5.958   0.370  22.095  0.00  0.00    +0.000 C 
ATOM     11  O   UNL     1       4.624   0.864  22.121  0.00  0.00    +0.000 OA
ENDBRANCH   4  11
ENDBRANCH   2   7
ENDBRANCH   1   2
BRANCH   1  12
ATOM     12  C   UNL     1       2.758   6.471  19.634  0.00  0.00    +0.000 C 
BRANCH  12  13
ATOM     13  C   UNL     1       2.066   7.818  19.480  0.00  0.00    +0.000 A 
ATOM     14  C   UNL     1       1.371   8.383  20.555  0.00  0.00    +0.000 A 
ATOM     15  C   UNL     1       0.543   9.492  20.365  0.00  0.00    +0.000 A 
ATOM     16  C   UNL     1       0.358  10.064  19.095  0.00  0.00    +0.000 A 
ATOM     17  C   UNL     1       1.160   9.567  18.052  0.00  0.00    +0.000 A 
ATOM     18  C   UNL     1       2.017   8.472  18.247  0.00  0.00    +0.000 A 
BRANCH  16  19
ATOM     19  C   UNL     1      -0.721  11.125  18.817  0.00  0.00    +0.000 C 
ATOM     20  C   UNL     1      -1.505  11.542  20.082  0.00  0.00    +0.000 C 
ATOM     21  C   UNL     1      -0.088  12.397  18.220  0.00  0.00    +0.000 C 
ATOM     22  C   UNL     1      -1.756  10.564  17.812  0.00  0.00    +0.000 C 
ENDBRANCH  16  19
ENDBRANCH  12  13
ENDBRANCH   1  12
BRANCH   1  23
ATOM     23  C   UNL     1       4.706   6.098  18.172  0.00  0.00    +0.000 C 
BRANCH  23  24
ATOM     24  C   UNL     1       5.327   5.732  16.840  0.00  0.00    +0.000 A 
ATOM     25  C   UNL     1       4.828   4.845  15.958  0.00  0.00    +0.000 A 
ATOM     26  C   UNL     1       5.554   4.513  14.732  0.00  0.00    +0.000 A 
ATOM     27  C   UNL     1       4.967   3.777  13.702  0.00  0.00    +0.000 A 
ATOM     28  C   UNL     1       5.695   3.493  12.538  0.00  0.00    +0.000 A 
ATOM     29  C   UNL     1       5.038   2.827  11.366  0.00  0.00    +0.000 C 
ATOM     30  C   UNL     1       7.041   3.881  12.453  0.00  0.00    +0.000 A 
ATOM     31  C   UNL     1       7.637   4.605  13.486  0.00  0.00    +0.000 A 
ATOM     32  C   UNL     1       6.874   4.955  14.594  0.00  0.00    +0.000 A 
ATOM     33  N   UNL     1       7.379   5.868  15.525  0.00  0.00    +0.000 N 
ATOM     34  C   UNL     1       6.559   6.481  16.438  0.00  0.00    +0.000 A 
ATOM     35  O   UNL     1       6.843   7.583  16.890  0.00  0.00    +0.000 OA
ATOM     36  H   UNL     1       8.243   6.351  15.326  0.00  0.00    +0.000 HD
ENDBRANCH  23  24
ENDBRANCH   1  23
TORSDOF 8
ENDMDL
MODEL 6
REMARK VINA RESULT:      -8.0      2.294      4.677
REMARK  Name = 
REMARK  14 active torsions:
REMARK  status: ('A' for Active; 'I' for Inactive)
REMARK    1  A    between atoms: C_1  and  O_2
REMARK    2  A    between atoms: O_2  and  C_3
REMARK    3  A    between atoms: C_6  and  C_7
REMARK    4  A    between atoms: C_7  and  C_8
REMARK    5  A    between atoms: C_7  and  N_9
REMARK    6  A    between atoms: N_9  and  C_10
REMARK    7  A    between atoms: N_9  and  C_21
REMARK    8  A    between atoms: C_10  and  C_11
REMARK    9  A    between atoms: C_14  and  C_15
REMARK   10  A    between atoms: C_15  and  C_16
REMARK   11  A    between atoms: C_15  and  C_17
REMARK   12  A    between atoms: C_15  and  C_18
REMARK   13  A    between atoms: C_21  and  C_22
REMARK   14  A    between atoms: C_26  and  C_27
REMARK                            x       y       z     vdW  Elec       q    Type
REMARK                         _______ _______ _______ _____ _____    ______ ____
ROOT
ATOM      1  N   UNL     1      -0.985  11.081  18.751  0.00  0.00    +0.000 NA
ENDROOT
BRANCH   1   2
ATOM      2  C   UNL     1      -2.185  10.363  18.252  0.00  0.00    +0.000 C 
ATOM      3  C   UNL     1      -2.035   9.840  16.806  0.00  0.00    +0.000 C 
BRANCH   2   7
ATOM      4  C   UNL     1      -5.836  12.726  18.148  0.00  0.00    +0.000 A 
ATOM      5  C   UNL     1      -5.324  12.141  16.992  0.00  0.00    +0.000 A 
ATOM      6  C   UNL     1      -4.169  11.362  17.046  0.00  0.00    +0.000 A 
ATOM      7  C   UNL     1      -3.486  11.171  18.260  0.00  0.00    +0.000 A 
ATOM      8  C   UNL     1      -3.976  11.813  19.407  0.00  0.00    +0.000 A 
ATOM      9  C   UNL     1      -5.147  12.584  19.352  0.00  0.00    +0.000 A 
BRANCH   4  11
ATOM     10  C   UNL     1      -6.918  14.829  18.248  0.00  0.00    +0.000 C 
ATOM     11  O   UNL     1      -6.989  13.436  17.966  0.00  0.00    +0.000 OA
ENDBRANCH   4  11
ENDBRANCH   2   7
ENDBRANCH   1   2
BRANCH   1  12
ATOM     12  C   UNL     1      -1.214  12.543  18.911  0.00  0.00    +0.000 C 
BRANCH  12  13
ATOM     13  C   UNL     1       0.075  13.350  18.960  0.00  0.00    +0.000 A 
ATOM     14  C   UNL     1       0.072  14.661  19.449  0.00  0.00    +0.000 A 
ATOM     15  C   UNL     1       1.185  15.487  19.283  0.00  0.00    +0.000 A 
ATOM     16  C   UNL     1       2.335  15.048  18.605  0.00  0.00    +0.000 A 
ATOM     17  C   UNL     1       2.372  13.692  18.234  0.00  0.00    +0.000 A 
ATOM     18  C   UNL     1       1.265  12.850  18.427  0.00  0.00    +0.000 A 
BRANCH  16  19
ATOM     19  C   UNL     1       3.473  16.003  18.203  0.00  0.00    +0.000 C 
ATOM     20  C   UNL     1       3.104  16.926  17.020  0.00  0.00    +0.000 C 
ATOM     21  C   UNL     1       3.868  16.902  19.391  0.00  0.00    +0.000 C 
ATOM     22  C   UNL     1       4.710  15.183  17.765  0.00  0.00    +0.000 C 
ENDBRANCH  16  19
ENDBRANCH  12  13
ENDBRANCH   1  12
BRANCH   1  23
ATOM     23  C   UNL     1      -0.395  10.482  19.985  0.00  0.00    +0.000 C 
BRANCH  23  24
ATOM     24  C   UNL     1       0.655   9.402  19.826  0.00  0.00    +0.000 A 
ATOM     25  C   UNL     1       1.315   9.110  18.689  0.00  0.00    +0.000 A 
ATOM     26  C   UNL     1       2.258   7.993  18.632  0.00  0.00    +0.000 A 
ATOM     27  C   UNL     1       3.115   7.804  17.547  0.00  0.00    +0.000 A 
ATOM     28  C   UNL     1       4.013   6.727  17.541  0.00  0.00    +0.000 A 
ATOM     29  C   UNL     1       5.037   6.589  16.453  0.00  0.00    +0.000 C 
ATOM     30  C   UNL     1       3.984   5.796  18.590  0.00  0.00    +0.000 A 
ATOM     31  C   UNL     1       3.119   5.973  19.670  0.00  0.00    +0.000 A 
ATOM     32  C   UNL     1       2.298   7.095  19.703  0.00  0.00    +0.000 A 
ATOM     33  N   UNL     1       1.599   7.410  20.873  0.00  0.00    +0.000 N 
ATOM     34  C   UNL     1       1.047   8.652  21.059  0.00  0.00    +0.000 A 
ATOM     35  O   UNL     1       0.890   9.100  22.188  0.00  0.00    +0.000 OA
ATOM     36  H   UNL     1       1.783   6.886  21.716  0.00  0.00    +0.000 HD
ENDBRANCH  23  24
ENDBRANCH   1  23
TORSDOF 8
ENDMDL
MODEL 7
REMARK VINA RESULT:      -8.0      1.899      8.047
REMARK  Name = 
REMARK  14 active torsions:
REMARK  status: ('A' for Active; 'I' for Inactive)
REMARK    1  A    between atoms: C_1  and  O_2
REMARK    2  A    between atoms: O_2  and  C_3
REMARK    3  A    between atoms: C_6  and  C_7
REMARK    4  A    between atoms: C_7  and  C_8
REMARK    5  A    between atoms: C_7  and  N_9
REMARK    6  A    between atoms: N_9  and  C_10
REMARK    7  A    between atoms: N_9  and  C_21
REMARK    8  A    between atoms: C_10  and  C_11
REMARK    9  A    between atoms: C_14  and  C_15
REMARK   10  A    between atoms: C_15  and  C_16
REMARK   11  A    between atoms: C_15  and  C_17
REMARK   12  A    between atoms: C_15  and  C_18
REMARK   13  A    between atoms: C_21  and  C_22
REMARK   14  A    between atoms: C_26  and  C_27
REMARK                            x       y       z     vdW  Elec       q    Type
REMARK                         _______ _______ _______ _____ _____    ______ ____
ROOT
ATOM      1  N   UNL     1       0.038  11.932  19.014  0.00  0.00    +0.000 NA
ENDROOT
BRANCH   1   2
ATOM      2  C   UNL     1       0.313  12.874  20.129  0.00  0.00    +0.000 C 
ATOM      3  C   UNL     1       1.609  12.551  20.905  0.00  0.00    +0.000 C 
BRANCH   2   7
ATOM      4  C   UNL     1      -2.746  13.284  23.194  0.00  0.00    +0.000 A 
ATOM      5  C   UNL     1      -2.385  14.362  22.390  0.00  0.00    +0.000 A 
ATOM      6  C   UNL     1      -1.423  14.208  21.393  0.00  0.00    +0.000 A 
ATOM      7  C   UNL     1      -0.784  12.972  21.193  0.00  0.00    +0.000 A 
ATOM      8  C   UNL     1      -1.113  11.909  22.048  0.00  0.00    +0.000 A 
ATOM      9  C   UNL     1      -2.091  12.063  23.041  0.00  0.00    +0.000 A 
BRANCH   4  11
ATOM     10  C   UNL     1      -4.338  12.431  24.724  0.00  0.00    +0.000 C 
ATOM     11  O   UNL     1      -3.723  13.557  24.111  0.00  0.00    +0.000 OA
ENDBRANCH   4  11
ENDBRANCH   2   7
ENDBRANCH   1   2
BRANCH   1  12
ATOM     12  C   UNL     1      -0.317  10.566  19.488  0.00  0.00    +0.000 C 
BRANCH  12  13
ATOM     13  C   UNL     1       0.792   9.548  19.266  0.00  0.00    +0.000 A 
ATOM     14  C   UNL     1       1.383   9.408  18.006  0.00  0.00    +0.000 A 
ATOM     15  C   UNL     1       2.227   8.329  17.730  0.00  0.00    +0.000 A 
ATOM     16  C   UNL     1       2.494   7.338  18.690  0.00  0.00    +0.000 A 
ATOM     17  C   UNL     1       1.997   7.561  19.986  0.00  0.00    +0.000 A 
ATOM     18  C   UNL     1       1.174   8.661  20.276  0.00  0.00    +0.000 A 
BRANCH  16  19
ATOM     19  C   UNL     1       3.221   6.027  18.342  0.00  0.00    +0.000 C 
ATOM     20  C   UNL     1       2.266   4.910  17.862  0.00  0.00    +0.000 C 
ATOM     21  C   UNL     1       4.260   6.264  17.229  0.00  0.00    +0.000 C 
ATOM     22  C   UNL     1       3.949   5.487  19.597  0.00  0.00    +0.000 C 
ENDBRANCH  16  19
ENDBRANCH  12  13
ENDBRANCH   1  12
BRANCH   1  23
ATOM     23  C   UNL     1      -0.959  12.444  18.026  0.00  0.00    +0.000 C 
BRANCH  23  24
ATOM     24  C   UNL     1      -2.415  12.075  18.222  0.00  0.00    +0.000 A 
ATOM     25  C   UNL     1      -3.202  12.493  19.231  0.00  0.00    +0.000 A 
ATOM     26  C   UNL     1      -4.577  12.013  19.361  0.00  0.00    +0.000 A 
ATOM     27  C   UNL     1      -5.480  12.590  20.255  0.00  0.00    +0.000 A 
ATOM     28  C   UNL     1      -6.794  12.106  20.337  0.00  0.00    +0.000 A 
ATOM     29  C   UNL     1      -7.816  12.802  21.186  0.00  0.00    +0.000 C 
ATOM     30  C   UNL     1      -7.167  10.987  19.577  0.00  0.00    +0.000 A 
ATOM     31  C   UNL     1      -6.264  10.398  18.692  0.00  0.00    +0.000 A 
ATOM     32  C   UNL     1      -4.993  10.946  18.558  0.00  0.00    +0.000 A 
ATOM     33  N   UNL     1      -4.159  10.519  17.520  0.00  0.00    +0.000 N 
ATOM     34  C   UNL     1      -3.051  11.241  17.155  0.00  0.00    +0.000 A 
ATOM     35  O   UNL     1      -2.622  11.186  16.010  0.00  0.00    +0.000 OA
ATOM     36  H   UNL     1      -4.527   9.901  16.811  0.00  0.00    +0.000 HD
ENDBRANCH  23  24
ENDBRANCH   1  23
TORSDOF 8
ENDMDL
MODEL 8
REMARK VINA RESULT:      -8.0      1.746      6.856
REMARK  Name = 
REMARK  14 active torsions:
REMARK  status: ('A' for Active; 'I' for Inactive)
REMARK    1  A    between atoms: C_1  and  O_2
REMARK    2  A    between atoms: O_2  and  C_3
REMARK    3  A    between atoms: C_6  and  C_7
REMARK    4  A    between atoms: C_7  and  C_8
REMARK    5  A    between atoms: C_7  and  N_9
REMARK    6  A    between atoms: N_9  and  C_10
REMARK    7  A    between atoms: N_9  and  C_21
REMARK    8  A    between atoms: C_10  and  C_11
REMARK    9  A    between atoms: C_14  and  C_15
REMARK   10  A    between atoms: C_15  and  C_16
REMARK   11  A    between atoms: C_15  and  C_17
REMARK   12  A    between atoms: C_15  and  C_18
REMARK   13  A    between atoms: C_21  and  C_22
REMARK   14  A    between atoms: C_26  and  C_27
REMARK                            x       y       z     vdW  Elec       q    Type
REMARK                         _______ _______ _______ _____ _____    ______ ____
ROOT
ATOM      1  N   UNL     1       0.142  11.061  19.578  0.00  0.00    +0.000 NA
ENDROOT
BRANCH   1   2
ATOM      2  C   UNL     1       1.050  10.139  18.848  0.00  0.00    +0.000 C 
ATOM      3  C   UNL     1       0.533   9.744  17.447  0.00  0.00    +0.000 C 
BRANCH   2   7
ATOM      4  C   UNL     1       1.893   6.311  20.733  0.00  0.00    +0.000 A 
ATOM      5  C   UNL     1       2.428   6.633  19.489  0.00  0.00    +0.000 A 
ATOM      6  C   UNL     1       2.172   7.875  18.910  0.00  0.00    +0.000 A 
ATOM      7  C   UNL     1       1.354   8.817  19.558  0.00  0.00    +0.000 A 
ATOM      8  C   UNL     1       0.771   8.459  20.783  0.00  0.00    +0.000 A 
ATOM      9  C   UNL     1       1.041   7.214  21.370  0.00  0.00    +0.000 A 
BRANCH   4  11
ATOM     10  C   UNL     1       2.189   4.009  20.267  0.00  0.00    +0.000 C 
ATOM     11  O   UNL     1       2.244   5.077  21.205  0.00  0.00    +0.000 OA
ENDBRANCH   4  11
ENDBRANCH   2   7
ENDBRANCH   1   2
BRANCH   1  12
ATOM     12  C   UNL     1       0.833  11.810  20.664  0.00  0.00    +0.000 C 
BRANCH  12  13
ATOM     13  C   UNL     1      -0.114  12.303  21.748  0.00  0.00    +0.000 A 
ATOM     14  C   UNL     1      -0.940  11.403  22.430  0.00  0.00    +0.000 A 
ATOM     15  C   UNL     1      -1.971  11.863  23.253  0.00  0.00    +0.000 A 
ATOM     16  C   UNL     1      -2.233  13.235  23.408  0.00  0.00    +0.000 A 
ATOM     17  C   UNL     1      -1.317  14.125  22.821  0.00  0.00    +0.000 A 
ATOM     18  C   UNL     1      -0.261  13.665  22.018  0.00  0.00    +0.000 A 
BRANCH  16  19
ATOM     19  C   UNL     1      -3.498  13.759  24.111  0.00  0.00    +0.000 C 
ATOM     20  C   UNL     1      -4.470  12.634  24.533  0.00  0.00    +0.000 C 
ATOM     21  C   UNL     1      -3.122  14.552  25.378  0.00  0.00    +0.000 C 
ATOM     22  C   UNL     1      -4.277  14.691  23.152  0.00  0.00    +0.000 C 
ENDBRANCH  16  19
ENDBRANCH  12  13
ENDBRANCH   1  12
BRANCH   1  23
ATOM     23  C   UNL     1      -0.627  11.979  18.686  0.00  0.00    +0.000 C 
BRANCH  23  24
ATOM     24  C   UNL     1      -2.138  11.879  18.687  0.00  0.00    +0.000 A 
ATOM     25  C   UNL     1      -2.952  12.306  19.671  0.00  0.00    +0.000 A 
ATOM     26  C   UNL     1      -4.397  12.090  19.599  0.00  0.00    +0.000 A 
ATOM     27  C   UNL     1      -5.282  12.710  20.483  0.00  0.00    +0.000 A 
ATOM     28  C   UNL     1      -6.662  12.486  20.368  0.00  0.00    +0.000 A 
ATOM     29  C   UNL     1      -7.635  13.250  21.215  0.00  0.00    +0.000 C 
ATOM     30  C   UNL     1      -7.136  11.570  19.417  0.00  0.00    +0.000 A 
ATOM     31  C   UNL     1      -6.255  10.937  18.540  0.00  0.00    +0.000 A 
ATOM     32  C   UNL     1      -4.899  11.239  18.609  0.00  0.00    +0.000 A 
ATOM     33  N   UNL     1      -4.037  10.798  17.600  0.00  0.00    +0.000 N 
ATOM     34  C   UNL     1      -2.782  11.332  17.453  0.00  0.00    +0.000 A 
ATOM     35  O   UNL     1      -2.236  11.345  16.357  0.00  0.00    +0.000 OA
ATOM     36  H   UNL     1      -4.423  10.362  16.775  0.00  0.00    +0.000 HD
ENDBRANCH  23  24
ENDBRANCH   1  23
TORSDOF 8
ENDMDL
MODEL 9
REMARK VINA RESULT:      -7.9      1.818      8.068
REMARK  Name = 
REMARK  14 active torsions:
REMARK  status: ('A' for Active; 'I' for Inactive)
REMARK    1  A    between atoms: C_1  and  O_2
REMARK    2  A    between atoms: O_2  and  C_3
REMARK    3  A    between atoms: C_6  and  C_7
REMARK    4  A    between atoms: C_7  and  C_8
REMARK    5  A    between atoms: C_7  and  N_9
REMARK    6  A    between atoms: N_9  and  C_10
REMARK    7  A    between atoms: N_9  and  C_21
REMARK    8  A    between atoms: C_10  and  C_11
REMARK    9  A    between atoms: C_14  and  C_15
REMARK   10  A    between atoms: C_15  and  C_16
REMARK   11  A    between atoms: C_15  and  C_17
REMARK   12  A    between atoms: C_15  and  C_18
REMARK   13  A    between atoms: C_21  and  C_22
REMARK   14  A    between atoms: C_26  and  C_27
REMARK                            x       y       z     vdW  Elec       q    Type
REMARK                         _______ _______ _______ _____ _____    ______ ____
ROOT
ATOM      1  N   UNL     1       0.561  10.028  20.377  0.00  0.00    +0.000 NA
ENDROOT
BRANCH   1   2
ATOM      2  C   UNL     1       0.762  10.286  18.928  0.00  0.00    +0.000 C 
ATOM      3  C   UNL     1       1.638  11.525  18.637  0.00  0.00    +0.000 C 
BRANCH   2   7
ATOM      4  C   UNL     1      -2.808  10.802  16.496  0.00  0.00    +0.000 A 
ATOM      5  C   UNL     1      -2.120   9.591  16.516  0.00  0.00    +0.000 A 
ATOM      6  C   UNL     1      -0.994   9.432  17.322  0.00  0.00    +0.000 A 
ATOM      7  C   UNL     1      -0.518  10.493  18.112  0.00  0.00    +0.000 A 
ATOM      8  C   UNL     1      -1.183  11.726  18.039  0.00  0.00    +0.000 A 
ATOM      9  C   UNL     1      -2.324  11.880  17.238  0.00  0.00    +0.000 A 
BRANCH   4  11
ATOM     10  C   UNL     1      -3.796  10.127  14.454  0.00  0.00    +0.000 C 
ATOM     11  O   UNL     1      -3.912  10.819  15.691  0.00  0.00    +0.000 OA
ENDBRANCH   4  11
ENDBRANCH   2   7
ENDBRANCH   1   2
BRANCH   1  12
ATOM     12  C   UNL     1       1.595   9.124  20.950  0.00  0.00    +0.000 C 
BRANCH  12  13
ATOM     13  C   UNL     1       1.770   7.836  20.159  0.00  0.00    +0.000 A 
ATOM     14  C   UNL     1       1.519   6.597  20.759  0.00  0.00    +0.000 A 
ATOM     15  C   UNL     1       1.896   5.409  20.128  0.00  0.00    +0.000 A 
ATOM     16  C   UNL     1       2.559   5.411  18.889  0.00  0.00    +0.000 A 
ATOM     17  C   UNL     1       2.688   6.653  18.242  0.00  0.00    +0.000 A 
ATOM     18  C   UNL     1       2.281   7.846  18.859  0.00  0.00    +0.000 A 
BRANCH  16  19
ATOM     19  C   UNL     1       3.193   4.143  18.290  0.00  0.00    +0.000 C 
ATOM     20  C   UNL     1       4.097   3.385  19.288  0.00  0.00    +0.000 C 
ATOM     21  C   UNL     1       2.100   3.167  17.814  0.00  0.00    +0.000 C 
ATOM     22  C   UNL     1       4.081   4.527  17.081  0.00  0.00    +0.000 C 
ENDBRANCH  16  19
ENDBRANCH  12  13
ENDBRANCH   1  12
BRANCH   1  23
ATOM     23  C   UNL     1       0.407  11.269  21.193  0.00  0.00    +0.000 C 
BRANCH  23  24
ATOM     24  C   UNL     1      -0.970  11.616  21.717  0.00  0.00    +0.000 A 
ATOM     25  C   UNL     1      -1.923  12.286  21.040  0.00  0.00    +0.000 A 
ATOM     26  C   UNL     1      -3.195  12.632  21.675  0.00  0.00    +0.000 A 
ATOM     27  C   UNL     1      -4.277  13.122  20.943  0.00  0.00    +0.000 A 
ATOM     28  C   UNL     1      -5.483  13.427  21.590  0.00  0.00    +0.000 A 
ATOM     29  C   UNL     1      -6.697  13.820  20.803  0.00  0.00    +0.000 C 
ATOM     30  C   UNL     1      -5.565  13.316  22.987  0.00  0.00    +0.000 A 
ATOM     31  C   UNL     1      -4.481  12.840  23.725  0.00  0.00    +0.000 A 
ATOM     32  C   UNL     1      -3.323  12.458  23.057  0.00  0.00    +0.000 A 
ATOM     33  N   UNL     1      -2.320  11.767  23.745  0.00  0.00    +0.000 N 
ATOM     34  C   UNL     1      -1.329  11.098  23.074  0.00  0.00    +0.000 A 
ATOM     35  O   UNL     1      -0.777  10.129  23.582  0.00  0.00    +0.000 OA
ATOM     36  H   UNL     1      -2.493  11.454  24.690  0.00  0.00    +0.000 HD
ENDBRANCH  23  24
ENDBRANCH   1  23
TORSDOF 8
ENDMDL
