MODEL 1
REMARK VINA RESULT:      -7.3      0.000      0.000
REMARK  Name = 
REMARK  10 active torsions:
REMARK  status: ('A' for Active; 'I' for Inactive)
REMARK    1  A    between atoms: C_1  and  C_2
REMARK    2  A    between atoms: C_2  and  O_3
REMARK    3  A    between atoms: O_3  and  C_4
REMARK    4  A    between atoms: C_4  and  C_5
REMARK    5  A    between atoms: N_7  and  C_8
REMARK    6  A    between atoms: C_8  and  C_9
REMARK    7  A    between atoms: C_9  and  N_10
REMARK    8  A    between atoms: N_10  and  C_11
REMARK    9  A    between atoms: C_11  and  C_12
REMARK   10  A    between atoms: C_11  and  C_13
REMARK                            x       y       z     vdW  Elec       q    Type
REMARK                         _______ _______ _______ _____ _____    ______ ____
ROOT
ATOM      1  C   UNL     1       3.367   4.078  19.052  0.00  0.00    +0.000 C 
ATOM      2  C   UNL     1       2.517   4.161  20.364  0.00  0.00    +0.000 C 
ATOM      3  C   UNL     1       1.083   3.654  20.221  0.00  0.00    +0.000 C 
ATOM      4  O   UNL     1       1.043   2.353  19.642  0.00  0.00    +0.000 OA
ATOM      5  C   UNL     1       1.630   2.347  18.343  0.00  0.00    +0.000 C 
ATOM      6  C   UNL     1       3.110   2.663  18.473  0.00  0.00    +0.000 C 
ENDROOT
BRANCH   1   7
ATOM      7  N   UNL     1       2.929   5.196  18.143  0.00  0.00    +0.000 NA
ATOM      8  H   UNL     1       1.929   5.328  18.318  0.00  0.00    +0.000 HD
BRANCH   7   9
ATOM      9  C   UNL     1       3.518   6.547  18.359  0.00  0.00    +0.000 C 
ATOM     10  C   UNL     1       4.324   7.118  17.182  0.00  0.00    +0.000 C 
BRANCH   9  11
ATOM     11  C   UNL     1       2.433   7.600  18.647  0.00  0.00    +0.000 A 
ATOM     12  C   UNL     1       1.951   7.773  19.960  0.00  0.00    +0.000 A 
ATOM     13  C   UNL     1       1.142   8.864  20.283  0.00  0.00    +0.000 A 
ATOM     14  C   UNL     1       0.795   9.795  19.305  0.00  0.00    +0.000 A 
ATOM     15  C   UNL     1       1.230   9.618  17.994  0.00  0.00    +0.000 A 
ATOM     16  C   UNL     1       2.031   8.521  17.664  0.00  0.00    +0.000 A 
ENDBRANCH   9  11
ENDBRANCH   7   9
ENDBRANCH   1   7
BRANCH   1  17
ATOM     17  C   UNL     1       4.874   4.159  19.459  0.00  0.00    +0.000 C 
BRANCH  17  20
ATOM     18  C   UNL     1       7.001   4.684  18.335  0.00  0.00    +0.000 C 
ATOM     19  O   UNL     1       7.460   5.279  19.305  0.00  0.00    +0.000 OA
ATOM     20  N   UNL     1       5.801   3.992  18.350  0.00  0.00    +0.000 N 
ATOM     21  H   UNL     1       5.424   3.783  17.431  0.00  0.00    +0.000 HD
BRANCH  18  22
ATOM     22  C   UNL     1       7.727   4.622  16.989  0.00  0.00    +0.000 C 
BRANCH  22  23
ATOM     23  O   UNL     1       7.158   5.458  15.984  0.00  0.00    +0.000 OA
BRANCH  23  25
ATOM     24  C   UNL     1       5.465   4.528  14.568  0.00  0.00    +0.000 C 
ATOM     25  C   UNL     1       6.953   4.757  14.754  0.00  0.00    +0.000 C 
ENDBRANCH  23  25
ENDBRANCH  22  23
ENDBRANCH  18  22
ENDBRANCH  17  20
ENDBRANCH   1  17
TORSDOF 8
ENDMDL
MODEL 2
REMARK VINA RESULT:      -7.0      1.237      1.992
REMARK  Name = 
REMARK  10 active torsions:
REMARK  status: ('A' for Active; 'I' for Inactive)
REMARK    1  A    between atoms: C_1  and  C_2
REMARK    2  A    between atoms: C_2  and  O_3
REMARK    3  A    between atoms: O_3  and  C_4
REMARK    4  A    between atoms: C_4  and  C_5
REMARK    5  A    between atoms: N_7  and  C_8
REMARK    6  A    between atoms: C_8  and  C_9
REMARK    7  A    between atoms: C_9  and  N_10
REMARK    8  A    between atoms: N_10  and  C_11
REMARK    9  A    between atoms: C_11  and  C_12
REMARK   10  A    between atoms: C_11  and  C_13
REMARK                            x       y       z     vdW  Elec       q    Type
REMARK                         _______ _______ _______ _____ _____    ______ ____
ROOT
ATOM      1  C   UNL     1       2.647   4.017  18.469  0.00  0.00    +0.000 C 
ATOM      2  C   UNL     1       3.337   4.100  19.872  0.00  0.00    +0.000 C 
ATOM      3  C   UNL     1       2.367   4.163  21.050  0.00  0.00    +0.000 C 
ATOM      4  O   UNL     1       1.403   3.114  20.991  0.00  0.00    +0.000 OA
ATOM      5  C   UNL     1       0.630   3.190  19.796  0.00  0.00    +0.000 C 
ATOM      6  C   UNL     1       1.541   2.939  18.607  0.00  0.00    +0.000 C 
ENDROOT
BRANCH   1   7
ATOM      7  N   UNL     1       2.123   5.386  18.126  0.00  0.00    +0.000 NA
ATOM      8  H   UNL     1       1.243   5.489  18.639  0.00  0.00    +0.000 HD
BRANCH   7   9
ATOM      9  C   UNL     1       2.927   6.569  18.541  0.00  0.00    +0.000 C 
ATOM     10  C   UNL     1       3.787   7.210  17.440  0.00  0.00    +0.000 C 
BRANCH   9  11
ATOM     11  C   UNL     1       2.034   7.708  19.062  0.00  0.00    +0.000 A 
ATOM     12  C   UNL     1       1.646   7.736  20.417  0.00  0.00    +0.000 A 
ATOM     13  C   UNL     1       1.032   8.866  20.959  0.00  0.00    +0.000 A 
ATOM     14  C   UNL     1       0.789   9.984  20.162  0.00  0.00    +0.000 A 
ATOM     15  C   UNL     1       1.130   9.960  18.812  0.00  0.00    +0.000 A 
ATOM     16  C   UNL     1       1.734   8.825  18.262  0.00  0.00    +0.000 A 
ENDBRANCH   9  11
ENDBRANCH   7   9
ENDBRANCH   1   7
BRANCH   1  17
ATOM     17  C   UNL     1       3.708   3.482  17.453  0.00  0.00    +0.000 C 
BRANCH  17  20
ATOM     18  C   UNL     1       5.809   4.283  16.449  0.00  0.00    +0.000 C 
ATOM     19  O   UNL     1       5.408   4.141  15.298  0.00  0.00    +0.000 OA
ATOM     20  N   UNL     1       5.015   4.110  17.571  0.00  0.00    +0.000 N 
ATOM     21  H   UNL     1       5.531   3.997  18.438  0.00  0.00    +0.000 HD
BRANCH  18  22
ATOM     22  C   UNL     1       7.247   4.693  16.773  0.00  0.00    +0.000 C 
BRANCH  22  23
ATOM     23  O   UNL     1       7.570   6.029  16.395  0.00  0.00    +0.000 OA
BRANCH  23  25
ATOM     24  C   UNL     1       7.830   6.215  18.768  0.00  0.00    +0.000 C 
ATOM     25  C   UNL     1       7.455   6.942  17.490  0.00  0.00    +0.000 C 
ENDBRANCH  23  25
ENDBRANCH  22  23
ENDBRANCH  18  22
ENDBRANCH  17  20
ENDBRANCH   1  17
TORSDOF 8
ENDMDL
MODEL 3
REMARK VINA RESULT:      -7.0      1.688      2.610
REMARK  Name = 
REMARK  10 active torsions:
REMARK  status: ('A' for Active; 'I' for Inactive)
REMARK    1  A    between atoms: C_1  and  C_2
REMARK    2  A    between atoms: C_2  and  O_3
REMARK    3  A    between atoms: O_3  and  C_4
REMARK    4  A    between atoms: C_4  and  C_5
REMARK    5  A    between atoms: N_7  and  C_8
REMARK    6  A    between atoms: C_8  and  C_9
REMARK    7  A    between atoms: C_9  and  N_10
REMARK    8  A    between atoms: N_10  and  C_11
REMARK    9  A    between atoms: C_11  and  C_12
REMARK   10  A    between atoms: C_11  and  C_13
REMARK                            x       y       z     vdW  Elec       q    Type
REMARK                         _______ _______ _______ _____ _____    ______ ____
ROOT
ATOM      1  C   UNL     1       4.380   5.077  18.409  0.00  0.00    +0.000 C 
ATOM      2  C   UNL     1       5.254   3.908  18.975  0.00  0.00    +0.000 C 
ATOM      3  C   UNL     1       4.454   2.723  19.512  0.00  0.00    +0.000 C 
ATOM      4  O   UNL     1       3.498   2.262  18.561  0.00  0.00    +0.000 OA
ATOM      5  C   UNL     1       2.569   3.289  18.223  0.00  0.00    +0.000 C 
ATOM      6  C   UNL     1       3.311   4.406  17.510  0.00  0.00    +0.000 C 
ENDROOT
BRANCH   1   7
ATOM      7  N   UNL     1       3.806   5.835  19.577  0.00  0.00    +0.000 NA
ATOM      8  H   UNL     1       4.241   6.761  19.554  0.00  0.00    +0.000 HD
BRANCH   7   9
ATOM      9  C   UNL     1       2.344   6.119  19.579  0.00  0.00    +0.000 C 
ATOM     10  C   UNL     1       1.591   5.728  20.860  0.00  0.00    +0.000 C 
BRANCH   9  11
ATOM     11  C   UNL     1       2.057   7.619  19.389  0.00  0.00    +0.000 A 
ATOM     12  C   UNL     1       2.316   8.235  18.149  0.00  0.00    +0.000 A 
ATOM     13  C   UNL     1       1.857   9.525  17.884  0.00  0.00    +0.000 A 
ATOM     14  C   UNL     1       1.137  10.226  18.851  0.00  0.00    +0.000 A 
ATOM     15  C   UNL     1       0.905   9.649  20.097  0.00  0.00    +0.000 A 
ATOM     16  C   UNL     1       1.374   8.361  20.370  0.00  0.00    +0.000 A 
ENDBRANCH   9  11
ENDBRANCH   7   9
ENDBRANCH   1   7
BRANCH   1  17
ATOM     17  C   UNL     1       5.296   5.949  17.490  0.00  0.00    +0.000 C 
BRANCH  17  20
ATOM     18  C   UNL     1       6.708   4.991  15.713  0.00  0.00    +0.000 C 
ATOM     19  O   UNL     1       7.666   4.813  16.459  0.00  0.00    +0.000 OA
ATOM     20  N   UNL     1       5.463   5.421  16.144  0.00  0.00    +0.000 N 
ATOM     21  H   UNL     1       4.862   5.776  15.406  0.00  0.00    +0.000 HD
BRANCH  18  22
ATOM     22  C   UNL     1       6.780   4.733  14.207  0.00  0.00    +0.000 C 
BRANCH  22  23
ATOM     23  O   UNL     1       6.041   3.592  13.777  0.00  0.00    +0.000 OA
BRANCH  23  25
ATOM     24  C   UNL     1       4.763   3.312  11.771  0.00  0.00    +0.000 C 
ATOM     25  C   UNL     1       6.157   3.375  12.368  0.00  0.00    +0.000 C 
ENDBRANCH  23  25
ENDBRANCH  22  23
ENDBRANCH  18  22
ENDBRANCH  17  20
ENDBRANCH   1  17
TORSDOF 8
ENDMDL
MODEL 4
REMARK VINA RESULT:      -6.9      1.096      2.283
REMARK  Name = 
REMARK  10 active torsions:
REMARK  status: ('A' for Active; 'I' for Inactive)
REMARK    1  A    between atoms: C_1  and  C_2
REMARK    2  A    between atoms: C_2  and  O_3
REMARK    3  A    between atoms: O_3  and  C_4
REMARK    4  A    between atoms: C_4  and  C_5
REMARK    5  A    between atoms: N_7  and  C_8
REMARK    6  A    between atoms: C_8  and  C_9
REMARK    7  A    between atoms: C_9  and  N_10
REMARK    8  A    between atoms: N_10  and  C_11
REMARK    9  A    between atoms: C_11  and  C_12
REMARK   10  A    between atoms: C_11  and  C_13
REMARK                            x       y       z     vdW  Elec       q    Type
REMARK                         _______ _______ _______ _____ _____    ______ ____
ROOT
ATOM      1  C   UNL     1       2.721   4.109  18.330  0.00  0.00    +0.000 C 
ATOM      2  C   UNL     1       3.437   4.151  19.722  0.00  0.00    +0.000 C 
ATOM      3  C   UNL     1       2.490   4.231  20.917  0.00  0.00    +0.000 C 
ATOM      4  O   UNL     1       1.491   3.215  20.862  0.00  0.00    +0.000 OA
ATOM      5  C   UNL     1       0.701   3.332  19.682  0.00  0.00    +0.000 C 
ATOM      6  C   UNL     1       1.583   3.067  18.474  0.00  0.00    +0.000 C 
ENDROOT
BRANCH   1   7
ATOM      7  N   UNL     1       2.238   5.500  18.014  0.00  0.00    +0.000 NA
ATOM      8  H   UNL     1       1.376   5.629  18.552  0.00  0.00    +0.000 HD
BRANCH   7   9
ATOM      9  C   UNL     1       3.094   6.649  18.416  0.00  0.00    +0.000 C 
ATOM     10  C   UNL     1       3.970   7.249  17.304  0.00  0.00    +0.000 C 
BRANCH   9  11
ATOM     11  C   UNL     1       2.254   7.827  18.940  0.00  0.00    +0.000 A 
ATOM     12  C   UNL     1       1.768   8.800  18.045  0.00  0.00    +0.000 A 
ATOM     13  C   UNL     1       0.825   9.742  18.459  0.00  0.00    +0.000 A 
ATOM     14  C   UNL     1       0.354   9.734  19.771  0.00  0.00    +0.000 A 
ATOM     15  C   UNL     1       0.853   8.805  20.681  0.00  0.00    +0.000 A 
ATOM     16  C   UNL     1       1.807   7.867  20.273  0.00  0.00    +0.000 A 
ENDBRANCH   9  11
ENDBRANCH   7   9
ENDBRANCH   1   7
BRANCH   1  17
ATOM     17  C   UNL     1       3.747   3.553  17.289  0.00  0.00    +0.000 C 
BRANCH  17  20
ATOM     18  C   UNL     1       5.963   4.408  16.641  0.00  0.00    +0.000 C 
ATOM     19  O   UNL     1       5.561   4.880  15.582  0.00  0.00    +0.000 OA
ATOM     20  N   UNL     1       5.136   3.852  17.603  0.00  0.00    +0.000 N 
ATOM     21  H   UNL     1       5.614   3.274  18.286  0.00  0.00    +0.000 HD
BRANCH  18  22
ATOM     22  C   UNL     1       7.444   4.401  17.029  0.00  0.00    +0.000 C 
BRANCH  22  23
ATOM     23  O   UNL     1       7.681   4.613  18.418  0.00  0.00    +0.000 OA
BRANCH  23  25
ATOM     24  C   UNL     1       7.969   6.987  18.303  0.00  0.00    +0.000 C 
ATOM     25  C   UNL     1       7.137   5.855  18.875  0.00  0.00    +0.000 C 
ENDBRANCH  23  25
ENDBRANCH  22  23
ENDBRANCH  18  22
ENDBRANCH  17  20
ENDBRANCH   1  17
TORSDOF 8
ENDMDL
MODEL 5
REMARK VINA RESULT:      -6.9      0.514      1.165
REMARK  Name = 
REMARK  10 active torsions:
REMARK  status: ('A' for Active; 'I' for Inactive)
REMARK    1  A    between atoms: C_1  and  C_2
REMARK    2  A    between atoms: C_2  and  O_3
REMARK    3  A    between atoms: O_3  and  C_4
REMARK    4  A    between atoms: C_4  and  C_5
REMARK    5  A    between atoms: N_7  and  C_8
REMARK    6  A    between atoms: C_8  and  C_9
REMARK    7  A    between atoms: C_9  and  N_10
REMARK    8  A    between atoms: N_10  and  C_11
REMARK    9  A    between atoms: C_11  and  C_12
REMARK   10  A    between atoms: C_11  and  C_13
REMARK                            x       y       z     vdW  Elec       q    Type
REMARK                         _______ _______ _______ _____ _____    ______ ____
ROOT
ATOM      1  C   UNL     1       3.096   4.185  19.165  0.00  0.00    +0.000 C 
ATOM      2  C   UNL     1       2.424   4.241  20.578  0.00  0.00    +0.000 C 
ATOM      3  C   UNL     1       0.961   3.801  20.599  0.00  0.00    +0.000 C 
ATOM      4  O   UNL     1       0.787   2.531  19.977  0.00  0.00    +0.000 OA
ATOM      5  C   UNL     1       1.205   2.562  18.614  0.00  0.00    +0.000 C 
ATOM      6  C   UNL     1       2.702   2.810  18.566  0.00  0.00    +0.000 C 
ENDROOT
BRANCH   1   7
ATOM      7  N   UNL     1       2.600   5.361  18.367  0.00  0.00    +0.000 NA
ATOM      8  H   UNL     1       1.676   5.589  18.743  0.00  0.00    +0.000 HD
BRANCH   7   9
ATOM      9  C   UNL     1       3.357   6.640  18.457  0.00  0.00    +0.000 C 
ATOM     10  C   UNL     1       4.060   7.092  17.168  0.00  0.00    +0.000 C 
BRANCH   9  11
ATOM     11  C   UNL     1       2.442   7.815  18.844  0.00  0.00    +0.000 A 
ATOM     12  C   UNL     1       1.985   8.709  17.855  0.00  0.00    +0.000 A 
ATOM     13  C   UNL     1       0.983   9.637  18.141  0.00  0.00    +0.000 A 
ATOM     14  C   UNL     1       0.423   9.695  19.416  0.00  0.00    +0.000 A 
ATOM     15  C   UNL     1       0.888   8.846  20.418  0.00  0.00    +0.000 A 
ATOM     16  C   UNL     1       1.901   7.923  20.138  0.00  0.00    +0.000 A 
ENDBRANCH   9  11
ENDBRANCH   7   9
ENDBRANCH   1   7
BRANCH   1  17
ATOM     17  C   UNL     1       4.645   4.185  19.379  0.00  0.00    +0.000 C 
BRANCH  17  20
ATOM     18  C   UNL     1       6.619   4.548  17.953  0.00  0.00    +0.000 C 
ATOM     19  O   UNL     1       7.218   5.193  18.808  0.00  0.00    +0.000 OA
ATOM     20  N   UNL     1       5.412   3.905  18.175  0.00  0.00    +0.000 N 
ATOM     21  H   UNL     1       4.912   3.645  17.331  0.00  0.00    +0.000 HD
BRANCH  18  22
ATOM     22  C   UNL     1       7.160   4.363  16.533  0.00  0.00    +0.000 C 
BRANCH  22  23
ATOM     23  O   UNL     1       6.543   5.206  15.564  0.00  0.00    +0.000 OA
BRANCH  23  25
ATOM     24  C   UNL     1       6.210   3.868  13.606  0.00  0.00    +0.000 C 
ATOM     25  C   UNL     1       5.545   4.516  14.806  0.00  0.00    +0.000 C 
ENDBRANCH  23  25
ENDBRANCH  22  23
ENDBRANCH  18  22
ENDBRANCH  17  20
ENDBRANCH   1  17
TORSDOF 8
ENDMDL
MODEL 6
REMARK VINA RESULT:      -6.8      2.726      6.411
REMARK  Name = 
REMARK  10 active torsions:
REMARK  status: ('A' for Active; 'I' for Inactive)
REMARK    1  A    between atoms: C_1  and  C_2
REMARK    2  A    between atoms: C_2  and  O_3
REMARK    3  A    between atoms: O_3  and  C_4
REMARK    4  A    between atoms: C_4  and  C_5
REMARK    5  A    between atoms: N_7  and  C_8
REMARK    6  A    between atoms: C_8  and  C_9
REMARK    7  A    between atoms: C_9  and  N_10
REMARK    8  A    between atoms: N_10  and  C_11
REMARK    9  A    between atoms: C_11  and  C_12
REMARK   10  A    between atoms: C_11  and  C_13
REMARK                            x       y       z     vdW  Elec       q    Type
REMARK                         _______ _______ _______ _____ _____    ______ ____
ROOT
ATOM      1  C   UNL     1       2.740   4.823  19.423  0.00  0.00    +0.000 C 
ATOM      2  C   UNL     1       1.664   4.179  18.487  0.00  0.00    +0.000 C 
ATOM      3  C   UNL     1       1.326   2.726  18.818  0.00  0.00    +0.000 C 
ATOM      4  O   UNL     1       0.997   2.567  20.196  0.00  0.00    +0.000 OA
ATOM      5  C   UNL     1       2.083   2.955  21.034  0.00  0.00    +0.000 C 
ATOM      6  C   UNL     1       2.321   4.446  20.867  0.00  0.00    +0.000 C 
ENDROOT
BRANCH   1   7
ATOM      7  N   UNL     1       4.088   4.286  19.021  0.00  0.00    +0.000 NA
ATOM      8  H   UNL     1       3.918   3.654  18.233  0.00  0.00    +0.000 HD
BRANCH   7   9
ATOM      9  C   UNL     1       5.101   5.248  18.504  0.00  0.00    +0.000 C 
ATOM     10  C   UNL     1       6.356   5.424  19.372  0.00  0.00    +0.000 C 
BRANCH   9  11
ATOM     11  C   UNL     1       5.629   4.827  17.121  0.00  0.00    +0.000 A 
ATOM     12  C   UNL     1       4.734   4.362  16.136  0.00  0.00    +0.000 A 
ATOM     13  C   UNL     1       5.153   4.192  14.816  0.00  0.00    +0.000 A 
ATOM     14  C   UNL     1       6.468   4.478  14.454  0.00  0.00    +0.000 A 
ATOM     15  C   UNL     1       7.377   4.901  15.421  0.00  0.00    +0.000 A 
ATOM     16  C   UNL     1       6.965   5.060  16.748  0.00  0.00    +0.000 A 
ENDBRANCH   9  11
ENDBRANCH   7   9
ENDBRANCH   1   7
BRANCH   1  17
ATOM     17  C   UNL     1       2.620   6.375  19.282  0.00  0.00    +0.000 C 
BRANCH  17  20
ATOM     18  C   UNL     1       1.607   8.349  20.352  0.00  0.00    +0.000 C 
ATOM     19  O   UNL     1       1.476   8.956  19.293  0.00  0.00    +0.000 OA
ATOM     20  N   UNL     1       2.037   7.035  20.441  0.00  0.00    +0.000 N 
ATOM     21  H   UNL     1       2.350   6.756  21.366  0.00  0.00    +0.000 HD
BRANCH  18  22
ATOM     22  C   UNL     1       1.285   8.981  21.708  0.00  0.00    +0.000 C 
BRANCH  22  23
ATOM     23  O   UNL     1       1.099  10.394  21.660  0.00  0.00    +0.000 OA
BRANCH  23  25
ATOM     24  C   UNL     1      -0.659   9.790  23.169  0.00  0.00    +0.000 C 
ATOM     25  C   UNL     1      -0.200  10.781  22.117  0.00  0.00    +0.000 C 
ENDBRANCH  23  25
ENDBRANCH  22  23
ENDBRANCH  18  22
ENDBRANCH  17  20
ENDBRANCH   1  17
TORSDOF 8
ENDMDL
MODEL 7
REMARK VINA RESULT:      -6.7      1.467      2.272
REMARK  Name = 
REMARK  10 active torsions:
REMARK  status: ('A' for Active; 'I' for Inactive)
REMARK    1  A    between atoms: C_1  and  C_2
REMARK    2  A    between atoms: C_2  and  O_3
REMARK    3  A    between atoms: O_3  and  C_4
REMARK    4  A    between atoms: C_4  and  C_5
REMARK    5  A    between atoms: N_7  and  C_8
REMARK    6  A    between atoms: C_8  and  C_9
REMARK    7  A    between atoms: C_9  and  N_10
REMARK    8  A    between atoms: N_10  and  C_11
REMARK    9  A    between atoms: C_11  and  C_12
REMARK   10  A    between atoms: C_11  and  C_13
REMARK                            x       y       z     vdW  Elec       q    Type
REMARK                         _______ _______ _______ _____ _____    ______ ____
ROOT
ATOM      1  C   UNL     1       4.186   3.985  18.649  0.00  0.00    +0.000 C 
ATOM      2  C   UNL     1       4.007   2.624  19.401  0.00  0.00    +0.000 C 
ATOM      3  C   UNL     1       2.556   2.171  19.550  0.00  0.00    +0.000 C 
ATOM      4  O   UNL     1       1.873   2.183  18.299  0.00  0.00    +0.000 OA
ATOM      5  C   UNL     1       1.857   3.490  17.732  0.00  0.00    +0.000 C 
ATOM      6  C   UNL     1       3.281   3.895  17.394  0.00  0.00    +0.000 C 
ENDROOT
BRANCH   1   7
ATOM      7  N   UNL     1       3.806   5.094  19.595  0.00  0.00    +0.000 NA
ATOM      8  H   UNL     1       4.307   5.926  19.271  0.00  0.00    +0.000 HD
BRANCH   7   9
ATOM      9  C   UNL     1       2.380   5.520  19.640  0.00  0.00    +0.000 C 
ATOM     10  C   UNL     1       1.655   5.281  20.973  0.00  0.00    +0.000 C 
BRANCH   9  11
ATOM     11  C   UNL     1       2.230   7.028  19.370  0.00  0.00    +0.000 A 
ATOM     12  C   UNL     1       2.552   7.552  18.102  0.00  0.00    +0.000 A 
ATOM     13  C   UNL     1       2.212   8.863  17.766  0.00  0.00    +0.000 A 
ATOM     14  C   UNL     1       1.552   9.675  18.687  0.00  0.00    +0.000 A 
ATOM     15  C   UNL     1       1.260   9.187  19.958  0.00  0.00    +0.000 A 
ATOM     16  C   UNL     1       1.610   7.878  20.303  0.00  0.00    +0.000 A 
ENDBRANCH   9  11
ENDBRANCH   7   9
ENDBRANCH   1   7
BRANCH   1  17
ATOM     17  C   UNL     1       5.670   4.063  18.161  0.00  0.00    +0.000 C 
BRANCH  17  20
ATOM     18  C   UNL     1       7.044   4.493  16.163  0.00  0.00    +0.000 C 
ATOM     19  O   UNL     1       8.099   4.495  16.791  0.00  0.00    +0.000 OA
ATOM     20  N   UNL     1       5.817   4.167  16.717  0.00  0.00    +0.000 N 
ATOM     21  H   UNL     1       5.016   4.462  16.168  0.00  0.00    +0.000 HD
BRANCH  18  22
ATOM     22  C   UNL     1       6.973   4.836  14.674  0.00  0.00    +0.000 C 
BRANCH  22  23
ATOM     23  O   UNL     1       5.831   4.302  14.009  0.00  0.00    +0.000 OA
BRANCH  23  25
ATOM     24  C   UNL     1       4.969   3.283  12.021  0.00  0.00    +0.000 C 
ATOM     25  C   UNL     1       6.192   3.478  12.897  0.00  0.00    +0.000 C 
ENDBRANCH  23  25
ENDBRANCH  22  23
ENDBRANCH  18  22
ENDBRANCH  17  20
ENDBRANCH   1  17
TORSDOF 8
ENDMDL
MODEL 8
REMARK VINA RESULT:      -6.7      2.241      5.538
REMARK  Name = 
REMARK  10 active torsions:
REMARK  status: ('A' for Active; 'I' for Inactive)
REMARK    1  A    between atoms: C_1  and  C_2
REMARK    2  A    between atoms: C_2  and  O_3
REMARK    3  A    between atoms: O_3  and  C_4
REMARK    4  A    between atoms: C_4  and  C_5
REMARK    5  A    between atoms: N_7  and  C_8
REMARK    6  A    between atoms: C_8  and  C_9
REMARK    7  A    between atoms: C_9  and  N_10
REMARK    8  A    between atoms: N_10  and  C_11
REMARK    9  A    between atoms: C_11  and  C_12
REMARK   10  A    between atoms: C_11  and  C_13
REMARK                            x       y       z     vdW  Elec       q    Type
REMARK                         _______ _______ _______ _____ _____    ______ ____
ROOT
ATOM      1  C   UNL     1       3.466   4.484  18.628  0.00  0.00    +0.000 C 
ATOM      2  C   UNL     1       1.925   4.216  18.558  0.00  0.00    +0.000 C 
ATOM      3  C   UNL     1       1.550   2.787  18.173  0.00  0.00    +0.000 C 
ATOM      4  O   UNL     1       2.220   1.831  18.990  0.00  0.00    +0.000 OA
ATOM      5  C   UNL     1       3.635   1.949  18.868  0.00  0.00    +0.000 C 
ATOM      6  C   UNL     1       4.064   3.295  19.423  0.00  0.00    +0.000 C 
ENDROOT
BRANCH   1   7
ATOM      7  N   UNL     1       3.984   4.595  17.218  0.00  0.00    +0.000 NA
ATOM      8  H   UNL     1       4.022   5.597  17.009  0.00  0.00    +0.000 HD
BRANCH   7   9
ATOM      9  C   UNL     1       5.363   4.111  16.936  0.00  0.00    +0.000 C 
ATOM     10  C   UNL     1       5.683   3.831  15.460  0.00  0.00    +0.000 C 
BRANCH   9  11
ATOM     11  C   UNL     1       6.426   5.128  17.388  0.00  0.00    +0.000 A 
ATOM     12  C   UNL     1       6.507   6.387  16.762  0.00  0.00    +0.000 A 
ATOM     13  C   UNL     1       7.303   7.400  17.299  0.00  0.00    +0.000 A 
ATOM     14  C   UNL     1       8.033   7.175  18.465  0.00  0.00    +0.000 A 
ATOM     15  C   UNL     1       7.996   5.925  19.077  0.00  0.00    +0.000 A 
ATOM     16  C   UNL     1       7.210   4.903  18.534  0.00  0.00    +0.000 A 
ENDBRANCH   9  11
ENDBRANCH   7   9
ENDBRANCH   1   7
BRANCH   1  17
ATOM     17  C   UNL     1       3.682   5.780  19.476  0.00  0.00    +0.000 C 
BRANCH  17  20
ATOM     18  C   UNL     1       2.704   7.723  18.321  0.00  0.00    +0.000 C 
ATOM     19  O   UNL     1       3.499   7.671  17.388  0.00  0.00    +0.000 OA
ATOM     20  N   UNL     1       2.628   6.772  19.325  0.00  0.00    +0.000 N 
ATOM     21  H   UNL     1       2.125   7.074  20.154  0.00  0.00    +0.000 HD
BRANCH  18  22
ATOM     22  C   UNL     1       1.681   8.851  18.467  0.00  0.00    +0.000 C 
BRANCH  22  23
ATOM     23  O   UNL     1       1.171   9.005  19.789  0.00  0.00    +0.000 OA
BRANCH  23  25
ATOM     24  C   UNL     1      -0.749  10.417  19.562  0.00  0.00    +0.000 C 
ATOM     25  C   UNL     1       0.690  10.330  20.031  0.00  0.00    +0.000 C 
ENDBRANCH  23  25
ENDBRANCH  22  23
ENDBRANCH  18  22
ENDBRANCH  17  20
ENDBRANCH   1  17
TORSDOF 8
ENDMDL
MODEL 9
REMARK VINA RESULT:      -6.7      1.415      1.877
REMARK  Name = 
REMARK  10 active torsions:
REMARK  status: ('A' for Active; 'I' for Inactive)
REMARK    1  A    between atoms: C_1  and  C_2
REMARK    2  A    between atoms: C_2  and  O_3
REMARK    3  A    between atoms: O_3  and  C_4
REMARK    4  A    between atoms: C_4  and  C_5
REMARK    5  A    between atoms: N_7  and  C_8
REMARK    6  A    between atoms: C_8  and  C_9
REMARK    7  A    between atoms: C_9  and  N_10
REMARK    8  A    between atoms: N_10  and  C_11
REMARK    9  A    between atoms: C_11  and  C_12
REMARK   10  A    between atoms: C_11  and  C_13
REMARK                            x       y       z     vdW  Elec       q    Type
REMARK                         _______ _______ _______ _____ _____    ______ ____
ROOT
ATOM      1  C   UNL     1       4.253   4.127  18.317  0.00  0.00    +0.000 C 
ATOM      2  C   UNL     1       4.437   3.200  19.564  0.00  0.00    +0.000 C 
ATOM      3  C   UNL     1       3.275   2.241  19.816  0.00  0.00    +0.000 C 
ATOM      4  O   UNL     1       2.946   1.499  18.645  0.00  0.00    +0.000 OA
ATOM      5  C   UNL     1       2.564   2.362  17.577  0.00  0.00    +0.000 C 
ATOM      6  C   UNL     1       3.764   3.202  17.173  0.00  0.00    +0.000 C 
ENDROOT
BRANCH   1   7
ATOM      7  N   UNL     1       3.274   5.211  18.684  0.00  0.00    +0.000 NA
ATOM      8  H   UNL     1       3.207   5.198  19.705  0.00  0.00    +0.000 HD
BRANCH   7   9
ATOM      9  C   UNL     1       3.632   6.620  18.359  0.00  0.00    +0.000 C 
ATOM     10  C   UNL     1       3.917   6.911  16.878  0.00  0.00    +0.000 C 
BRANCH   9  11
ATOM     11  C   UNL     1       2.508   7.595  18.749  0.00  0.00    +0.000 A 
ATOM     12  C   UNL     1       2.004   7.602  20.065  0.00  0.00    +0.000 A 
ATOM     13  C   UNL     1       1.154   8.620  20.497  0.00  0.00    +0.000 A 
ATOM     14  C   UNL     1       0.786   9.645  19.627  0.00  0.00    +0.000 A 
ATOM     15  C   UNL     1       1.242   9.634  18.311  0.00  0.00    +0.000 A 
ATOM     16  C   UNL     1       2.085   8.609  17.870  0.00  0.00    +0.000 A 
ENDBRANCH   9  11
ENDBRANCH   7   9
ENDBRANCH   1   7
BRANCH   1  17
ATOM     17  C   UNL     1       5.664   4.670  17.919  0.00  0.00    +0.000 C 
BRANCH  17  20
ATOM     18  C   UNL     1       6.872   5.006  15.799  0.00  0.00    +0.000 C 
ATOM     19  O   UNL     1       7.324   6.096  16.137  0.00  0.00    +0.000 OA
ATOM     20  N   UNL     1       6.155   4.173  16.643  0.00  0.00    +0.000 N 
ATOM     21  H   UNL     1       5.625   3.449  16.168  0.00  0.00    +0.000 HD
BRANCH  18  22
ATOM     22  C   UNL     1       7.071   4.432  14.395  0.00  0.00    +0.000 C 
BRANCH  22  23
ATOM     23  O   UNL     1       5.860   4.054  13.745  0.00  0.00    +0.000 OA
BRANCH  23  25
ATOM     24  C   UNL     1       4.769   3.230  11.780  0.00  0.00    +0.000 C 
ATOM     25  C   UNL     1       6.100   3.435  12.478  0.00  0.00    +0.000 C 
ENDBRANCH  23  25
ENDBRANCH  22  23
ENDBRANCH  18  22
ENDBRANCH  17  20
ENDBRANCH   1  17
TORSDOF 8
ENDMDL
