MODEL 1
REMARK VINA RESULT:      -7.8      0.000      0.000
REMARK  Name = 
REMARK  10 active torsions:
REMARK  status: ('A' for Active; 'I' for Inactive)
REMARK    1  A    between atoms: C_1  and  C_2
REMARK    2  A    between atoms: C_3  and  C_4
REMARK    3  A    between atoms: N_6  and  C_7
REMARK    4  A    between atoms: C_7  and  C_8
REMARK    5  A    between atoms: C_8  and  C_9
REMARK    6  A    between atoms: C_9  and  C_10
REMARK    7  A    between atoms: C_10  and  C_11
REMARK    8  A    between atoms: C_11  and  C_12
REMARK    9  A    between atoms: C_12  and  C_13
REMARK   10  A    between atoms: N_15  and  O_16
REMARK                            x       y       z     vdW  Elec       q    Type
REMARK                         _______ _______ _______ _____ _____    ______ ____
ROOT
ATOM      1  C   UNL     1       7.279   6.039  17.377  0.00  0.00    +0.000 C 
ATOM      2  O   UNL     1       7.272   5.505  18.485  0.00  0.00    +0.000 OA
ATOM      3  N   UNL     1       7.702   7.340  17.185  0.00  0.00    +0.000 N 
ATOM      4  H   UNL     1       7.694   7.684  16.231  0.00  0.00    +0.000 HD
ENDROOT
BRANCH   1   7
ATOM      5  C   UNL     1       4.596   4.212  16.676  0.00  0.00    +0.000 C 
ATOM      6  C   UNL     1       5.744   4.606  15.822  0.00  0.00    +0.000 A 
ATOM      7  C   UNL     1       6.856   5.381  16.148  0.00  0.00    +0.000 A 
ATOM      8  O   UNL     1       7.668   5.506  15.045  0.00  0.00    +0.000 OA
ATOM      9  C   UNL     1       7.093   4.815  14.026  0.00  0.00    +0.000 A 
ATOM     10  C   UNL     1       7.606   4.697  12.738  0.00  0.00    +0.000 A 
ATOM     11  C   UNL     1       6.857   3.937  11.834  0.00  0.00    +0.000 A 
ATOM     12  C   UNL     1       5.660   3.332  12.219  0.00  0.00    +0.000 A 
ATOM     13  C   UNL     1       5.169   3.472  13.525  0.00  0.00    +0.000 A 
ATOM     14  C   UNL     1       5.907   4.234  14.449  0.00  0.00    +0.000 A 
ENDBRANCH   1   7
BRANCH   3  15
ATOM     15  C   UNL     1       8.202   8.191  18.245  0.00  0.00    +0.000 C 
BRANCH  15  16
ATOM     16  C   UNL     1       8.206   9.665  17.839  0.00  0.00    +0.000 C 
BRANCH  16  17
ATOM     17  C   UNL     1       9.136  10.490  18.733  0.00  0.00    +0.000 C 
BRANCH  17  18
ATOM     18  C   UNL     1      10.240  11.187  17.932  0.00  0.00    +0.000 C 
BRANCH  18  19
ATOM     19  C   UNL     1      11.333  11.720  18.861  0.00  0.00    +0.000 C 
BRANCH  19  20
ATOM     20  C   UNL     1      11.388  13.247  18.887  0.00  0.00    +0.000 C 
BRANCH  20  21
ATOM     21  C   UNL     1      11.556  13.822  17.495  0.00  0.00    +0.000 C 
ATOM     22  O   UNL     1      12.333  13.386  16.649  0.00  0.00    +0.000 OA
ATOM     23  N   UNL     1      10.753  14.905  17.241  0.00  0.00    +0.000 N 
ATOM     24  H   UNL     1      10.032  15.264  17.858  0.00  0.00    +0.000 HD
BRANCH  23  25
ATOM     25  O   UNL     1      10.838  15.461  15.946  0.00  0.00    +0.000 OA
ATOM     26  H   UNL     1      10.677  16.416  16.119  0.00  0.00    +0.000 HD
ENDBRANCH  23  25
ENDBRANCH  20  21
ENDBRANCH  19  20
ENDBRANCH  18  19
ENDBRANCH  17  18
ENDBRANCH  16  17
ENDBRANCH  15  16
ENDBRANCH   3  15
TORSDOF 9
ENDMDL
MODEL 2
REMARK VINA RESULT:      -7.7      2.778      4.118
REMARK  Name = 
REMARK  10 active torsions:
REMARK  status: ('A' for Active; 'I' for Inactive)
REMARK    1  A    between atoms: C_1  and  C_2
REMARK    2  A    between atoms: C_3  and  C_4
REMARK    3  A    between atoms: N_6  and  C_7
REMARK    4  A    between atoms: C_7  and  C_8
REMARK    5  A    between atoms: C_8  and  C_9
REMARK    6  A    between atoms: C_9  and  C_10
REMARK    7  A    between atoms: C_10  and  C_11
REMARK    8  A    between atoms: C_11  and  C_12
REMARK    9  A    between atoms: C_12  and  C_13
REMARK   10  A    between atoms: N_15  and  O_16
REMARK                            x       y       z     vdW  Elec       q    Type
REMARK                         _______ _______ _______ _____ _____    ______ ____
ROOT
ATOM      1  C   UNL     1       5.310   6.517  16.599  0.00  0.00    +0.000 C 
ATOM      2  O   UNL     1       5.263   6.963  15.454  0.00  0.00    +0.000 OA
ATOM      3  N   UNL     1       6.362   6.785  17.455  0.00  0.00    +0.000 N 
ATOM      4  H   UNL     1       6.299   6.392  18.388  0.00  0.00    +0.000 HD
ENDROOT
BRANCH   1   7
ATOM      5  C   UNL     1       2.594   7.262  18.359  0.00  0.00    +0.000 C 
ATOM      6  C   UNL     1       3.139   5.947  17.937  0.00  0.00    +0.000 A 
ATOM      7  C   UNL     1       4.283   5.670  17.192  0.00  0.00    +0.000 A 
ATOM      8  O   UNL     1       4.403   4.310  17.024  0.00  0.00    +0.000 OA
ATOM      9  C   UNL     1       3.357   3.720  17.657  0.00  0.00    +0.000 A 
ATOM     10  C   UNL     1       3.117   2.350  17.720  0.00  0.00    +0.000 A 
ATOM     11  C   UNL     1       1.980   1.946  18.426  0.00  0.00    +0.000 A 
ATOM     12  C   UNL     1       1.140   2.880  19.035  0.00  0.00    +0.000 A 
ATOM     13  C   UNL     1       1.409   4.254  18.953  0.00  0.00    +0.000 A 
ATOM     14  C   UNL     1       2.547   4.680  18.244  0.00  0.00    +0.000 A 
ENDBRANCH   1   7
BRANCH   3  15
ATOM     15  C   UNL     1       7.487   7.629  17.111  0.00  0.00    +0.000 C 
BRANCH  15  16
ATOM     16  C   UNL     1       8.223   8.132  18.354  0.00  0.00    +0.000 C 
BRANCH  16  17
ATOM     17  C   UNL     1       8.612   9.606  18.215  0.00  0.00    +0.000 C 
BRANCH  17  18
ATOM     18  C   UNL     1       9.220  10.168  19.505  0.00  0.00    +0.000 C 
BRANCH  18  19
ATOM     19  C   UNL     1      10.280  11.226  19.191  0.00  0.00    +0.000 C 
BRANCH  19  20
ATOM     20  C   UNL     1      10.463  11.446  17.690  0.00  0.00    +0.000 C 
BRANCH  20  21
ATOM     21  C   UNL     1      10.680  12.910  17.364  0.00  0.00    +0.000 C 
ATOM     22  O   UNL     1      11.325  13.323  16.403  0.00  0.00    +0.000 OA
ATOM     23  N   UNL     1      10.089  13.771  18.254  0.00  0.00    +0.000 N 
ATOM     24  H   UNL     1       9.476  13.503  19.017  0.00  0.00    +0.000 HD
BRANCH  23  25
ATOM     25  O   UNL     1      10.225  15.149  17.981  0.00  0.00    +0.000 OA
ATOM     26  H   UNL     1       9.512  15.301  17.320  0.00  0.00    +0.000 HD
ENDBRANCH  23  25
ENDBRANCH  20  21
ENDBRANCH  19  20
ENDBRANCH  18  19
ENDBRANCH  17  18
ENDBRANCH  16  17
ENDBRANCH  15  16
ENDBRANCH   3  15
TORSDOF 9
ENDMDL
MODEL 3
REMARK VINA RESULT:      -7.6      3.444      4.000
REMARK  Name = 
REMARK  10 active torsions:
REMARK  status: ('A' for Active; 'I' for Inactive)
REMARK    1  A    between atoms: C_1  and  C_2
REMARK    2  A    between atoms: C_3  and  C_4
REMARK    3  A    between atoms: N_6  and  C_7
REMARK    4  A    between atoms: C_7  and  C_8
REMARK    5  A    between atoms: C_8  and  C_9
REMARK    6  A    between atoms: C_9  and  C_10
REMARK    7  A    between atoms: C_10  and  C_11
REMARK    8  A    between atoms: C_11  and  C_12
REMARK    9  A    between atoms: C_12  and  C_13
REMARK   10  A    between atoms: N_15  and  O_16
REMARK                            x       y       z     vdW  Elec       q    Type
REMARK                         _______ _______ _______ _____ _____    ______ ____
ROOT
ATOM      1  C   UNL     1       6.644   5.650  19.201  0.00  0.00    +0.000 C 
ATOM      2  O   UNL     1       7.397   5.322  20.116  0.00  0.00    +0.000 OA
ATOM      3  N   UNL     1       6.964   6.650  18.302  0.00  0.00    +0.000 N 
ATOM      4  H   UNL     1       6.289   6.833  17.568  0.00  0.00    +0.000 HD
ENDROOT
BRANCH   1   7
ATOM      5  C   UNL     1       3.924   6.817  17.694  0.00  0.00    +0.000 C 
ATOM      6  C   UNL     1       4.186   5.501  18.328  0.00  0.00    +0.000 A 
ATOM      7  C   UNL     1       5.345   5.040  18.949  0.00  0.00    +0.000 A 
ATOM      8  O   UNL     1       5.150   3.750  19.386  0.00  0.00    +0.000 OA
ATOM      9  C   UNL     1       3.883   3.388  19.058  0.00  0.00    +0.000 A 
ATOM     10  C   UNL     1       3.299   2.154  19.327  0.00  0.00    +0.000 A 
ATOM     11  C   UNL     1       1.977   1.983  18.905  0.00  0.00    +0.000 A 
ATOM     12  C   UNL     1       1.290   3.007  18.252  0.00  0.00    +0.000 A 
ATOM     13  C   UNL     1       1.907   4.239  17.994  0.00  0.00    +0.000 A 
ATOM     14  C   UNL     1       3.238   4.431  18.408  0.00  0.00    +0.000 A 
ENDBRANCH   1   7
BRANCH   3  15
ATOM     15  C   UNL     1       8.212   7.383  18.322  0.00  0.00    +0.000 C 
BRANCH  15  16
ATOM     16  C   UNL     1       8.099   8.722  17.590  0.00  0.00    +0.000 C 
BRANCH  16  17
ATOM     17  C   UNL     1       8.439   9.895  18.513  0.00  0.00    +0.000 C 
BRANCH  17  18
ATOM     18  C   UNL     1       9.713  10.626  18.074  0.00  0.00    +0.000 C 
BRANCH  18  19
ATOM     19  C   UNL     1       9.462  12.131  17.955  0.00  0.00    +0.000 C 
BRANCH  19  20
ATOM     20  C   UNL     1      10.706  12.960  18.273  0.00  0.00    +0.000 C 
BRANCH  20  21
ATOM     21  C   UNL     1      11.138  13.794  17.084  0.00  0.00    +0.000 C 
ATOM     22  O   UNL     1      12.004  13.462  16.278  0.00  0.00    +0.000 OA
ATOM     23  N   UNL     1      10.473  14.989  16.972  0.00  0.00    +0.000 N 
ATOM     24  H   UNL     1       9.693  15.288  17.549  0.00  0.00    +0.000 HD
BRANCH  23  25
ATOM     25  O   UNL     1      10.807  15.793  15.861  0.00  0.00    +0.000 OA
ATOM     26  H   UNL     1      11.053  15.121  15.185  0.00  0.00    +0.000 HD
ENDBRANCH  23  25
ENDBRANCH  20  21
ENDBRANCH  19  20
ENDBRANCH  18  19
ENDBRANCH  17  18
ENDBRANCH  16  17
ENDBRANCH  15  16
ENDBRANCH   3  15
TORSDOF 9
ENDMDL
MODEL 4
REMARK VINA RESULT:      -7.6      0.933      1.113
REMARK  Name = 
REMARK  10 active torsions:
REMARK  status: ('A' for Active; 'I' for Inactive)
REMARK    1  A    between atoms: C_1  and  C_2
REMARK    2  A    between atoms: C_3  and  C_4
REMARK    3  A    between atoms: N_6  and  C_7
REMARK    4  A    between atoms: C_7  and  C_8
REMARK    5  A    between atoms: C_8  and  C_9
REMARK    6  A    between atoms: C_9  and  C_10
REMARK    7  A    between atoms: C_10  and  C_11
REMARK    8  A    between atoms: C_11  and  C_12
REMARK    9  A    between atoms: C_12  and  C_13
REMARK   10  A    between atoms: N_15  and  O_16
REMARK                            x       y       z     vdW  Elec       q    Type
REMARK                         _______ _______ _______ _____ _____    ______ ____
ROOT
ATOM      1  C   UNL     1       7.255   6.100  17.357  0.00  0.00    +0.000 C 
ATOM      2  O   UNL     1       7.209   5.569  18.465  0.00  0.00    +0.000 OA
ATOM      3  N   UNL     1       7.695   7.398  17.176  0.00  0.00    +0.000 N 
ATOM      4  H   UNL     1       7.720   7.740  16.222  0.00  0.00    +0.000 HD
ENDROOT
BRANCH   1   7
ATOM      5  C   UNL     1       4.620   4.228  16.598  0.00  0.00    +0.000 C 
ATOM      6  C   UNL     1       5.775   4.650  15.766  0.00  0.00    +0.000 A 
ATOM      7  C   UNL     1       6.865   5.444  16.116  0.00  0.00    +0.000 A 
ATOM      8  O   UNL     1       7.693   5.593  15.027  0.00  0.00    +0.000 OA
ATOM      9  C   UNL     1       7.148   4.899  13.995  0.00  0.00    +0.000 A 
ATOM     10  C   UNL     1       7.685   4.801  12.714  0.00  0.00    +0.000 A 
ATOM     11  C   UNL     1       6.966   4.034  11.793  0.00  0.00    +0.000 A 
ATOM     12  C   UNL     1       5.775   3.403  12.153  0.00  0.00    +0.000 A 
ATOM     13  C   UNL     1       5.259   3.523  13.452  0.00  0.00    +0.000 A 
ATOM     14  C   UNL     1       5.967   4.292  14.394  0.00  0.00    +0.000 A 
ENDBRANCH   1   7
BRANCH   3  15
ATOM     15  C   UNL     1       8.169   8.246  18.250  0.00  0.00    +0.000 C 
BRANCH  15  16
ATOM     16  C   UNL     1       8.075   9.730  17.888  0.00  0.00    +0.000 C 
BRANCH  16  17
ATOM     17  C   UNL     1       9.393  10.457  18.167  0.00  0.00    +0.000 C 
BRANCH  17  18
ATOM     18  C   UNL     1       9.452  11.022  19.591  0.00  0.00    +0.000 C 
BRANCH  18  19
ATOM     19  C   UNL     1      10.130  12.394  19.604  0.00  0.00    +0.000 C 
BRANCH  19  20
ATOM     20  C   UNL     1       9.249  13.491  19.010  0.00  0.00    +0.000 C 
BRANCH  20  21
ATOM     21  C   UNL     1      10.003  14.319  17.990  0.00  0.00    +0.000 C 
ATOM     22  O   UNL     1      10.209  15.527  18.087  0.00  0.00    +0.000 OA
ATOM     23  N   UNL     1      10.450  13.600  16.910  0.00  0.00    +0.000 N 
ATOM     24  H   UNL     1      10.390  12.593  16.805  0.00  0.00    +0.000 HD
BRANCH  23  25
ATOM     25  O   UNL     1      11.192  14.312  15.944  0.00  0.00    +0.000 OA
ATOM     26  H   UNL     1      11.901  14.725  16.489  0.00  0.00    +0.000 HD
ENDBRANCH  23  25
ENDBRANCH  20  21
ENDBRANCH  19  20
ENDBRANCH  18  19
ENDBRANCH  17  18
ENDBRANCH  16  17
ENDBRANCH  15  16
ENDBRANCH   3  15
TORSDOF 9
ENDMDL
MODEL 5
REMARK VINA RESULT:      -7.5      2.167      4.053
REMARK  Name = 
REMARK  10 active torsions:
REMARK  status: ('A' for Active; 'I' for Inactive)
REMARK    1  A    between atoms: C_1  and  C_2
REMARK    2  A    between atoms: C_3  and  C_4
REMARK    3  A    between atoms: N_6  and  C_7
REMARK    4  A    between atoms: C_7  and  C_8
REMARK    5  A    between atoms: C_8  and  C_9
REMARK    6  A    between atoms: C_9  and  C_10
REMARK    7  A    between atoms: C_10  and  C_11
REMARK    8  A    between atoms: C_11  and  C_12
REMARK    9  A    between atoms: C_12  and  C_13
REMARK   10  A    between atoms: N_15  and  O_16
REMARK                            x       y       z     vdW  Elec       q    Type
REMARK                         _______ _______ _______ _____ _____    ______ ____
ROOT
ATOM      1  C   UNL     1       7.004   4.998  18.345  0.00  0.00    +0.000 C 
ATOM      2  O   UNL     1       8.080   4.405  18.299  0.00  0.00    +0.000 OA
ATOM      3  N   UNL     1       6.920   6.375  18.425  0.00  0.00    +0.000 N 
ATOM      4  H   UNL     1       5.987   6.773  18.435  0.00  0.00    +0.000 HD
ENDROOT
BRANCH   1   7
ATOM      5  C   UNL     1       4.914   4.366  15.843  0.00  0.00    +0.000 C 
ATOM      6  C   UNL     1       4.802   4.064  17.292  0.00  0.00    +0.000 A 
ATOM      7  C   UNL     1       5.704   4.340  18.318  0.00  0.00    +0.000 A 
ATOM      8  O   UNL     1       5.201   3.871  19.510  0.00  0.00    +0.000 OA
ATOM      9  C   UNL     1       3.991   3.309  19.256  0.00  0.00    +0.000 A 
ATOM     10  C   UNL     1       3.159   2.719  20.203  0.00  0.00    +0.000 A 
ATOM     11  C   UNL     1       1.949   2.198  19.734  0.00  0.00    +0.000 A 
ATOM     12  C   UNL     1       1.605   2.277  18.384  0.00  0.00    +0.000 A 
ATOM     13  C   UNL     1       2.466   2.877  17.454  0.00  0.00    +0.000 A 
ATOM     14  C   UNL     1       3.690   3.405  17.906  0.00  0.00    +0.000 A 
ENDBRANCH   1   7
BRANCH   3  15
ATOM     15  C   UNL     1       8.070   7.254  18.434  0.00  0.00    +0.000 C 
BRANCH  15  16
ATOM     16  C   UNL     1       7.968   8.336  17.358  0.00  0.00    +0.000 C 
BRANCH  16  17
ATOM     17  C   UNL     1       7.982   9.739  17.972  0.00  0.00    +0.000 C 
BRANCH  17  18
ATOM     18  C   UNL     1       9.127   9.920  18.975  0.00  0.00    +0.000 C 
BRANCH  18  19
ATOM     19  C   UNL     1      10.171  10.901  18.437  0.00  0.00    +0.000 C 
BRANCH  19  20
ATOM     20  C   UNL     1      10.069  12.281  19.085  0.00  0.00    +0.000 C 
BRANCH  20  21
ATOM     21  C   UNL     1      10.699  13.351  18.217  0.00  0.00    +0.000 C 
ATOM     22  O   UNL     1      11.380  14.282  18.642  0.00  0.00    +0.000 OA
ATOM     23  N   UNL     1      10.441  13.205  16.878  0.00  0.00    +0.000 N 
ATOM     24  H   UNL     1       9.961  12.419  16.451  0.00  0.00    +0.000 HD
BRANCH  23  25
ATOM     25  O   UNL     1      11.034  14.152  16.015  0.00  0.00    +0.000 OA
ATOM     26  H   UNL     1      11.826  13.667  15.688  0.00  0.00    +0.000 HD
ENDBRANCH  23  25
ENDBRANCH  20  21
ENDBRANCH  19  20
ENDBRANCH  18  19
ENDBRANCH  17  18
ENDBRANCH  16  17
ENDBRANCH  15  16
ENDBRANCH   3  15
TORSDOF 9
ENDMDL
MODEL 6
REMARK VINA RESULT:      -7.4      3.272      4.348
REMARK  Name = 
REMARK  10 active torsions:
REMARK  status: ('A' for Active; 'I' for Inactive)
REMARK    1  A    between atoms: C_1  and  C_2
REMARK    2  A    between atoms: C_3  and  C_4
REMARK    3  A    between atoms: N_6  and  C_7
REMARK    4  A    between atoms: C_7  and  C_8
REMARK    5  A    between atoms: C_8  and  C_9
REMARK    6  A    between atoms: C_9  and  C_10
REMARK    7  A    between atoms: C_10  and  C_11
REMARK    8  A    between atoms: C_11  and  C_12
REMARK    9  A    between atoms: C_12  and  C_13
REMARK   10  A    between atoms: N_15  and  O_16
REMARK                            x       y       z     vdW  Elec       q    Type
REMARK                         _______ _______ _______ _____ _____    ______ ____
ROOT
ATOM      1  C   UNL     1       6.178   5.486  18.923  0.00  0.00    +0.000 C 
ATOM      2  O   UNL     1       6.970   5.451  19.863  0.00  0.00    +0.000 OA
ATOM      3  N   UNL     1       6.458   6.150  17.744  0.00  0.00    +0.000 N 
ATOM      4  H   UNL     1       5.752   6.102  17.018  0.00  0.00    +0.000 HD
ENDROOT
BRANCH   1   7
ATOM      5  C   UNL     1       3.115   6.739  19.194  0.00  0.00    +0.000 C 
ATOM      6  C   UNL     1       3.573   5.335  19.045  0.00  0.00    +0.000 A 
ATOM      7  C   UNL     1       4.871   4.842  18.928  0.00  0.00    +0.000 A 
ATOM      8  O   UNL     1       4.833   3.474  18.796  0.00  0.00    +0.000 OA
ATOM      9  C   UNL     1       3.531   3.090  18.835  0.00  0.00    +0.000 A 
ATOM     10  C   UNL     1       3.070   1.780  18.734  0.00  0.00    +0.000 A 
ATOM     11  C   UNL     1       1.685   1.598  18.799  0.00  0.00    +0.000 A 
ATOM     12  C   UNL     1       0.822   2.682  18.961  0.00  0.00    +0.000 A 
ATOM     13  C   UNL     1       1.317   3.990  19.059  0.00  0.00    +0.000 A 
ATOM     14  C   UNL     1       2.708   4.195  18.993  0.00  0.00    +0.000 A 
ENDBRANCH   1   7
BRANCH   3  15
ATOM     15  C   UNL     1       7.705   6.838  17.483  0.00  0.00    +0.000 C 
BRANCH  15  16
ATOM     16  C   UNL     1       7.565   8.353  17.643  0.00  0.00    +0.000 C 
BRANCH  16  17
ATOM     17  C   UNL     1       8.662   8.924  18.546  0.00  0.00    +0.000 C 
BRANCH  17  18
ATOM     18  C   UNL     1       9.002  10.376  18.195  0.00  0.00    +0.000 C 
BRANCH  18  19
ATOM     19  C   UNL     1       9.710  11.067  19.363  0.00  0.00    +0.000 C 
BRANCH  19  20
ATOM     20  C   UNL     1      11.004  11.760  18.938  0.00  0.00    +0.000 C 
BRANCH  20  21
ATOM     21  C   UNL     1      10.741  12.860  17.929  0.00  0.00    +0.000 C 
ATOM     22  O   UNL     1      11.295  12.951  16.836  0.00  0.00    +0.000 OA
ATOM     23  N   UNL     1       9.811  13.781  18.341  0.00  0.00    +0.000 N 
ATOM     24  H   UNL     1       9.256  13.722  19.188  0.00  0.00    +0.000 HD
BRANCH  23  25
ATOM     25  O   UNL     1       9.496  14.809  17.426  0.00  0.00    +0.000 OA
ATOM     26  H   UNL     1      10.231  14.739  16.775  0.00  0.00    +0.000 HD
ENDBRANCH  23  25
ENDBRANCH  20  21
ENDBRANCH  19  20
ENDBRANCH  18  19
ENDBRANCH  17  18
ENDBRANCH  16  17
ENDBRANCH  15  16
ENDBRANCH   3  15
TORSDOF 9
ENDMDL
MODEL 7
REMARK VINA RESULT:      -7.4      2.584      4.444
REMARK  Name = 
REMARK  10 active torsions:
REMARK  status: ('A' for Active; 'I' for Inactive)
REMARK    1  A    between atoms: C_1  and  C_2
REMARK    2  A    between atoms: C_3  and  C_4
REMARK    3  A    between atoms: N_6  and  C_7
REMARK    4  A    between atoms: C_7  and  C_8
REMARK    5  A    between atoms: C_8  and  C_9
REMARK    6  A    between atoms: C_9  and  C_10
REMARK    7  A    between atoms: C_10  and  C_11
REMARK    8  A    between atoms: C_11  and  C_12
REMARK    9  A    between atoms: C_12  and  C_13
REMARK   10  A    between atoms: N_15  and  O_16
REMARK                            x       y       z     vdW  Elec       q    Type
REMARK                         _______ _______ _______ _____ _____    ______ ____
ROOT
ATOM      1  C   UNL     1       6.434   5.429  19.248  0.00  0.00    +0.000 C 
ATOM      2  O   UNL     1       7.218   5.111  20.141  0.00  0.00    +0.000 OA
ATOM      3  N   UNL     1       6.731   6.404  18.315  0.00  0.00    +0.000 N 
ATOM      4  H   UNL     1       6.029   6.580  17.604  0.00  0.00    +0.000 HD
ENDROOT
BRANCH   1   7
ATOM      5  C   UNL     1       5.088   3.851  16.655  0.00  0.00    +0.000 C 
ATOM      6  C   UNL     1       4.522   4.169  17.990  0.00  0.00    +0.000 A 
ATOM      7  C   UNL     1       5.119   4.831  19.061  0.00  0.00    +0.000 A 
ATOM      8  O   UNL     1       4.233   4.895  20.112  0.00  0.00    +0.000 OA
ATOM      9  C   UNL     1       3.081   4.291  19.720  0.00  0.00    +0.000 A 
ATOM     10  C   UNL     1       1.937   4.148  20.500  0.00  0.00    +0.000 A 
ATOM     11  C   UNL     1       0.854   3.493  19.907  0.00  0.00    +0.000 A 
ATOM     12  C   UNL     1       0.929   3.016  18.597  0.00  0.00    +0.000 A 
ATOM     13  C   UNL     1       2.097   3.175  17.838  0.00  0.00    +0.000 A 
ATOM     14  C   UNL     1       3.199   3.829  18.418  0.00  0.00    +0.000 A 
ENDBRANCH   1   7
BRANCH   3  15
ATOM     15  C   UNL     1       7.987   7.122  18.269  0.00  0.00    +0.000 C 
BRANCH  15  16
ATOM     16  C   UNL     1       7.935   8.303  17.299  0.00  0.00    +0.000 C 
BRANCH  16  17
ATOM     17  C   UNL     1       7.855   9.637  18.045  0.00  0.00    +0.000 C 
BRANCH  17  18
ATOM     18  C   UNL     1       9.152   9.958  18.796  0.00  0.00    +0.000 C 
BRANCH  18  19
ATOM     19  C   UNL     1       9.900  11.110  18.122  0.00  0.00    +0.000 C 
BRANCH  19  20
ATOM     20  C   UNL     1       9.384  12.481  18.558  0.00  0.00    +0.000 C 
BRANCH  20  21
ATOM     21  C   UNL     1      10.285  13.597  18.069  0.00  0.00    +0.000 C 
ATOM     22  O   UNL     1      10.899  14.369  18.802  0.00  0.00    +0.000 OA
ATOM     23  N   UNL     1      10.364  13.689  16.702  0.00  0.00    +0.000 N 
ATOM     24  H   UNL     1       9.954  13.037  16.041  0.00  0.00    +0.000 HD
BRANCH  23  25
ATOM     25  O   UNL     1      11.218  14.687  16.187  0.00  0.00    +0.000 OA
ATOM     26  H   UNL     1      11.842  14.162  15.635  0.00  0.00    +0.000 HD
ENDBRANCH  23  25
ENDBRANCH  20  21
ENDBRANCH  19  20
ENDBRANCH  18  19
ENDBRANCH  17  18
ENDBRANCH  16  17
ENDBRANCH  15  16
ENDBRANCH   3  15
TORSDOF 9
ENDMDL
MODEL 8
REMARK VINA RESULT:      -7.4      1.910      3.783
REMARK  Name = 
REMARK  10 active torsions:
REMARK  status: ('A' for Active; 'I' for Inactive)
REMARK    1  A    between atoms: C_1  and  C_2
REMARK    2  A    between atoms: C_3  and  C_4
REMARK    3  A    between atoms: N_6  and  C_7
REMARK    4  A    between atoms: C_7  and  C_8
REMARK    5  A    between atoms: C_8  and  C_9
REMARK    6  A    between atoms: C_9  and  C_10
REMARK    7  A    between atoms: C_10  and  C_11
REMARK    8  A    between atoms: C_11  and  C_12
REMARK    9  A    between atoms: C_12  and  C_13
REMARK   10  A    between atoms: N_15  and  O_16
REMARK                            x       y       z     vdW  Elec       q    Type
REMARK                         _______ _______ _______ _____ _____    ______ ____
ROOT
ATOM      1  C   UNL     1       6.836   6.298  17.014  0.00  0.00    +0.000 C 
ATOM      2  O   UNL     1       7.467   6.178  15.966  0.00  0.00    +0.000 OA
ATOM      3  N   UNL     1       7.268   7.104  18.050  0.00  0.00    +0.000 N 
ATOM      4  H   UNL     1       6.667   7.156  18.865  0.00  0.00    +0.000 HD
ENDROOT
BRANCH   1   7
ATOM      5  C   UNL     1       5.341   3.732  15.528  0.00  0.00    +0.000 C 
ATOM      6  C   UNL     1       4.918   4.553  16.689  0.00  0.00    +0.000 A 
ATOM      7  C   UNL     1       5.575   5.624  17.293  0.00  0.00    +0.000 A 
ATOM      8  O   UNL     1       4.826   6.083  18.352  0.00  0.00    +0.000 OA
ATOM      9  C   UNL     1       3.701   5.326  18.424  0.00  0.00    +0.000 A 
ATOM     10  C   UNL     1       2.685   5.474  19.363  0.00  0.00    +0.000 A 
ATOM     11  C   UNL     1       1.607   4.590  19.263  0.00  0.00    +0.000 A 
ATOM     12  C   UNL     1       1.565   3.615  18.265  0.00  0.00    +0.000 A 
ATOM     13  C   UNL     1       2.606   3.490  17.334  0.00  0.00    +0.000 A 
ATOM     14  C   UNL     1       3.701   4.370  17.419  0.00  0.00    +0.000 A 
ENDBRANCH   1   7
BRANCH   3  15
ATOM     15  C   UNL     1       8.475   7.903  18.002  0.00  0.00    +0.000 C 
BRANCH  15  16
ATOM     16  C   UNL     1       8.187   9.386  18.240  0.00  0.00    +0.000 C 
BRANCH  16  17
ATOM     17  C   UNL     1       9.129   9.977  19.292  0.00  0.00    +0.000 C 
BRANCH  17  18
ATOM     18  C   UNL     1       9.835  11.241  18.792  0.00  0.00    +0.000 C 
BRANCH  18  19
ATOM     19  C   UNL     1      10.655  11.886  19.912  0.00  0.00    +0.000 C 
BRANCH  19  20
ATOM     20  C   UNL     1      11.902  12.599  19.391  0.00  0.00    +0.000 C 
BRANCH  20  21
ATOM     21  C   UNL     1      11.657  13.232  18.036  0.00  0.00    +0.000 C 
ATOM     22  O   UNL     1      10.924  14.199  17.841  0.00  0.00    +0.000 OA
ATOM     23  N   UNL     1      12.333  12.623  17.009  0.00  0.00    +0.000 N 
ATOM     24  H   UNL     1      13.016  11.880  17.108  0.00  0.00    +0.000 HD
BRANCH  23  25
ATOM     25  O   UNL     1      12.173  13.193  15.727  0.00  0.00    +0.000 OA
ATOM     26  H   UNL     1      13.024  12.961  15.290  0.00  0.00    +0.000 HD
ENDBRANCH  23  25
ENDBRANCH  20  21
ENDBRANCH  19  20
ENDBRANCH  18  19
ENDBRANCH  17  18
ENDBRANCH  16  17
ENDBRANCH  15  16
ENDBRANCH   3  15
TORSDOF 9
ENDMDL
MODEL 9
REMARK VINA RESULT:      -7.3      5.374      7.899
REMARK  Name = 
REMARK  10 active torsions:
REMARK  status: ('A' for Active; 'I' for Inactive)
REMARK    1  A    between atoms: C_1  and  C_2
REMARK    2  A    between atoms: C_3  and  C_4
REMARK    3  A    between atoms: N_6  and  C_7
REMARK    4  A    between atoms: C_7  and  C_8
REMARK    5  A    between atoms: C_8  and  C_9
REMARK    6  A    between atoms: C_9  and  C_10
REMARK    7  A    between atoms: C_10  and  C_11
REMARK    8  A    between atoms: C_11  and  C_12
REMARK    9  A    between atoms: C_12  and  C_13
REMARK   10  A    between atoms: N_15  and  O_16
REMARK                            x       y       z     vdW  Elec       q    Type
REMARK                         _______ _______ _______ _____ _____    ______ ____
ROOT
ATOM      1  C   UNL     1       5.362   4.245  18.047  0.00  0.00    +0.000 C 
ATOM      2  O   UNL     1       5.363   5.089  18.941  0.00  0.00    +0.000 OA
ATOM      3  N   UNL     1       4.809   2.989  18.216  0.00  0.00    +0.000 N 
ATOM      4  H   UNL     1       4.835   2.370  17.413  0.00  0.00    +0.000 HD
ENDROOT
BRANCH   1   7
ATOM      5  C   UNL     1       7.507   6.509  16.907  0.00  0.00    +0.000 C 
ATOM      6  C   UNL     1       6.821   5.392  16.209  0.00  0.00    +0.000 A 
ATOM      7  C   UNL     1       5.928   4.454  16.721  0.00  0.00    +0.000 A 
ATOM      8  O   UNL     1       5.547   3.589  15.721  0.00  0.00    +0.000 OA
ATOM      9  C   UNL     1       6.180   3.970  14.581  0.00  0.00    +0.000 A 
ATOM     10  C   UNL     1       6.059   3.347  13.342  0.00  0.00    +0.000 A 
ATOM     11  C   UNL     1       6.797   3.898  12.291  0.00  0.00    +0.000 A 
ATOM     12  C   UNL     1       7.606   5.018  12.487  0.00  0.00    +0.000 A 
ATOM     13  C   UNL     1       7.708   5.622  13.748  0.00  0.00    +0.000 A 
ATOM     14  C   UNL     1       6.974   5.081  14.820  0.00  0.00    +0.000 A 
ENDBRANCH   1   7
BRANCH   3  15
ATOM     15  C   UNL     1       4.156   2.552  19.432  0.00  0.00    +0.000 C 
BRANCH  15  16
ATOM     16  C   UNL     1       3.107   1.473  19.160  0.00  0.00    +0.000 C 
BRANCH  16  17
ATOM     17  C   UNL     1       1.688   2.042  19.232  0.00  0.00    +0.000 C 
BRANCH  17  18
ATOM     18  C   UNL     1       1.405   2.722  20.576  0.00  0.00    +0.000 C 
BRANCH  18  19
ATOM     19  C   UNL     1       0.800   4.112  20.366  0.00  0.00    +0.000 C 
BRANCH  19  20
ATOM     20  C   UNL     1       1.844   5.225  20.447  0.00  0.00    +0.000 C 
BRANCH  20  21
ATOM     21  C   UNL     1       2.243   5.715  19.070  0.00  0.00    +0.000 C 
ATOM     22  O   UNL     1       1.925   5.170  18.015  0.00  0.00    +0.000 OA
ATOM     23  N   UNL     1       3.017   6.848  19.086  0.00  0.00    +0.000 N 
ATOM     24  H   UNL     1       3.247   7.396  19.909  0.00  0.00    +0.000 HD
BRANCH  23  25
ATOM     25  O   UNL     1       3.389   7.374  17.830  0.00  0.00    +0.000 OA
ATOM     26  H   UNL     1       4.327   7.632  17.982  0.00  0.00    +0.000 HD
ENDBRANCH  23  25
ENDBRANCH  20  21
ENDBRANCH  19  20
ENDBRANCH  18  19
ENDBRANCH  17  18
ENDBRANCH  16  17
ENDBRANCH  15  16
ENDBRANCH   3  15
TORSDOF 9
ENDMDL
