MODEL 1
REMARK VINA RESULT:      -8.4      0.000      0.000
REMARK  Name = 
REMARK  3 active torsions:
REMARK  status: ('A' for Active; 'I' for Inactive)
REMARK    1  A    between atoms: C_2  and  C_3
REMARK    2  A    between atoms: C_3  and  C_4
REMARK    3  A    between atoms: N_10  and  C_11
REMARK                            x       y       z     vdW  Elec       q    Type
REMARK                         _______ _______ _______ _____ _____    ______ ____
ROOT
ATOM      1  C   UNL     1       7.261   6.177  18.488  0.00  0.00    +0.000 C 
ATOM      2  C   UNL     1       7.910   4.825  18.169  0.00  0.00    +0.000 C 
ATOM      3  O   UNL     1       7.534   4.413  16.850  0.00  0.00    +0.000 OA
ATOM      4  C   UNL     1       6.121   4.231  16.692  0.00  0.00    +0.000 C 
ATOM      5  C   UNL     1       5.307   5.483  17.069  0.00  0.00    +0.000 C 
ATOM      6  C   UNL     1       3.835   5.197  17.314  0.00  0.00    +0.000 C 
ATOM      7  N   UNL     1       3.717   4.704  18.705  0.00  0.00    +0.000 NA
ATOM      8  C   UNL     1       5.020   5.008  19.363  0.00  0.00    +0.000 C 
ATOM      9  C   UNL     1       5.724   6.014  18.425  0.00  0.00    +0.000 C 
ENDROOT
BRANCH   7  10
ATOM     10  C   UNL     1       3.292   3.284  18.778  0.00  0.00    +0.000 C 
ATOM     11  C   UNL     1       3.577   2.604  20.133  0.00  0.00    +0.000 C 
ATOM     12  C   UNL     1       2.586   3.005  21.218  0.00  0.00    +0.000 C 
ATOM     13  O   UNL     1       1.244   2.750  20.804  0.00  0.00    +0.000 OA
ATOM     14  C   UNL     1       0.906   3.506  19.644  0.00  0.00    +0.000 C 
ATOM     15  C   UNL     1       1.785   3.087  18.477  0.00  0.00    +0.000 C 
ENDBRANCH   7  10
BRANCH   1  16
ATOM     16  C   UNL     1       7.828   7.193  17.438  0.00  0.00    +0.000 C 
BRANCH  16  18
ATOM     17  O   UNL     1       7.109   9.502  17.395  0.00  0.00    +0.000 OA
ATOM     18  C   UNL     1       7.865   8.650  17.853  0.00  0.00    +0.000 C 
ATOM     19  N   UNL     1       8.846   8.923  18.790  0.00  0.00    +0.000 N 
ATOM     20  C   UNL     1       9.156  10.232  19.167  0.00  0.00    +0.000 A 
ATOM     21  C   UNL     1       9.207  11.283  18.246  0.00  0.00    +0.000 A 
ATOM     22  N   UNL     1       9.484  12.564  18.599  0.00  0.00    +0.000 NA
ATOM     23  C   UNL     1       9.673  12.757  19.920  0.00  0.00    +0.000 A 
ATOM     24  C   UNL     1       9.642  11.715  20.833  0.00  0.00    +0.000 A 
ATOM     25  N   UNL     1       9.425  10.425  20.474  0.00  0.00    +0.000 NA
ATOM     26  H   UNL     1       9.045   8.227  19.495  0.00  0.00    +0.000 HD
ENDBRANCH  16  18
ENDBRANCH   1  16
TORSDOF 3
ENDMDL
MODEL 2
REMARK VINA RESULT:      -8.1      1.266      1.574
REMARK  Name = 
REMARK  3 active torsions:
REMARK  status: ('A' for Active; 'I' for Inactive)
REMARK    1  A    between atoms: C_2  and  C_3
REMARK    2  A    between atoms: C_3  and  C_4
REMARK    3  A    between atoms: N_10  and  C_11
REMARK                            x       y       z     vdW  Elec       q    Type
REMARK                         _______ _______ _______ _____ _____    ______ ____
ROOT
ATOM      1  C   UNL     1       7.125   6.319  17.824  0.00  0.00    +0.000 C 
ATOM      2  C   UNL     1       7.019   5.491  16.536  0.00  0.00    +0.000 C 
ATOM      3  O   UNL     1       5.940   5.987  15.737  0.00  0.00    +0.000 OA
ATOM      4  C   UNL     1       4.664   5.894  16.383  0.00  0.00    +0.000 C 
ATOM      5  C   UNL     1       4.629   6.602  17.751  0.00  0.00    +0.000 C 
ATOM      6  C   UNL     1       3.462   6.173  18.625  0.00  0.00    +0.000 C 
ATOM      7  N   UNL     1       3.861   4.911  19.290  0.00  0.00    +0.000 NA
ATOM      8  C   UNL     1       5.331   4.780  19.078  0.00  0.00    +0.000 C 
ATOM      9  C   UNL     1       5.801   6.177  18.612  0.00  0.00    +0.000 C 
ENDROOT
BRANCH   7  10
ATOM     10  C   UNL     1       3.056   3.747  18.844  0.00  0.00    +0.000 C 
ATOM     11  C   UNL     1       3.267   2.470  19.684  0.00  0.00    +0.000 C 
ATOM     12  C   UNL     1       2.546   2.515  21.025  0.00  0.00    +0.000 C 
ATOM     13  O   UNL     1       1.154   2.772  20.848  0.00  0.00    +0.000 OA
ATOM     14  C   UNL     1       0.933   4.034  20.225  0.00  0.00    +0.000 C 
ATOM     15  C   UNL     1       1.534   4.035  18.829  0.00  0.00    +0.000 C 
ENDBRANCH   7  10
BRANCH   1  16
ATOM     16  C   UNL     1       7.434   7.788  17.375  0.00  0.00    +0.000 C 
BRANCH  16  18
ATOM     17  O   UNL     1       8.974   8.097  19.214  0.00  0.00    +0.000 OA
ATOM     18  C   UNL     1       8.417   8.566  18.226  0.00  0.00    +0.000 C 
ATOM     19  N   UNL     1       8.613   9.862  17.782  0.00  0.00    +0.000 N 
ATOM     20  C   UNL     1       9.342  10.791  18.528  0.00  0.00    +0.000 A 
ATOM     21  C   UNL     1       9.240  10.877  19.920  0.00  0.00    +0.000 A 
ATOM     22  N   UNL     1       9.959  11.758  20.661  0.00  0.00    +0.000 NA
ATOM     23  C   UNL     1      10.812  12.526  19.955  0.00  0.00    +0.000 A 
ATOM     24  C   UNL     1      10.902  12.456  18.574  0.00  0.00    +0.000 A 
ATOM     25  N   UNL     1      10.141  11.619  17.826  0.00  0.00    +0.000 NA
ATOM     26  H   UNL     1       8.610  10.035  16.786  0.00  0.00    +0.000 HD
ENDBRANCH  16  18
ENDBRANCH   1  16
TORSDOF 3
ENDMDL
MODEL 3
REMARK VINA RESULT:      -7.0      3.448     10.257
REMARK  Name = 
REMARK  3 active torsions:
REMARK  status: ('A' for Active; 'I' for Inactive)
REMARK    1  A    between atoms: C_2  and  C_3
REMARK    2  A    between atoms: C_3  and  C_4
REMARK    3  A    between atoms: N_10  and  C_11
REMARK                            x       y       z     vdW  Elec       q    Type
REMARK                         _______ _______ _______ _____ _____    ______ ____
ROOT
ATOM      1  C   UNL     1       9.770  11.121  18.351  0.00  0.00    +0.000 C 
ATOM      2  C   UNL     1      11.217  11.199  18.854  0.00  0.00    +0.000 C 
ATOM      3  O   UNL     1      11.222  11.393  20.273  0.00  0.00    +0.000 OA
ATOM      4  C   UNL     1      10.584  12.610  20.683  0.00  0.00    +0.000 C 
ATOM      5  C   UNL     1       9.136  12.733  20.172  0.00  0.00    +0.000 C 
ATOM      6  C   UNL     1       8.594  14.151  20.226  0.00  0.00    +0.000 C 
ATOM      7  N   UNL     1       9.079  14.845  19.010  0.00  0.00    +0.000 NA
ATOM      8  C   UNL     1       9.605  13.780  18.109  0.00  0.00    +0.000 C 
ATOM      9  C   UNL     1       9.059  12.454  18.685  0.00  0.00    +0.000 C 
ENDROOT
BRANCH   7  10
ATOM     10  C   UNL     1      10.034  15.939  19.316  0.00  0.00    +0.000 C 
ATOM     11  C   UNL     1      11.089  16.185  18.217  0.00  0.00    +0.000 C 
ATOM     12  C   UNL     1      10.533  16.943  17.019  0.00  0.00    +0.000 C 
ATOM     13  O   UNL     1       9.937  18.175  17.424  0.00  0.00    +0.000 OA
ATOM     14  C   UNL     1       8.843  17.955  18.311  0.00  0.00    +0.000 C 
ATOM     15  C   UNL     1       9.335  17.294  19.588  0.00  0.00    +0.000 C 
ENDBRANCH   7  10
BRANCH   1  16
ATOM     16  C   UNL     1       9.130   9.875  19.054  0.00  0.00    +0.000 C 
BRANCH  16  18
ATOM     17  O   UNL     1       7.826   9.246  17.118  0.00  0.00    +0.000 OA
ATOM     18  C   UNL     1       8.366   8.913  18.169  0.00  0.00    +0.000 C 
ATOM     19  N   UNL     1       8.328   7.624  18.671  0.00  0.00    +0.000 N 
ATOM     20  C   UNL     1       7.528   6.635  18.094  0.00  0.00    +0.000 A 
ATOM     21  C   UNL     1       6.238   6.897  17.624  0.00  0.00    +0.000 A 
ATOM     22  N   UNL     1       5.457   5.953  17.041  0.00  0.00    +0.000 NA
ATOM     23  C   UNL     1       6.034   4.741  16.915  0.00  0.00    +0.000 A 
ATOM     24  C   UNL     1       7.306   4.473  17.396  0.00  0.00    +0.000 A 
ATOM     25  N   UNL     1       8.064   5.399  18.034  0.00  0.00    +0.000 NA
ATOM     26  H   UNL     1       9.143   7.273  19.157  0.00  0.00    +0.000 HD
ENDBRANCH  16  18
ENDBRANCH   1  16
TORSDOF 3
ENDMDL
MODEL 4
REMARK VINA RESULT:      -6.8      4.259      6.711
REMARK  Name = 
REMARK  3 active torsions:
REMARK  status: ('A' for Active; 'I' for Inactive)
REMARK    1  A    between atoms: C_2  and  C_3
REMARK    2  A    between atoms: C_3  and  C_4
REMARK    3  A    between atoms: N_10  and  C_11
REMARK                            x       y       z     vdW  Elec       q    Type
REMARK                         _______ _______ _______ _____ _____    ______ ____
ROOT
ATOM      1  C   UNL     1       2.691   4.060  20.287  0.00  0.00    +0.000 C 
ATOM      2  C   UNL     1       1.275   3.672  19.844  0.00  0.00    +0.000 C 
ATOM      3  O   UNL     1       1.174   3.777  18.419  0.00  0.00    +0.000 OA
ATOM      4  C   UNL     1       1.402   5.104  17.929  0.00  0.00    +0.000 C 
ATOM      5  C   UNL     1       2.759   5.685  18.370  0.00  0.00    +0.000 C 
ATOM      6  C   UNL     1       2.846   7.194  18.230  0.00  0.00    +0.000 C 
ATOM      7  N   UNL     1       2.207   7.777  19.433  0.00  0.00    +0.000 NA
ATOM      8  C   UNL     1       2.052   6.656  20.403  0.00  0.00    +0.000 C 
ATOM      9  C   UNL     1       2.957   5.524  19.864  0.00  0.00    +0.000 C 
ENDROOT
BRANCH   7  10
ATOM     10  C   UNL     1       0.958   8.515  19.120  0.00  0.00    +0.000 C 
ATOM     11  C   UNL     1       0.378   9.313  20.307  0.00  0.00    +0.000 C 
ATOM     12  C   UNL     1       1.131  10.609  20.575  0.00  0.00    +0.000 C 
ATOM     13  O   UNL     1       1.183  11.423  19.404  0.00  0.00    +0.000 OA
ATOM     14  C   UNL     1       1.872  10.763  18.344  0.00  0.00    +0.000 C 
ATOM     15  C   UNL     1       1.120   9.506  17.941  0.00  0.00    +0.000 C 
ENDBRANCH   7  10
BRANCH   1  16
ATOM     16  C   UNL     1       3.658   3.027  19.613  0.00  0.00    +0.000 C 
BRANCH  16  18
ATOM     17  O   UNL     1       5.792   4.120  19.297  0.00  0.00    +0.000 OA
ATOM     18  C   UNL     1       4.800   3.597  18.797  0.00  0.00    +0.000 C 
ATOM     19  N   UNL     1       4.606   3.478  17.432  0.00  0.00    +0.000 N 
ATOM     20  C   UNL     1       5.457   4.096  16.514  0.00  0.00    +0.000 A 
ATOM     21  C   UNL     1       5.966   5.383  16.714  0.00  0.00    +0.000 A 
ATOM     22  N   UNL     1       6.811   5.988  15.843  0.00  0.00    +0.000 NA
ATOM     23  C   UNL     1       7.156   5.238  14.777  0.00  0.00    +0.000 A 
ATOM     24  C   UNL     1       6.639   3.970  14.565  0.00  0.00    +0.000 A 
ATOM     25  N   UNL     1       5.747   3.387  15.404  0.00  0.00    +0.000 NA
ATOM     26  H   UNL     1       4.143   2.650  17.083  0.00  0.00    +0.000 HD
ENDBRANCH  16  18
ENDBRANCH   1  16
TORSDOF 3
ENDMDL
MODEL 5
REMARK VINA RESULT:      -6.7      3.865      7.526
REMARK  Name = 
REMARK  3 active torsions:
REMARK  status: ('A' for Active; 'I' for Inactive)
REMARK    1  A    between atoms: C_2  and  C_3
REMARK    2  A    between atoms: C_3  and  C_4
REMARK    3  A    between atoms: N_10  and  C_11
REMARK                            x       y       z     vdW  Elec       q    Type
REMARK                         _______ _______ _______ _____ _____    ______ ____
ROOT
ATOM      1  C   UNL     1       7.256   5.415  17.656  0.00  0.00    +0.000 C 
ATOM      2  C   UNL     1       7.360   6.808  17.020  0.00  0.00    +0.000 C 
ATOM      3  O   UNL     1       6.046   7.317  16.765  0.00  0.00    +0.000 OA
ATOM      4  C   UNL     1       5.291   6.510  15.853  0.00  0.00    +0.000 C 
ATOM      5  C   UNL     1       5.172   5.042  16.302  0.00  0.00    +0.000 C 
ATOM      6  C   UNL     1       4.758   4.098  15.187  0.00  0.00    +0.000 C 
ATOM      7  N   UNL     1       5.984   3.764  14.426  0.00  0.00    +0.000 NA
ATOM      8  C   UNL     1       7.128   4.223  15.265  0.00  0.00    +0.000 C 
ATOM      9  C   UNL     1       6.529   4.475  16.667  0.00  0.00    +0.000 C 
ENDROOT
BRANCH   7  10
ATOM     10  C   UNL     1       5.966   4.298  13.041  0.00  0.00    +0.000 C 
ATOM     11  C   UNL     1       7.299   4.138  12.282  0.00  0.00    +0.000 C 
ATOM     12  C   UNL     1       7.532   2.719  11.781  0.00  0.00    +0.000 C 
ATOM     13  O   UNL     1       6.441   2.277  10.974  0.00  0.00    +0.000 OA
ATOM     14  C   UNL     1       5.223   2.253  11.714  0.00  0.00    +0.000 C 
ATOM     15  C   UNL     1       4.862   3.660  12.162  0.00  0.00    +0.000 C 
ENDBRANCH   7  10
BRANCH   1  16
ATOM     16  C   UNL     1       6.495   5.610  19.012  0.00  0.00    +0.000 C 
BRANCH  16  18
ATOM     17  O   UNL     1       5.559   3.427  19.465  0.00  0.00    +0.000 OA
ATOM     18  C   UNL     1       5.378   4.632  19.311  0.00  0.00    +0.000 C 
ATOM     19  N   UNL     1       4.133   5.232  19.382  0.00  0.00    +0.000 N 
ATOM     20  C   UNL     1       2.960   4.480  19.473  0.00  0.00    +0.000 A 
ATOM     21  C   UNL     1       2.771   3.299  18.750  0.00  0.00    +0.000 A 
ATOM     22  N   UNL     1       1.647   2.544  18.844  0.00  0.00    +0.000 NA
ATOM     23  C   UNL     1       0.732   3.003  19.722  0.00  0.00    +0.000 A 
ATOM     24  C   UNL     1       0.907   4.183  20.426  0.00  0.00    +0.000 A 
ATOM     25  N   UNL     1       2.003   4.969  20.288  0.00  0.00    +0.000 NA
ATOM     26  H   UNL     1       4.068   6.159  19.781  0.00  0.00    +0.000 HD
ENDBRANCH  16  18
ENDBRANCH   1  16
TORSDOF 3
ENDMDL
MODEL 6
REMARK VINA RESULT:      -6.6      4.286      6.758
REMARK  Name = 
REMARK  3 active torsions:
REMARK  status: ('A' for Active; 'I' for Inactive)
REMARK    1  A    between atoms: C_2  and  C_3
REMARK    2  A    between atoms: C_3  and  C_4
REMARK    3  A    between atoms: N_10  and  C_11
REMARK                            x       y       z     vdW  Elec       q    Type
REMARK                         _______ _______ _______ _____ _____    ______ ____
ROOT
ATOM      1  C   UNL     1       2.068   5.942  19.142  0.00  0.00    +0.000 C 
ATOM      2  C   UNL     1       1.674   4.460  19.081  0.00  0.00    +0.000 C 
ATOM      3  O   UNL     1       2.476   3.714  20.004  0.00  0.00    +0.000 OA
ATOM      4  C   UNL     1       3.879   3.772  19.715  0.00  0.00    +0.000 C 
ATOM      5  C   UNL     1       4.420   5.212  19.644  0.00  0.00    +0.000 C 
ATOM      6  C   UNL     1       5.763   5.321  18.942  0.00  0.00    +0.000 C 
ATOM      7  N   UNL     1       5.488   5.355  17.487  0.00  0.00    +0.000 NA
ATOM      8  C   UNL     1       4.024   5.598  17.349  0.00  0.00    +0.000 C 
ATOM      9  C   UNL     1       3.557   6.073  18.744  0.00  0.00    +0.000 C 
ENDROOT
BRANCH   7  10
ATOM     10  C   UNL     1       5.996   4.154  16.778  0.00  0.00    +0.000 C 
ATOM     11  C   UNL     1       5.124   3.706  15.586  0.00  0.00    +0.000 C 
ATOM     12  C   UNL     1       5.315   4.574  14.350  0.00  0.00    +0.000 C 
ATOM     13  O   UNL     1       6.690   4.628  13.971  0.00  0.00    +0.000 OA
ATOM     14  C   UNL     1       7.491   5.203  15.000  0.00  0.00    +0.000 C 
ATOM     15  C   UNL     1       7.439   4.332  16.245  0.00  0.00    +0.000 C 
ENDBRANCH   7  10
BRANCH   1  16
ATOM     16  C   UNL     1       1.766   6.415  20.605  0.00  0.00    +0.000 C 
BRANCH  16  18
ATOM     17  O   UNL     1       1.284   8.405  21.892  0.00  0.00    +0.000 OA
ATOM     18  C   UNL     1       1.444   7.884  20.792  0.00  0.00    +0.000 C 
ATOM     19  N   UNL     1       1.338   8.573  19.597  0.00  0.00    +0.000 N 
ATOM     20  C   UNL     1       0.877   9.891  19.549  0.00  0.00    +0.000 A 
ATOM     21  C   UNL     1      -0.182  10.342  20.343  0.00  0.00    +0.000 A 
ATOM     22  N   UNL     1      -0.627  11.624  20.324  0.00  0.00    +0.000 NA
ATOM     23  C   UNL     1       0.056  12.446  19.503  0.00  0.00    +0.000 A 
ATOM     24  C   UNL     1       1.094  11.999  18.701  0.00  0.00    +0.000 A 
ATOM     25  N   UNL     1       1.500  10.705  18.674  0.00  0.00    +0.000 NA
ATOM     26  H   UNL     1       1.955   8.318  18.838  0.00  0.00    +0.000 HD
ENDBRANCH  16  18
ENDBRANCH   1  16
TORSDOF 3
ENDMDL
MODEL 7
REMARK VINA RESULT:      -6.6      4.754      7.009
REMARK  Name = 
REMARK  3 active torsions:
REMARK  status: ('A' for Active; 'I' for Inactive)
REMARK    1  A    between atoms: C_2  and  C_3
REMARK    2  A    between atoms: C_3  and  C_4
REMARK    3  A    between atoms: N_10  and  C_11
REMARK                            x       y       z     vdW  Elec       q    Type
REMARK                         _______ _______ _______ _____ _____    ______ ____
ROOT
ATOM      1  C   UNL     1       2.367   6.374  18.832  0.00  0.00    +0.000 C 
ATOM      2  C   UNL     1       1.903   4.912  18.831  0.00  0.00    +0.000 C 
ATOM      3  O   UNL     1       2.650   4.172  19.803  0.00  0.00    +0.000 OA
ATOM      4  C   UNL     1       4.059   4.149  19.541  0.00  0.00    +0.000 C 
ATOM      5  C   UNL     1       4.671   5.557  19.416  0.00  0.00    +0.000 C 
ATOM      6  C   UNL     1       6.031   5.568  18.738  0.00  0.00    +0.000 C 
ATOM      7  N   UNL     1       5.785   5.547  17.277  0.00  0.00    +0.000 NA
ATOM      8  C   UNL     1       4.337   5.853  17.098  0.00  0.00    +0.000 C 
ATOM      9  C   UNL     1       3.868   6.415  18.460  0.00  0.00    +0.000 C 
ENDROOT
BRANCH   7  10
ATOM     10  C   UNL     1       6.246   4.291  16.635  0.00  0.00    +0.000 C 
ATOM     11  C   UNL     1       5.229   3.669  15.655  0.00  0.00    +0.000 C 
ATOM     12  C   UNL     1       5.178   4.390  14.315  0.00  0.00    +0.000 C 
ATOM     13  O   UNL     1       6.472   4.453  13.718  0.00  0.00    +0.000 OA
ATOM     14  C   UNL     1       7.387   5.178  14.536  0.00  0.00    +0.000 C 
ATOM     15  C   UNL     1       7.578   4.461  15.862  0.00  0.00    +0.000 C 
ENDBRANCH   7  10
BRANCH   1  16
ATOM     16  C   UNL     1       2.061   6.929  20.265  0.00  0.00    +0.000 C 
BRANCH  16  18
ATOM     17  O   UNL     1       1.138   8.975  19.365  0.00  0.00    +0.000 OA
ATOM     18  C   UNL     1       1.327   8.252  20.339  0.00  0.00    +0.000 C 
ATOM     19  N   UNL     1       0.903   8.568  21.618  0.00  0.00    +0.000 N 
ATOM     20  C   UNL     1       0.366   9.821  21.924  0.00  0.00    +0.000 A 
ATOM     21  C   UNL     1       0.882  11.006  21.391  0.00  0.00    +0.000 A 
ATOM     22  N   UNL     1       0.357  12.228  21.660  0.00  0.00    +0.000 NA
ATOM     23  C   UNL     1      -0.729  12.213  22.458  0.00  0.00    +0.000 A 
ATOM     24  C   UNL     1      -1.232  11.042  23.003  0.00  0.00    +0.000 A 
ATOM     25  N   UNL     1      -0.673   9.826  22.784  0.00  0.00    +0.000 NA
ATOM     26  H   UNL     1       0.587   7.819  22.219  0.00  0.00    +0.000 HD
ENDBRANCH  16  18
ENDBRANCH   1  16
TORSDOF 3
ENDMDL
MODEL 8
REMARK VINA RESULT:      -6.5      3.409     10.080
REMARK  Name = 
REMARK  3 active torsions:
REMARK  status: ('A' for Active; 'I' for Inactive)
REMARK    1  A    between atoms: C_2  and  C_3
REMARK    2  A    between atoms: C_3  and  C_4
REMARK    3  A    between atoms: N_10  and  C_11
REMARK                            x       y       z     vdW  Elec       q    Type
REMARK                         _______ _______ _______ _____ _____    ______ ____
ROOT
ATOM      1  C   UNL     1       9.170  11.200  18.519  0.00  0.00    +0.000 C 
ATOM      2  C   UNL     1      10.556  11.416  17.897  0.00  0.00    +0.000 C 
ATOM      3  O   UNL     1      11.567  11.102  18.861  0.00  0.00    +0.000 OA
ATOM      4  C   UNL     1      11.514  11.930  20.031  0.00  0.00    +0.000 C 
ATOM      5  C   UNL     1      10.142  11.900  20.729  0.00  0.00    +0.000 C 
ATOM      6  C   UNL     1       9.926  13.055  21.691  0.00  0.00    +0.000 C 
ATOM      7  N   UNL     1       9.488  14.216  20.882  0.00  0.00    +0.000 NA
ATOM      8  C   UNL     1       9.133  13.673  19.540  0.00  0.00    +0.000 C 
ATOM      9  C   UNL     1       9.023  12.144  19.736  0.00  0.00    +0.000 C 
ENDROOT
BRANCH   7  10
ATOM     10  C   UNL     1      10.482  15.318  20.871  0.00  0.00    +0.000 C 
ATOM     11  C   UNL     1      10.391  16.243  19.639  0.00  0.00    +0.000 C 
ATOM     12  C   UNL     1       9.232  17.227  19.720  0.00  0.00    +0.000 C 
ATOM     13  O   UNL     1       9.297  17.998  20.919  0.00  0.00    +0.000 OA
ATOM     14  C   UNL     1       9.209  17.168  22.075  0.00  0.00    +0.000 C 
ATOM     15  C   UNL     1      10.396  16.222  22.127  0.00  0.00    +0.000 C 
ENDBRANCH   7  10
BRANCH   1  16
ATOM     16  C   UNL     1       9.090   9.680  18.890  0.00  0.00    +0.000 C 
BRANCH  16  18
ATOM     17  O   UNL     1       7.503   9.260  17.114  0.00  0.00    +0.000 OA
ATOM     18  C   UNL     1       8.191   8.817  18.029  0.00  0.00    +0.000 C 
ATOM     19  N   UNL     1       8.214   7.480  18.387  0.00  0.00    +0.000 N 
ATOM     20  C   UNL     1       7.326   6.556  17.832  0.00  0.00    +0.000 A 
ATOM     21  C   UNL     1       5.983   6.861  17.593  0.00  0.00    +0.000 A 
ATOM     22  N   UNL     1       5.112   5.983  17.034  0.00  0.00    +0.000 NA
ATOM     23  C   UNL     1       5.651   4.796  16.691  0.00  0.00    +0.000 A 
ATOM     24  C   UNL     1       6.977   4.483  16.944  0.00  0.00    +0.000 A 
ATOM     25  N   UNL     1       7.833   5.337  17.557  0.00  0.00    +0.000 NA
ATOM     26  H   UNL     1       9.088   7.082  18.704  0.00  0.00    +0.000 HD
ENDBRANCH  16  18
ENDBRANCH   1  16
TORSDOF 3
ENDMDL
MODEL 9
REMARK VINA RESULT:      -6.4      1.268      1.572
REMARK  Name = 
REMARK  3 active torsions:
REMARK  status: ('A' for Active; 'I' for Inactive)
REMARK    1  A    between atoms: C_2  and  C_3
REMARK    2  A    between atoms: C_3  and  C_4
REMARK    3  A    between atoms: N_10  and  C_11
REMARK                            x       y       z     vdW  Elec       q    Type
REMARK                         _______ _______ _______ _____ _____    ______ ____
ROOT
ATOM      1  C   UNL     1       5.824   6.502  18.470  0.00  0.00    +0.000 C 
ATOM      2  C   UNL     1       6.662   5.420  19.163  0.00  0.00    +0.000 C 
ATOM      3  O   UNL     1       7.170   4.508  18.183  0.00  0.00    +0.000 OA
ATOM      4  C   UNL     1       6.142   3.821  17.458  0.00  0.00    +0.000 C 
ATOM      5  C   UNL     1       5.147   4.776  16.772  0.00  0.00    +0.000 C 
ATOM      6  C   UNL     1       3.846   4.106  16.366  0.00  0.00    +0.000 C 
ATOM      7  N   UNL     1       2.983   4.073  17.569  0.00  0.00    +0.000 NA
ATOM      8  C   UNL     1       3.618   4.990  18.558  0.00  0.00    +0.000 C 
ATOM      9  C   UNL     1       4.639   5.820  17.746  0.00  0.00    +0.000 C 
ENDROOT
BRANCH   7  10
ATOM     10  C   UNL     1       2.733   2.694  18.060  0.00  0.00    +0.000 C 
ATOM     11  C   UNL     1       3.591   2.290  19.277  0.00  0.00    +0.000 C 
ATOM     12  C   UNL     1       3.092   2.895  20.582  0.00  0.00    +0.000 C 
ATOM     13  O   UNL     1       1.721   2.569  20.807  0.00  0.00    +0.000 OA
ATOM     14  C   UNL     1       0.888   3.087  19.772  0.00  0.00    +0.000 C 
ATOM     15  C   UNL     1       1.253   2.448  18.443  0.00  0.00    +0.000 C 
ENDBRANCH   7  10
BRANCH   1  16
ATOM     16  C   UNL     1       6.798   7.258  17.503  0.00  0.00    +0.000 C 
BRANCH  16  18
ATOM     17  O   UNL     1       8.727   7.489  18.944  0.00  0.00    +0.000 OA
ATOM     18  C   UNL     1       7.949   8.005  18.146  0.00  0.00    +0.000 C 
ATOM     19  N   UNL     1       8.026   9.329  17.751  0.00  0.00    +0.000 N 
ATOM     20  C   UNL     1       8.905  10.226  18.362  0.00  0.00    +0.000 A 
ATOM     21  C   UNL     1       9.134  10.228  19.740  0.00  0.00    +0.000 A 
ATOM     22  N   UNL     1      10.001  11.078  20.346  0.00  0.00    +0.000 NA
ATOM     23  C   UNL     1      10.659  11.905  19.509  0.00  0.00    +0.000 A 
ATOM     24  C   UNL     1      10.421  11.919  18.143  0.00  0.00    +0.000 A 
ATOM     25  N   UNL     1       9.510  11.112  17.544  0.00  0.00    +0.000 NA
ATOM     26  H   UNL     1       7.788   9.560  16.796  0.00  0.00    +0.000 HD
ENDBRANCH  16  18
ENDBRANCH   1  16
TORSDOF 3
ENDMDL
