MODEL 1
REMARK VINA RESULT:      -7.5      0.000      0.000
REMARK  Name = 
REMARK  4 active torsions:
REMARK  status: ('A' for Active; 'I' for Inactive)
REMARK    1  A    between atoms: C_2  and  C_3
REMARK    2  A    between atoms: C_7  and  C_8
REMARK    3  A    between atoms: N_10  and  C_11
REMARK    4  A    between atoms: C_17  and  C_19
REMARK                            x       y       z     vdW  Elec       q    Type
REMARK                         _______ _______ _______ _____ _____    ______ ____
ROOT
ATOM      1  C   UNL     1       0.062   8.687  21.059  0.00  0.00    +0.000 C 
ATOM      2  O   UNL     1      -0.693   7.807  21.453  0.00  0.00    +0.000 OA
ATOM      3  N   UNL     1       1.309   8.451  20.486  0.00  0.00    +0.000 N 
ATOM      4  H   UNL     1       1.947   9.235  20.397  0.00  0.00    +0.000 HD
ENDROOT
BRANCH   3   5
ATOM      5  C   UNL     1       1.836   7.169  20.182  0.00  0.00    +0.000 A 
ATOM      6  C   UNL     1       1.710   6.086  21.047  0.00  0.00    +0.000 A 
ATOM      7  C   UNL     1       2.267   4.880  20.679  0.00  0.00    +0.000 A 
ATOM      8  N   UNL     1       2.925   4.687  19.525  0.00  0.00    +0.000 NA
ATOM      9  C   UNL     1       3.054   5.725  18.686  0.00  0.00    +0.000 A 
ATOM     10  N   UNL     1       3.780   5.566  17.497  0.00  0.00    +0.000 N 
ATOM     11  C   UNL     1       4.386   4.396  17.092  0.00  0.00    +0.000 C 
ATOM     12  O   UNL     1       4.373   3.309  17.650  0.00  0.00    +0.000 OA
ATOM     13  C   UNL     1       2.503   6.977  18.966  0.00  0.00    +0.000 A 
ATOM     14  H   UNL     1       3.906   6.382  16.913  0.00  0.00    +0.000 HD
BRANCH  11  15
ATOM     15  C   UNL     1       5.135   4.475  15.804  0.00  0.00    +0.000 C 
ATOM     16  C   UNL     1       5.994   5.684  15.499  0.00  0.00    +0.000 C 
ATOM     17  C   UNL     1       6.621   4.339  15.685  0.00  0.00    +0.000 C 
ATOM     18  F   UNL     1       7.367   4.153  16.835  0.00  0.00    +0.000 F 
ENDBRANCH  11  15
ENDBRANCH   3   5
BRANCH   1  23
ATOM     19  C   UNL     1      -1.270  12.738  21.749  0.00  0.00    +0.000 A 
ATOM     20  C   UNL     1      -0.962  11.897  22.817  0.00  0.00    +0.000 A 
ATOM     21  C   UNL     1      -0.508  10.600  22.570  0.00  0.00    +0.000 A 
ATOM     22  F   UNL     1      -0.234   9.831  23.637  0.00  0.00    +0.000 F 
ATOM     23  C   UNL     1      -0.346  10.106  21.272  0.00  0.00    +0.000 A 
ATOM     24  C   UNL     1      -0.647  10.969  20.201  0.00  0.00    +0.000 A 
ATOM     25 CL   UNL     1      -0.437  10.559  18.532  0.00  0.00    +0.000 Cl
ATOM     26  C   UNL     1      -1.109  12.274  20.443  0.00  0.00    +0.000 A 
BRANCH  19  28
ATOM     27  N   UNL     1      -2.115  15.150  22.186  0.00  0.00    +0.000 NA
ATOM     28  C   UNL     1      -1.741  14.071  21.989  0.00  0.00    +0.000 C 
ENDBRANCH  19  28
ENDBRANCH   1  23
TORSDOF 4
ENDMDL
MODEL 2
REMARK VINA RESULT:      -7.5      2.793      3.618
REMARK  Name = 
REMARK  4 active torsions:
REMARK  status: ('A' for Active; 'I' for Inactive)
REMARK    1  A    between atoms: C_2  and  C_3
REMARK    2  A    between atoms: C_7  and  C_8
REMARK    3  A    between atoms: N_10  and  C_11
REMARK    4  A    between atoms: C_17  and  C_19
REMARK                            x       y       z     vdW  Elec       q    Type
REMARK                         _______ _______ _______ _____ _____    ______ ____
ROOT
ATOM      1  C   UNL     1       0.099  11.444  21.214  0.00  0.00    +0.000 C 
ATOM      2  O   UNL     1       1.239  11.740  21.554  0.00  0.00    +0.000 OA
ATOM      3  N   UNL     1      -0.208  10.468  20.270  0.00  0.00    +0.000 N 
ATOM      4  H   UNL     1      -1.152  10.449  19.897  0.00  0.00    +0.000 HD
ENDROOT
BRANCH   3   5
ATOM      5  C   UNL     1       0.736   9.611  19.647  0.00  0.00    +0.000 A 
ATOM      6  C   UNL     1       1.330   9.917  18.426  0.00  0.00    +0.000 A 
ATOM      7  C   UNL     1       2.225   9.019  17.885  0.00  0.00    +0.000 A 
ATOM      8  N   UNL     1       2.562   7.860  18.473  0.00  0.00    +0.000 NA
ATOM      9  C   UNL     1       1.993   7.555  19.649  0.00  0.00    +0.000 A 
ATOM     10  N   UNL     1       2.287   6.329  20.261  0.00  0.00    +0.000 N 
ATOM     11  C   UNL     1       3.147   5.378  19.753  0.00  0.00    +0.000 C 
ATOM     12  O   UNL     1       3.819   5.439  18.734  0.00  0.00    +0.000 OA
ATOM     13  C   UNL     1       1.093   8.415  20.280  0.00  0.00    +0.000 A 
ATOM     14  H   UNL     1       1.800   6.105  21.118  0.00  0.00    +0.000 HD
BRANCH  11  15
ATOM     15  C   UNL     1       3.277   4.134  20.564  0.00  0.00    +0.000 C 
ATOM     16  C   UNL     1       2.077   3.233  20.771  0.00  0.00    +0.000 C 
ATOM     17  C   UNL     1       3.259   2.750  19.992  0.00  0.00    +0.000 C 
ATOM     18  F   UNL     1       3.086   2.596  18.628  0.00  0.00    +0.000 F 
ENDBRANCH  11  15
ENDBRANCH   3   5
BRANCH   1  23
ATOM     19  C   UNL     1      -3.278  13.585  22.848  0.00  0.00    +0.000 A 
ATOM     20  C   UNL     1      -2.832  12.402  23.435  0.00  0.00    +0.000 A 
ATOM     21  C   UNL     1      -1.722  11.741  22.907  0.00  0.00    +0.000 A 
ATOM     22  F   UNL     1      -1.341  10.602  23.507  0.00  0.00    +0.000 F 
ATOM     23  C   UNL     1      -1.029  12.229  21.794  0.00  0.00    +0.000 A 
ATOM     24  C   UNL     1      -1.480  13.431  21.217  0.00  0.00    +0.000 A 
ATOM     25 CL   UNL     1      -0.707  14.223  19.885  0.00  0.00    +0.000 Cl
ATOM     26  C   UNL     1      -2.600  14.099  21.742  0.00  0.00    +0.000 A 
BRANCH  19  28
ATOM     27  N   UNL     1      -5.338  14.832  23.809  0.00  0.00    +0.000 NA
ATOM     28  C   UNL     1      -4.419  14.271  23.379  0.00  0.00    +0.000 C 
ENDBRANCH  19  28
ENDBRANCH   1  23
TORSDOF 4
ENDMDL
MODEL 3
REMARK VINA RESULT:      -7.5      2.782      3.593
REMARK  Name = 
REMARK  4 active torsions:
REMARK  status: ('A' for Active; 'I' for Inactive)
REMARK    1  A    between atoms: C_2  and  C_3
REMARK    2  A    between atoms: C_7  and  C_8
REMARK    3  A    between atoms: N_10  and  C_11
REMARK    4  A    between atoms: C_17  and  C_19
REMARK                            x       y       z     vdW  Elec       q    Type
REMARK                         _______ _______ _______ _____ _____    ______ ____
ROOT
ATOM      1  C   UNL     1       0.554  10.597  21.394  0.00  0.00    +0.000 C 
ATOM      2  O   UNL     1       1.485  10.321  22.142  0.00  0.00    +0.000 OA
ATOM      3  N   UNL     1       0.407  10.089  20.106  0.00  0.00    +0.000 N 
ATOM      4  H   UNL     1      -0.263  10.540  19.492  0.00  0.00    +0.000 HD
ENDROOT
BRANCH   3   5
ATOM      5  C   UNL     1       1.247   9.109  19.516  0.00  0.00    +0.000 A 
ATOM      6  C   UNL     1       1.925   9.329  18.321  0.00  0.00    +0.000 A 
ATOM      7  C   UNL     1       2.708   8.315  17.811  0.00  0.00    +0.000 A 
ATOM      8  N   UNL     1       2.858   7.121  18.405  0.00  0.00    +0.000 NA
ATOM      9  C   UNL     1       2.207   6.899  19.557  0.00  0.00    +0.000 A 
ATOM     10  N   UNL     1       2.304   5.644  20.174  0.00  0.00    +0.000 N 
ATOM     11  C   UNL     1       3.044   4.584  19.694  0.00  0.00    +0.000 C 
ATOM     12  O   UNL     1       3.757   4.550  18.703  0.00  0.00    +0.000 OA
ATOM     13  C   UNL     1       1.410   7.876  20.157  0.00  0.00    +0.000 A 
ATOM     14  H   UNL     1       1.757   5.491  21.010  0.00  0.00    +0.000 HD
BRANCH  11  15
ATOM     15  C   UNL     1       2.968   3.333  20.504  0.00  0.00    +0.000 C 
ATOM     16  C   UNL     1       2.174   3.310  21.793  0.00  0.00    +0.000 C 
ATOM     17  C   UNL     1       1.742   2.483  20.626  0.00  0.00    +0.000 C 
ATOM     18  F   UNL     1       0.588   2.880  19.973  0.00  0.00    +0.000 F 
ENDBRANCH  11  15
ENDBRANCH   3   5
BRANCH   1  23
ATOM     19  C   UNL     1      -2.477  13.389  22.690  0.00  0.00    +0.000 A 
ATOM     20  C   UNL     1      -2.377  12.125  23.269  0.00  0.00    +0.000 A 
ATOM     21  C   UNL     1      -1.373  11.249  22.854  0.00  0.00    +0.000 A 
ATOM     22  F   UNL     1      -1.330  10.041  23.440  0.00  0.00    +0.000 F 
ATOM     23  C   UNL     1      -0.449  11.597  21.864  0.00  0.00    +0.000 A 
ATOM     24  C   UNL     1      -0.550  12.881  21.296  0.00  0.00    +0.000 A 
ATOM     25 CL   UNL     1       0.548  13.513  20.115  0.00  0.00    +0.000 Cl
ATOM     26  C   UNL     1      -1.561  13.766  21.707  0.00  0.00    +0.000 A 
BRANCH  19  28
ATOM     27  N   UNL     1      -4.335  15.035  23.437  0.00  0.00    +0.000 NA
ATOM     28  C   UNL     1      -3.506  14.297  23.106  0.00  0.00    +0.000 C 
ENDBRANCH  19  28
ENDBRANCH   1  23
TORSDOF 4
ENDMDL
MODEL 4
REMARK VINA RESULT:      -7.4      3.011      3.891
REMARK  Name = 
REMARK  4 active torsions:
REMARK  status: ('A' for Active; 'I' for Inactive)
REMARK    1  A    between atoms: C_2  and  C_3
REMARK    2  A    between atoms: C_7  and  C_8
REMARK    3  A    between atoms: N_10  and  C_11
REMARK    4  A    between atoms: C_17  and  C_19
REMARK                            x       y       z     vdW  Elec       q    Type
REMARK                         _______ _______ _______ _____ _____    ______ ____
ROOT
ATOM      1  C   UNL     1      -0.551  10.763  20.055  0.00  0.00    +0.000 C 
ATOM      2  O   UNL     1      -1.330  10.197  19.297  0.00  0.00    +0.000 OA
ATOM      3  N   UNL     1       0.752  10.338  20.301  0.00  0.00    +0.000 N 
ATOM      4  H   UNL     1       1.237  10.734  21.100  0.00  0.00    +0.000 HD
ENDROOT
BRANCH   3   5
ATOM      5  C   UNL     1       1.396   9.262  19.638  0.00  0.00    +0.000 A 
ATOM      6  C   UNL     1       1.869   9.366  18.333  0.00  0.00    +0.000 A 
ATOM      7  C   UNL     1       2.468   8.265  17.759  0.00  0.00    +0.000 A 
ATOM      8  N   UNL     1       2.628   7.092  18.392  0.00  0.00    +0.000 NA
ATOM      9  C   UNL     1       2.174   6.981  19.649  0.00  0.00    +0.000 A 
ATOM     10  N   UNL     1       2.281   5.753  20.316  0.00  0.00    +0.000 N 
ATOM     11  C   UNL     1       2.840   4.611  19.784  0.00  0.00    +0.000 C 
ATOM     12  O   UNL     1       3.362   4.468  18.689  0.00  0.00    +0.000 OA
ATOM     13  C   UNL     1       1.574   8.051  20.316  0.00  0.00    +0.000 A 
ATOM     14  H   UNL     1       1.879   5.687  21.242  0.00  0.00    +0.000 HD
BRANCH  11  15
ATOM     15  C   UNL     1       2.811   3.412  20.670  0.00  0.00    +0.000 C 
ATOM     16  C   UNL     1       1.553   3.065  21.439  0.00  0.00    +0.000 C 
ATOM     17  C   UNL     1       2.055   2.156  20.363  0.00  0.00    +0.000 C 
ATOM     18  F   UNL     1       1.308   2.096  19.199  0.00  0.00    +0.000 F 
ENDBRANCH  11  15
ENDBRANCH   3   5
BRANCH   1  23
ATOM     19  C   UNL     1      -1.855  14.256  22.238  0.00  0.00    +0.000 A 
ATOM     20  C   UNL     1      -1.697  14.298  20.853  0.00  0.00    +0.000 A 
ATOM     21  C   UNL     1      -1.301  13.150  20.165  0.00  0.00    +0.000 A 
ATOM     22  F   UNL     1      -1.157  13.250  18.833  0.00  0.00    +0.000 F 
ATOM     23  C   UNL     1      -1.053  11.941  20.822  0.00  0.00    +0.000 A 
ATOM     24  C   UNL     1      -1.229  11.906  22.218  0.00  0.00    +0.000 A 
ATOM     25 CL   UNL     1      -1.042  10.485  23.189  0.00  0.00    +0.000 Cl
ATOM     26  C   UNL     1      -1.623  13.060  22.917  0.00  0.00    +0.000 A 
BRANCH  19  28
ATOM     27  N   UNL     1      -2.581  16.383  23.531  0.00  0.00    +0.000 NA
ATOM     28  C   UNL     1      -2.258  15.430  22.955  0.00  0.00    +0.000 C 
ENDBRANCH  19  28
ENDBRANCH   1  23
TORSDOF 4
ENDMDL
MODEL 5
REMARK VINA RESULT:      -7.4      2.759      3.594
REMARK  Name = 
REMARK  4 active torsions:
REMARK  status: ('A' for Active; 'I' for Inactive)
REMARK    1  A    between atoms: C_2  and  C_3
REMARK    2  A    between atoms: C_7  and  C_8
REMARK    3  A    between atoms: N_10  and  C_11
REMARK    4  A    between atoms: C_17  and  C_19
REMARK                            x       y       z     vdW  Elec       q    Type
REMARK                         _______ _______ _______ _____ _____    ______ ____
ROOT
ATOM      1  C   UNL     1      -0.470  10.736  20.152  0.00  0.00    +0.000 C 
ATOM      2  O   UNL     1      -1.266  10.210  19.382  0.00  0.00    +0.000 OA
ATOM      3  N   UNL     1       0.831  10.285  20.363  0.00  0.00    +0.000 N 
ATOM      4  H   UNL     1       1.331  10.641  21.171  0.00  0.00    +0.000 HD
ENDROOT
BRANCH   3   5
ATOM      5  C   UNL     1       1.452   9.228  19.649  0.00  0.00    +0.000 A 
ATOM      6  C   UNL     1       1.883   9.370  18.333  0.00  0.00    +0.000 A 
ATOM      7  C   UNL     1       2.463   8.286  17.709  0.00  0.00    +0.000 A 
ATOM      8  N   UNL     1       2.641   7.094  18.302  0.00  0.00    +0.000 NA
ATOM      9  C   UNL     1       2.226   6.948  19.569  0.00  0.00    +0.000 A 
ATOM     10  N   UNL     1       2.352   5.700  20.196  0.00  0.00    +0.000 N 
ATOM     11  C   UNL     1       2.893   4.574  19.613  0.00  0.00    +0.000 C 
ATOM     12  O   UNL     1       3.380   4.463  18.498  0.00  0.00    +0.000 OA
ATOM     13  C   UNL     1       1.649   7.997  20.285  0.00  0.00    +0.000 A 
ATOM     14  H   UNL     1       1.980   5.608  21.132  0.00  0.00    +0.000 HD
BRANCH  11  15
ATOM     15  C   UNL     1       2.890   3.349  20.464  0.00  0.00    +0.000 C 
ATOM     16  C   UNL     1       2.137   3.338  21.777  0.00  0.00    +0.000 C 
ATOM     17  C   UNL     1       1.702   2.457  20.651  0.00  0.00    +0.000 C 
ATOM     18  F   UNL     1       0.514   2.788  20.023  0.00  0.00    +0.000 F 
ENDBRANCH  11  15
ENDBRANCH   3   5
BRANCH   1  23
ATOM     19  C   UNL     1      -2.010  13.994  22.535  0.00  0.00    +0.000 A 
ATOM     20  C   UNL     1      -1.865  12.718  23.079  0.00  0.00    +0.000 A 
ATOM     21  C   UNL     1      -1.341  11.686  22.299  0.00  0.00    +0.000 A 
ATOM     22  F   UNL     1      -1.232  10.476  22.872  0.00  0.00    +0.000 F 
ATOM     23  C   UNL     1      -0.947  11.887  20.972  0.00  0.00    +0.000 A 
ATOM     24  C   UNL     1      -1.084  13.182  20.437  0.00  0.00    +0.000 A 
ATOM     25 CL   UNL     1      -0.583  13.636  18.843  0.00  0.00    +0.000 Cl
ATOM     26  C   UNL     1      -1.616  14.224  21.216  0.00  0.00    +0.000 A 
BRANCH  19  28
ATOM     27  N   UNL     1      -2.983  15.922  23.969  0.00  0.00    +0.000 NA
ATOM     28  C   UNL     1      -2.551  15.060  23.325  0.00  0.00    +0.000 C 
ENDBRANCH  19  28
ENDBRANCH   1  23
TORSDOF 4
ENDMDL
MODEL 6
REMARK VINA RESULT:      -7.4      1.115      1.121
REMARK  Name = 
REMARK  4 active torsions:
REMARK  status: ('A' for Active; 'I' for Inactive)
REMARK    1  A    between atoms: C_2  and  C_3
REMARK    2  A    between atoms: C_7  and  C_8
REMARK    3  A    between atoms: N_10  and  C_11
REMARK    4  A    between atoms: C_17  and  C_19
REMARK                            x       y       z     vdW  Elec       q    Type
REMARK                         _______ _______ _______ _____ _____    ______ ____
ROOT
ATOM      1  C   UNL     1       1.086   9.270  21.594  0.00  0.00    +0.000 C 
ATOM      2  O   UNL     1       2.008   9.175  22.395  0.00  0.00    +0.000 OA
ATOM      3  N   UNL     1       0.863   8.381  20.546  0.00  0.00    +0.000 N 
ATOM      4  H   UNL     1       0.218   8.662  19.814  0.00  0.00    +0.000 HD
ENDROOT
BRANCH   3   5
ATOM      5  C   UNL     1       1.600   7.191  20.317  0.00  0.00    +0.000 A 
ATOM      6  C   UNL     1       1.453   6.057  21.111  0.00  0.00    +0.000 A 
ATOM      7  C   UNL     1       2.222   4.949  20.826  0.00  0.00    +0.000 A 
ATOM      8  N   UNL     1       3.108   4.897  19.819  0.00  0.00    +0.000 NA
ATOM      9  C   UNL     1       3.258   5.985  19.050  0.00  0.00    +0.000 A 
ATOM     10  N   UNL     1       4.212   5.978  18.023  0.00  0.00    +0.000 N 
ATOM     11  C   UNL     1       5.031   4.913  17.713  0.00  0.00    +0.000 C 
ATOM     12  O   UNL     1       5.053   3.805  18.227  0.00  0.00    +0.000 OA
ATOM     13  C   UNL     1       2.506   7.144  19.251  0.00  0.00    +0.000 A 
ATOM     14  H   UNL     1       4.340   6.832  17.497  0.00  0.00    +0.000 HD
BRANCH  11  15
ATOM     15  C   UNL     1       5.994   5.149  16.599  0.00  0.00    +0.000 C 
ATOM     16  C   UNL     1       7.014   6.264  16.701  0.00  0.00    +0.000 C 
ATOM     17  C   UNL     1       7.457   4.837  16.671  0.00  0.00    +0.000 C 
ATOM     18  F   UNL     1       7.971   4.318  17.847  0.00  0.00    +0.000 F 
ENDBRANCH  11  15
ENDBRANCH   3   5
BRANCH   1  23
ATOM     19  C   UNL     1      -1.661  12.591  21.899  0.00  0.00    +0.000 A 
ATOM     20  C   UNL     1      -1.572  11.643  22.917  0.00  0.00    +0.000 A 
ATOM     21  C   UNL     1      -0.658  10.593  22.810  0.00  0.00    +0.000 A 
ATOM     22  F   UNL     1      -0.621   9.705  23.817  0.00  0.00    +0.000 F 
ATOM     23  C   UNL     1       0.185  10.454  21.703  0.00  0.00    +0.000 A 
ATOM     24  C   UNL     1       0.096  11.424  20.687  0.00  0.00    +0.000 A 
ATOM     25 CL   UNL     1       1.108  11.459  19.282  0.00  0.00    +0.000 Cl
ATOM     26  C   UNL     1      -0.824  12.481  20.787  0.00  0.00    +0.000 A 
BRANCH  19  28
ATOM     27  N   UNL     1      -3.350  14.550  22.076  0.00  0.00    +0.000 NA
ATOM     28  C   UNL     1      -2.597  13.671  21.996  0.00  0.00    +0.000 C 
ENDBRANCH  19  28
ENDBRANCH   1  23
TORSDOF 4
ENDMDL
MODEL 7
REMARK VINA RESULT:      -7.3      1.369      1.414
REMARK  Name = 
REMARK  4 active torsions:
REMARK  status: ('A' for Active; 'I' for Inactive)
REMARK    1  A    between atoms: C_2  and  C_3
REMARK    2  A    between atoms: C_7  and  C_8
REMARK    3  A    between atoms: N_10  and  C_11
REMARK    4  A    between atoms: C_17  and  C_19
REMARK                            x       y       z     vdW  Elec       q    Type
REMARK                         _______ _______ _______ _____ _____    ______ ____
ROOT
ATOM      1  C   UNL     1       1.020   9.607  21.561  0.00  0.00    +0.000 C 
ATOM      2  O   UNL     1       1.886   9.395  22.402  0.00  0.00    +0.000 OA
ATOM      3  N   UNL     1       0.851   8.853  20.402  0.00  0.00    +0.000 N 
ATOM      4  H   UNL     1       0.262   9.234  19.670  0.00  0.00    +0.000 HD
ENDROOT
BRANCH   3   5
ATOM      5  C   UNL     1       1.579   7.678  20.082  0.00  0.00    +0.000 A 
ATOM      6  C   UNL     1       1.458   6.502  20.816  0.00  0.00    +0.000 A 
ATOM      7  C   UNL     1       2.216   5.412  20.445  0.00  0.00    +0.000 A 
ATOM      8  N   UNL     1       3.067   5.418  19.407  0.00  0.00    +0.000 NA
ATOM      9  C   UNL     1       3.192   6.547  18.694  0.00  0.00    +0.000 A 
ATOM     10  N   UNL     1       4.111   6.598  17.636  0.00  0.00    +0.000 N 
ATOM     11  C   UNL     1       4.918   5.553  17.240  0.00  0.00    +0.000 C 
ATOM     12  O   UNL     1       4.956   4.418  17.691  0.00  0.00    +0.000 OA
ATOM     13  C   UNL     1       2.448   7.692  18.985  0.00  0.00    +0.000 A 
ATOM     14  H   UNL     1       4.221   7.480  17.155  0.00  0.00    +0.000 HD
BRANCH  11  15
ATOM     15  C   UNL     1       5.843   5.853  16.109  0.00  0.00    +0.000 C 
ATOM     16  C   UNL     1       6.997   4.921  15.804  0.00  0.00    +0.000 C 
ATOM     17  C   UNL     1       5.879   5.083  14.825  0.00  0.00    +0.000 C 
ATOM     18  F   UNL     1       5.024   4.006  14.669  0.00  0.00    +0.000 F 
ENDBRANCH  11  15
ENDBRANCH   3   5
BRANCH   1  23
ATOM     19  C   UNL     1      -1.675  12.947  22.058  0.00  0.00    +0.000 A 
ATOM     20  C   UNL     1      -1.769  11.825  22.880  0.00  0.00    +0.000 A 
ATOM     21  C   UNL     1      -0.871  10.769  22.719  0.00  0.00    +0.000 A 
ATOM     22  F   UNL     1      -1.015   9.710  23.533  0.00  0.00    +0.000 F 
ATOM     23  C   UNL     1       0.137  10.795  21.751  0.00  0.00    +0.000 A 
ATOM     24  C   UNL     1       0.233  11.938  20.935  0.00  0.00    +0.000 A 
ATOM     25 CL   UNL     1       1.458  12.180  19.736  0.00  0.00    +0.000 Cl
ATOM     26  C   UNL     1      -0.672  13.003  21.089  0.00  0.00    +0.000 A 
BRANCH  19  28
ATOM     27  N   UNL     1      -3.341  14.913  22.338  0.00  0.00    +0.000 NA
ATOM     28  C   UNL     1      -2.593  14.036  22.211  0.00  0.00    +0.000 C 
ENDBRANCH  19  28
ENDBRANCH   1  23
TORSDOF 4
ENDMDL
MODEL 8
REMARK VINA RESULT:      -7.3      1.206      1.244
REMARK  Name = 
REMARK  4 active torsions:
REMARK  status: ('A' for Active; 'I' for Inactive)
REMARK    1  A    between atoms: C_2  and  C_3
REMARK    2  A    between atoms: C_7  and  C_8
REMARK    3  A    between atoms: N_10  and  C_11
REMARK    4  A    between atoms: C_17  and  C_19
REMARK                            x       y       z     vdW  Elec       q    Type
REMARK                         _______ _______ _______ _____ _____    ______ ____
ROOT
ATOM      1  C   UNL     1       0.656   9.246  20.318  0.00  0.00    +0.000 C 
ATOM      2  O   UNL     1       0.322   9.202  19.140  0.00  0.00    +0.000 OA
ATOM      3  N   UNL     1       1.343   8.229  20.977  0.00  0.00    +0.000 N 
ATOM      4  H   UNL     1       1.378   8.260  21.990  0.00  0.00    +0.000 HD
ENDROOT
BRANCH   3   5
ATOM      5  C   UNL     1       1.843   7.053  20.361  0.00  0.00    +0.000 A 
ATOM      6  C   UNL     1       1.473   5.778  20.777  0.00  0.00    +0.000 A 
ATOM      7  C   UNL     1       2.021   4.689  20.132  0.00  0.00    +0.000 A 
ATOM      8  N   UNL     1       2.893   4.788  19.117  0.00  0.00    +0.000 NA
ATOM      9  C   UNL     1       3.258   6.013  18.710  0.00  0.00    +0.000 A 
ATOM     10  N   UNL     1       4.206   6.147  17.686  0.00  0.00    +0.000 N 
ATOM     11  C   UNL     1       4.811   5.098  17.028  0.00  0.00    +0.000 C 
ATOM     12  O   UNL     1       4.615   3.901  17.178  0.00  0.00    +0.000 OA
ATOM     13  C   UNL     1       2.737   7.171  19.291  0.00  0.00    +0.000 A 
ATOM     14  H   UNL     1       4.500   7.083  17.441  0.00  0.00    +0.000 HD
BRANCH  11  15
ATOM     15  C   UNL     1       5.816   5.484  15.996  0.00  0.00    +0.000 C 
ATOM     16  C   UNL     1       6.989   6.366  16.370  0.00  0.00    +0.000 C 
ATOM     17  C   UNL     1       7.214   4.952  15.942  0.00  0.00    +0.000 C 
ATOM     18  F   UNL     1       7.627   4.062  16.919  0.00  0.00    +0.000 F 
ENDBRANCH  11  15
ENDBRANCH   3   5
BRANCH   1  23
ATOM     19  C   UNL     1      -0.726  12.649  22.593  0.00  0.00    +0.000 A 
ATOM     20  C   UNL     1      -1.058  11.351  22.978  0.00  0.00    +0.000 A 
ATOM     21  C   UNL     1      -0.578  10.265  22.244  0.00  0.00    +0.000 A 
ATOM     22  F   UNL     1      -0.936   9.037  22.656  0.00  0.00    +0.000 F 
ATOM     23  C   UNL     1       0.236  10.432  21.120  0.00  0.00    +0.000 A 
ATOM     24  C   UNL     1       0.576  11.747  20.748  0.00  0.00    +0.000 A 
ATOM     25 CL   UNL     1       1.631  12.145  19.434  0.00  0.00    +0.000 Cl
ATOM     26  C   UNL     1       0.093  12.844  21.480  0.00  0.00    +0.000 A 
BRANCH  19  28
ATOM     27  N   UNL     1      -1.605  14.681  23.942  0.00  0.00    +0.000 NA
ATOM     28  C   UNL     1      -1.216  13.772  23.337  0.00  0.00    +0.000 C 
ENDBRANCH  19  28
ENDBRANCH   1  23
TORSDOF 4
ENDMDL
MODEL 9
REMARK VINA RESULT:      -7.3      1.344      1.428
REMARK  Name = 
REMARK  4 active torsions:
REMARK  status: ('A' for Active; 'I' for Inactive)
REMARK    1  A    between atoms: C_2  and  C_3
REMARK    2  A    between atoms: C_7  and  C_8
REMARK    3  A    between atoms: N_10  and  C_11
REMARK    4  A    between atoms: C_17  and  C_19
REMARK                            x       y       z     vdW  Elec       q    Type
REMARK                         _______ _______ _______ _____ _____    ______ ____
ROOT
ATOM      1  C   UNL     1       1.080   9.168  21.450  0.00  0.00    +0.000 C 
ATOM      2  O   UNL     1       1.843   9.055  22.402  0.00  0.00    +0.000 OA
ATOM      3  N   UNL     1       1.017   8.272  20.385  0.00  0.00    +0.000 N 
ATOM      4  H   UNL     1       0.520   8.563  19.550  0.00  0.00    +0.000 HD
ENDROOT
BRANCH   3   5
ATOM      5  C   UNL     1       1.744   7.057  20.299  0.00  0.00    +0.000 A 
ATOM      6  C   UNL     1       1.371   5.913  20.998  0.00  0.00    +0.000 A 
ATOM      7  C   UNL     1       2.145   4.780  20.869  0.00  0.00    +0.000 A 
ATOM      8  N   UNL     1       3.243   4.713  20.100  0.00  0.00    +0.000 NA
ATOM      9  C   UNL     1       3.612   5.812  19.424  0.00  0.00    +0.000 A 
ATOM     10  N   UNL     1       4.783   5.787  18.654  0.00  0.00    +0.000 N 
ATOM     11  C   UNL     1       5.613   4.695  18.513  0.00  0.00    +0.000 C 
ATOM     12  O   UNL     1       5.471   3.576  18.981  0.00  0.00    +0.000 OA
ATOM     13  C   UNL     1       2.876   6.996  19.479  0.00  0.00    +0.000 A 
ATOM     14  H   UNL     1       5.063   6.647  18.202  0.00  0.00    +0.000 HD
BRANCH  11  15
ATOM     15  C   UNL     1       6.823   4.916  17.669  0.00  0.00    +0.000 C 
ATOM     16  C   UNL     1       6.863   4.396  16.248  0.00  0.00    +0.000 C 
ATOM     17  C   UNL     1       6.880   5.867  16.514  0.00  0.00    +0.000 C 
ATOM     18  F   UNL     1       5.740   6.576  16.176  0.00  0.00    +0.000 F 
ENDBRANCH  11  15
ENDBRANCH   3   5
BRANCH   1  23
ATOM     19  C   UNL     1      -1.572  12.573  21.266  0.00  0.00    +0.000 A 
ATOM     20  C   UNL     1      -1.563  11.735  22.380  0.00  0.00    +0.000 A 
ATOM     21  C   UNL     1      -0.680  10.656  22.430  0.00  0.00    +0.000 A 
ATOM     22  F   UNL     1      -0.720   9.877  23.524  0.00  0.00    +0.000 F 
ATOM     23  C   UNL     1       0.213  10.380  21.389  0.00  0.00    +0.000 A 
ATOM     24  C   UNL     1       0.205  11.241  20.275  0.00  0.00    +0.000 A 
ATOM     25 CL   UNL     1       1.285  11.102  18.929  0.00  0.00    +0.000 Cl
ATOM     26  C   UNL     1      -0.686  12.326  20.217  0.00  0.00    +0.000 A 
BRANCH  19  28
ATOM     27  N   UNL     1      -3.215  14.575  21.148  0.00  0.00    +0.000 NA
ATOM     28  C   UNL     1      -2.478  13.682  21.202  0.00  0.00    +0.000 C 
ENDBRANCH  19  28
ENDBRANCH   1  23
TORSDOF 4
ENDMDL
