MODEL 1
REMARK VINA RESULT:      -7.3      0.000      0.000
REMARK  Name = 
REMARK  6 active torsions:
REMARK  status: ('A' for Active; 'I' for Inactive)
REMARK    1  A    between atoms: C_1  and  O_2
REMARK    2  A    between atoms: O_2  and  C_3
REMARK    3  A    between atoms: C_6  and  S_7
REMARK    4  A    between atoms: S_7  and  N_10
REMARK    5  A    between atoms: N_13  and  C_14
REMARK    6  A    between atoms: C_14  and  C_15
REMARK                            x       y       z     vdW  Elec       q    Type
REMARK                         _______ _______ _______ _____ _____    ______ ____
ROOT
ATOM      1  N   UNL     1       5.744   5.682  17.775  0.00  0.00    +0.000 NA
ATOM      2  C   UNL     1       4.923   6.893  17.733  0.00  0.00    +0.000 C 
ATOM      3  C   UNL     1       3.445   6.544  17.443  0.00  0.00    +0.000 C 
ATOM      4  N   UNL     1       2.870   5.413  18.214  0.00  0.00    +0.000 NA
ATOM      5  C   UNL     1       3.796   4.260  18.120  0.00  0.00    +0.000 C 
ATOM      6  C   UNL     1       5.232   4.572  18.577  0.00  0.00    +0.000 C 
ENDROOT
BRANCH   1   7
ATOM      7  S   UNL     1       7.206   5.530  16.937  0.00  0.00    +0.000 S 
ATOM      8  O   UNL     1       8.004   4.549  17.621  0.00  0.00    +0.000 OA
ATOM      9  O   UNL     1       7.718   6.848  16.588  0.00  0.00    +0.000 OA
BRANCH   7  13
ATOM     10  C   UNL     1       6.025   3.698  12.799  0.00  0.00    +0.000 A 
ATOM     11  C   UNL     1       5.527   3.270  14.042  0.00  0.00    +0.000 A 
ATOM     12  C   UNL     1       5.804   3.882  15.277  0.00  0.00    +0.000 A 
ATOM     13  C   UNL     1       6.799   4.771  15.342  0.00  0.00    +0.000 A 
ATOM     14  C   UNL     1       7.495   5.091  14.152  0.00  0.00    +0.000 A 
ATOM     15  C   UNL     1       7.037   4.627  12.869  0.00  0.00    +0.000 A 
BRANCH  10  17
ATOM     16  C   UNL     1       4.189   3.168  11.193  0.00  0.00    +0.000 C 
ATOM     17  O   UNL     1       5.528   3.035  11.715  0.00  0.00    +0.000 OA
ENDBRANCH  10  17
ENDBRANCH   7  13
ENDBRANCH   1   7
BRANCH   4  18
ATOM     18  C   UNL     1       2.601   5.755  19.627  0.00  0.00    +0.000 C 
BRANCH  18  19
ATOM     19  C   UNL     1       2.054   4.599  20.389  0.00  0.00    +0.000 A 
ATOM     20  C   UNL     1       2.420   3.971  21.562  0.00  0.00    +0.000 A 
ATOM     21  C   UNL     1       1.601   2.821  21.666  0.00  0.00    +0.000 A 
ATOM     22  C   UNL     1       0.743   2.861  20.592  0.00  0.00    +0.000 A 
ATOM     23  O   UNL     1       1.009   3.939  19.811  0.00  0.00    +0.000 OA
ENDBRANCH  18  19
ENDBRANCH   4  18
TORSDOF 5
ENDMDL
MODEL 2
REMARK VINA RESULT:      -7.0      1.031      1.460
REMARK  Name = 
REMARK  6 active torsions:
REMARK  status: ('A' for Active; 'I' for Inactive)
REMARK    1  A    between atoms: C_1  and  O_2
REMARK    2  A    between atoms: O_2  and  C_3
REMARK    3  A    between atoms: C_6  and  S_7
REMARK    4  A    between atoms: S_7  and  N_10
REMARK    5  A    between atoms: N_13  and  C_14
REMARK    6  A    between atoms: C_14  and  C_15
REMARK                            x       y       z     vdW  Elec       q    Type
REMARK                         _______ _______ _______ _____ _____    ______ ____
ROOT
ATOM      1  N   UNL     1       5.514   5.417  17.304  0.00  0.00    +0.000 NA
ATOM      2  C   UNL     1       5.125   4.515  18.389  0.00  0.00    +0.000 C 
ATOM      3  C   UNL     1       4.367   5.285  19.496  0.00  0.00    +0.000 C 
ATOM      4  N   UNL     1       3.313   6.226  19.042  0.00  0.00    +0.000 NA
ATOM      5  C   UNL     1       3.878   7.090  17.981  0.00  0.00    +0.000 C 
ATOM      6  C   UNL     1       4.478   6.314  16.795  0.00  0.00    +0.000 C 
ENDROOT
BRANCH   1   7
ATOM      7  S   UNL     1       7.077   5.460  16.658  0.00  0.00    +0.000 S 
ATOM      8  O   UNL     1       7.888   4.540  17.410  0.00  0.00    +0.000 OA
ATOM      9  O   UNL     1       7.478   6.840  16.418  0.00  0.00    +0.000 OA
BRANCH   7  13
ATOM     10  C   UNL     1       6.634   3.696  12.349  0.00  0.00    +0.000 A 
ATOM     11  C   UNL     1       6.052   3.151  13.507  0.00  0.00    +0.000 A 
ATOM     12  C   UNL     1       6.102   3.733  14.786  0.00  0.00    +0.000 A 
ATOM     13  C   UNL     1       6.961   4.734  15.001  0.00  0.00    +0.000 A 
ATOM     14  C   UNL     1       7.744   5.193  13.916  0.00  0.00    +0.000 A 
ATOM     15  C   UNL     1       7.503   4.738  12.572  0.00  0.00    +0.000 A 
BRANCH  10  17
ATOM     16  C   UNL     1       6.326   1.595  11.038  0.00  0.00    +0.000 C 
ATOM     17  O   UNL     1       6.357   3.029  11.191  0.00  0.00    +0.000 OA
ENDBRANCH  10  17
ENDBRANCH   7  13
ENDBRANCH   1   7
BRANCH   4  18
ATOM     18  C   UNL     1       2.093   5.540  18.565  0.00  0.00    +0.000 C 
BRANCH  18  19
ATOM     19  C   UNL     1       1.722   4.388  19.432  0.00  0.00    +0.000 A 
ATOM     20  C   UNL     1       1.253   4.279  20.724  0.00  0.00    +0.000 A 
ATOM     21  C   UNL     1       1.258   2.897  21.031  0.00  0.00    +0.000 A 
ATOM     22  C   UNL     1       1.660   2.249  19.886  0.00  0.00    +0.000 A 
ATOM     23  O   UNL     1       1.942   3.147  18.907  0.00  0.00    +0.000 OA
ENDBRANCH  18  19
ENDBRANCH   4  18
TORSDOF 5
ENDMDL
MODEL 3
REMARK VINA RESULT:      -7.0      2.758      7.491
REMARK  Name = 
REMARK  6 active torsions:
REMARK  status: ('A' for Active; 'I' for Inactive)
REMARK    1  A    between atoms: C_1  and  O_2
REMARK    2  A    between atoms: O_2  and  C_3
REMARK    3  A    between atoms: C_6  and  S_7
REMARK    4  A    between atoms: S_7  and  N_10
REMARK    5  A    between atoms: N_13  and  C_14
REMARK    6  A    between atoms: C_14  and  C_15
REMARK                            x       y       z     vdW  Elec       q    Type
REMARK                         _______ _______ _______ _____ _____    ______ ____
ROOT
ATOM      1  N   UNL     1       3.954   4.823  18.576  0.00  0.00    +0.000 NA
ATOM      2  C   UNL     1       3.967   5.051  17.130  0.00  0.00    +0.000 C 
ATOM      3  C   UNL     1       5.092   6.039  16.741  0.00  0.00    +0.000 C 
ATOM      4  N   UNL     1       6.420   5.806  17.361  0.00  0.00    +0.000 NA
ATOM      5  C   UNL     1       6.236   5.640  18.821  0.00  0.00    +0.000 C 
ATOM      6  C   UNL     1       5.241   4.530  19.204  0.00  0.00    +0.000 C 
ENDROOT
BRANCH   1   7
ATOM      7  S   UNL     1       2.544   4.905  19.508  0.00  0.00    +0.000 S 
ATOM      8  O   UNL     1       2.888   4.541  20.856  0.00  0.00    +0.000 OA
ATOM      9  O   UNL     1       1.437   4.289  18.790  0.00  0.00    +0.000 OA
BRANCH   7  13
ATOM     10  C   UNL     1       1.225   9.390  19.677  0.00  0.00    +0.000 A 
ATOM     11  C   UNL     1       1.881   8.782  18.592  0.00  0.00    +0.000 A 
ATOM     12  C   UNL     1       2.190   7.413  18.498  0.00  0.00    +0.000 A 
ATOM     13  C   UNL     1       2.097   6.660  19.597  0.00  0.00    +0.000 A 
ATOM     14  C   UNL     1       1.645   7.266  20.793  0.00  0.00    +0.000 A 
ATOM     15  C   UNL     1       1.115   8.604  20.800  0.00  0.00    +0.000 A 
BRANCH  10  17
ATOM     16  C   UNL     1       1.624  11.630  18.651  0.00  0.00    +0.000 C 
ATOM     17  O   UNL     1       0.914  10.707  19.504  0.00  0.00    +0.000 OA
ENDBRANCH  10  17
ENDBRANCH   7  13
ENDBRANCH   1   7
BRANCH   4  18
ATOM     18  C   UNL     1       7.128   4.641  16.786  0.00  0.00    +0.000 C 
BRANCH  18  19
ATOM     19  C   UNL     1       6.945   4.546  15.312  0.00  0.00    +0.000 A 
ATOM     20  C   UNL     1       6.195   3.725  14.496  0.00  0.00    +0.000 A 
ATOM     21  C   UNL     1       6.587   4.023  13.169  0.00  0.00    +0.000 A 
ATOM     22  C   UNL     1       7.495   5.053  13.257  0.00  0.00    +0.000 A 
ATOM     23  O   UNL     1       7.718   5.379  14.556  0.00  0.00    +0.000 OA
ENDBRANCH  18  19
ENDBRANCH   4  18
TORSDOF 5
ENDMDL
MODEL 4
REMARK VINA RESULT:      -6.9      2.553      7.615
REMARK  Name = 
REMARK  6 active torsions:
REMARK  status: ('A' for Active; 'I' for Inactive)
REMARK    1  A    between atoms: C_1  and  O_2
REMARK    2  A    between atoms: O_2  and  C_3
REMARK    3  A    between atoms: C_6  and  S_7
REMARK    4  A    between atoms: S_7  and  N_10
REMARK    5  A    between atoms: N_13  and  C_14
REMARK    6  A    between atoms: C_14  and  C_15
REMARK                            x       y       z     vdW  Elec       q    Type
REMARK                         _______ _______ _______ _____ _____    ______ ____
ROOT
ATOM      1  N   UNL     1       4.158   4.344  18.143  0.00  0.00    +0.000 NA
ATOM      2  C   UNL     1       4.044   4.502  16.692  0.00  0.00    +0.000 C 
ATOM      3  C   UNL     1       4.926   5.672  16.197  0.00  0.00    +0.000 C 
ATOM      4  N   UNL     1       6.307   5.731  16.736  0.00  0.00    +0.000 NA
ATOM      5  C   UNL     1       6.244   5.601  18.210  0.00  0.00    +0.000 C 
ATOM      6  C   UNL     1       5.511   4.337  18.695  0.00  0.00    +0.000 C 
ENDROOT
BRANCH   1   7
ATOM      7  S   UNL     1       2.816   4.191  19.161  0.00  0.00    +0.000 S 
ATOM      8  O   UNL     1       3.281   3.699  20.430  0.00  0.00    +0.000 OA
ATOM      9  O   UNL     1       1.712   3.573  18.440  0.00  0.00    +0.000 OA
BRANCH   7  13
ATOM     10  C   UNL     1       1.495   8.578  20.106  0.00  0.00    +0.000 A 
ATOM     11  C   UNL     1       1.235   7.464  20.923  0.00  0.00    +0.000 A 
ATOM     12  C   UNL     1       1.715   6.162  20.692  0.00  0.00    +0.000 A 
ATOM     13  C   UNL     1       2.242   5.878  19.497  0.00  0.00    +0.000 A 
ATOM     14  C   UNL     1       2.336   6.915  18.539  0.00  0.00    +0.000 A 
ATOM     15  C   UNL     1       2.055   8.283  18.885  0.00  0.00    +0.000 A 
BRANCH  10  17
ATOM     16  C   UNL     1      -0.239   9.977  21.230  0.00  0.00    +0.000 C 
ATOM     17  O   UNL     1       1.035   9.769  20.586  0.00  0.00    +0.000 OA
ENDBRANCH  10  17
ENDBRANCH   7  13
ENDBRANCH   1   7
BRANCH   4  18
ATOM     18  C   UNL     1       7.198   4.702  16.157  0.00  0.00    +0.000 C 
BRANCH  18  19
ATOM     19  C   UNL     1       7.084   4.633  14.674  0.00  0.00    +0.000 A 
ATOM     20  C   UNL     1       6.374   3.827  13.809  0.00  0.00    +0.000 A 
ATOM     21  C   UNL     1       6.827   4.148  12.508  0.00  0.00    +0.000 A 
ATOM     22  C   UNL     1       7.728   5.177  12.656  0.00  0.00    +0.000 A 
ATOM     23  O   UNL     1       7.890   5.480  13.970  0.00  0.00    +0.000 OA
ENDBRANCH  18  19
ENDBRANCH   4  18
TORSDOF 5
ENDMDL
MODEL 5
REMARK VINA RESULT:      -6.9      0.529      1.093
REMARK  Name = 
REMARK  6 active torsions:
REMARK  status: ('A' for Active; 'I' for Inactive)
REMARK    1  A    between atoms: C_1  and  O_2
REMARK    2  A    between atoms: O_2  and  C_3
REMARK    3  A    between atoms: C_6  and  S_7
REMARK    4  A    between atoms: S_7  and  N_10
REMARK    5  A    between atoms: N_13  and  C_14
REMARK    6  A    between atoms: C_14  and  C_15
REMARK                            x       y       z     vdW  Elec       q    Type
REMARK                         _______ _______ _______ _____ _____    ______ ____
ROOT
ATOM      1  N   UNL     1       5.557   5.973  17.913  0.00  0.00    +0.000 NA
ATOM      2  C   UNL     1       4.681   7.145  17.872  0.00  0.00    +0.000 C 
ATOM      3  C   UNL     1       3.227   6.731  17.550  0.00  0.00    +0.000 C 
ATOM      4  N   UNL     1       2.692   5.563  18.293  0.00  0.00    +0.000 NA
ATOM      5  C   UNL     1       3.672   4.457  18.201  0.00  0.00    +0.000 C 
ATOM      6  C   UNL     1       5.084   4.829  18.691  0.00  0.00    +0.000 C 
ENDROOT
BRANCH   1   7
ATOM      7  S   UNL     1       7.040   5.902  17.102  0.00  0.00    +0.000 S 
ATOM      8  O   UNL     1       7.876   4.960  17.796  0.00  0.00    +0.000 OA
ATOM      9  O   UNL     1       7.489   7.247  16.768  0.00  0.00    +0.000 OA
BRANCH   7  13
ATOM     10  C   UNL     1       6.260   3.768  13.014  0.00  0.00    +0.000 A 
ATOM     11  C   UNL     1       7.327   4.645  13.275  0.00  0.00    +0.000 A 
ATOM     12  C   UNL     1       7.621   5.210  14.529  0.00  0.00    +0.000 A 
ATOM     13  C   UNL     1       6.702   5.132  15.496  0.00  0.00    +0.000 A 
ATOM     14  C   UNL     1       5.498   4.440  15.227  0.00  0.00    +0.000 A 
ATOM     15  C   UNL     1       5.327   3.676  14.020  0.00  0.00    +0.000 A 
BRANCH  10  17
ATOM     16  C   UNL     1       5.560   2.026  11.370  0.00  0.00    +0.000 C 
ATOM     17  O   UNL     1       6.236   3.241  11.756  0.00  0.00    +0.000 OA
ENDBRANCH  10  17
ENDBRANCH   7  13
ENDBRANCH   1   7
BRANCH   4  18
ATOM     18  C   UNL     1       2.381   5.871  19.706  0.00  0.00    +0.000 C 
BRANCH  18  19
ATOM     19  C   UNL     1       1.942   4.665  20.460  0.00  0.00    +0.000 A 
ATOM     20  C   UNL     1       2.409   4.023  21.587  0.00  0.00    +0.000 A 
ATOM     21  C   UNL     1       1.660   2.827  21.700  0.00  0.00    +0.000 A 
ATOM     22  C   UNL     1       0.738   2.852  20.679  0.00  0.00    +0.000 A 
ATOM     23  O   UNL     1       0.900   3.967  19.921  0.00  0.00    +0.000 OA
ENDBRANCH  18  19
ENDBRANCH   4  18
TORSDOF 5
ENDMDL
MODEL 6
REMARK VINA RESULT:      -6.6      2.995      7.748
REMARK  Name = 
REMARK  6 active torsions:
REMARK  status: ('A' for Active; 'I' for Inactive)
REMARK    1  A    between atoms: C_1  and  O_2
REMARK    2  A    between atoms: O_2  and  C_3
REMARK    3  A    between atoms: C_6  and  S_7
REMARK    4  A    between atoms: S_7  and  N_10
REMARK    5  A    between atoms: N_13  and  C_14
REMARK    6  A    between atoms: C_14  and  C_15
REMARK                            x       y       z     vdW  Elec       q    Type
REMARK                         _______ _______ _______ _____ _____    ______ ____
ROOT
ATOM      1  N   UNL     1       4.167   5.355  18.179  0.00  0.00    +0.000 NA
ATOM      2  C   UNL     1       5.498   5.669  18.700  0.00  0.00    +0.000 C 
ATOM      3  C   UNL     1       6.530   4.611  18.241  0.00  0.00    +0.000 C 
ATOM      4  N   UNL     1       6.483   4.219  16.811  0.00  0.00    +0.000 NA
ATOM      5  C   UNL     1       5.081   3.893  16.458  0.00  0.00    +0.000 C 
ATOM      6  C   UNL     1       4.081   5.025  16.757  0.00  0.00    +0.000 C 
ENDROOT
BRANCH   1   7
ATOM      7  S   UNL     1       2.778   5.347  19.145  0.00  0.00    +0.000 S 
ATOM      8  O   UNL     1       3.180   5.025  20.488  0.00  0.00    +0.000 OA
ATOM      9  O   UNL     1       1.701   4.644  18.462  0.00  0.00    +0.000 OA
BRANCH   7  13
ATOM     10  C   UNL     1       1.147   9.729  19.296  0.00  0.00    +0.000 A 
ATOM     11  C   UNL     1       1.837   9.161  18.210  0.00  0.00    +0.000 A 
ATOM     12  C   UNL     1       2.241   7.817  18.122  0.00  0.00    +0.000 A 
ATOM     13  C   UNL     1       2.209   7.067  19.227  0.00  0.00    +0.000 A 
ATOM     14  C   UNL     1       1.723   7.647  20.422  0.00  0.00    +0.000 A 
ATOM     15  C   UNL     1       1.100   8.945  20.425  0.00  0.00    +0.000 A 
BRANCH  10  17
ATOM     16  C   UNL     1       0.260  11.897  20.156  0.00  0.00    +0.000 C 
ATOM     17  O   UNL     1       0.743  11.019  19.118  0.00  0.00    +0.000 OA
ENDBRANCH  10  17
ENDBRANCH   7  13
ENDBRANCH   1   7
BRANCH   4  18
ATOM     18  C   UNL     1       7.022   5.259  15.909  0.00  0.00    +0.000 C 
BRANCH  18  19
ATOM     19  C   UNL     1       6.951   4.854  14.479  0.00  0.00    +0.000 A 
ATOM     20  C   UNL     1       6.244   3.885  13.796  0.00  0.00    +0.000 A 
ATOM     21  C   UNL     1       6.745   3.890  12.473  0.00  0.00    +0.000 A 
ATOM     22  C   UNL     1       7.669   4.907  12.414  0.00  0.00    +0.000 A 
ATOM     23  O   UNL     1       7.800   5.500  13.628  0.00  0.00    +0.000 OA
ENDBRANCH  18  19
ENDBRANCH   4  18
TORSDOF 5
ENDMDL
MODEL 7
REMARK VINA RESULT:      -6.5      1.565      1.990
REMARK  Name = 
REMARK  6 active torsions:
REMARK  status: ('A' for Active; 'I' for Inactive)
REMARK    1  A    between atoms: C_1  and  O_2
REMARK    2  A    between atoms: O_2  and  C_3
REMARK    3  A    between atoms: C_6  and  S_7
REMARK    4  A    between atoms: S_7  and  N_10
REMARK    5  A    between atoms: N_13  and  C_14
REMARK    6  A    between atoms: C_14  and  C_15
REMARK                            x       y       z     vdW  Elec       q    Type
REMARK                         _______ _______ _______ _____ _____    ______ ____
ROOT
ATOM      1  N   UNL     1       5.658   5.179  16.996  0.00  0.00    +0.000 NA
ATOM      2  C   UNL     1       6.514   4.594  18.029  0.00  0.00    +0.000 C 
ATOM      3  C   UNL     1       5.987   4.944  19.441  0.00  0.00    +0.000 C 
ATOM      4  N   UNL     1       4.528   4.785  19.659  0.00  0.00    +0.000 NA
ATOM      5  C   UNL     1       3.809   5.466  18.557  0.00  0.00    +0.000 C 
ATOM      6  C   UNL     1       4.218   4.985  17.152  0.00  0.00    +0.000 C 
ENDROOT
BRANCH   1   7
ATOM      7  S   UNL     1       6.266   6.056  15.683  0.00  0.00    +0.000 S 
ATOM      8  O   UNL     1       7.641   6.371  15.965  0.00  0.00    +0.000 OA
ATOM      9  O   UNL     1       5.302   7.066  15.270  0.00  0.00    +0.000 OA
BRANCH   7  13
ATOM     10  C   UNL     1       6.325   3.190  11.987  0.00  0.00    +0.000 A 
ATOM     11  C   UNL     1       5.408   3.118  13.050  0.00  0.00    +0.000 A 
ATOM     12  C   UNL     1       5.325   4.037  14.111  0.00  0.00    +0.000 A 
ATOM     13  C   UNL     1       6.329   4.900  14.288  0.00  0.00    +0.000 A 
ATOM     14  C   UNL     1       7.404   4.882  13.368  0.00  0.00    +0.000 A 
ATOM     15  C   UNL     1       7.346   4.094  12.165  0.00  0.00    +0.000 A 
BRANCH  10  17
ATOM     16  C   UNL     1       6.325   0.841  11.146  0.00  0.00    +0.000 C 
ATOM     17  O   UNL     1       6.146   2.265  11.000  0.00  0.00    +0.000 OA
ENDBRANCH  10  17
ENDBRANCH   7  13
ENDBRANCH   1   7
BRANCH   4  18
ATOM     18  C   UNL     1       4.110   3.370  19.760  0.00  0.00    +0.000 C 
BRANCH  18  19
ATOM     19  C   UNL     1       2.631   3.216  19.704  0.00  0.00    +0.000 A 
ATOM     20  C   UNL     1       1.601   3.583  20.545  0.00  0.00    +0.000 A 
ATOM     21  C   UNL     1       0.428   2.997  20.012  0.00  0.00    +0.000 A 
ATOM     22  C   UNL     1       0.804   2.374  18.845  0.00  0.00    +0.000 A 
ATOM     23  O   UNL     1       2.141   2.503  18.648  0.00  0.00    +0.000 OA
ENDBRANCH  18  19
ENDBRANCH   4  18
TORSDOF 5
ENDMDL
MODEL 8
REMARK VINA RESULT:      -6.5      3.147      4.371
REMARK  Name = 
REMARK  6 active torsions:
REMARK  status: ('A' for Active; 'I' for Inactive)
REMARK    1  A    between atoms: C_1  and  O_2
REMARK    2  A    between atoms: O_2  and  C_3
REMARK    3  A    between atoms: C_6  and  S_7
REMARK    4  A    between atoms: S_7  and  N_10
REMARK    5  A    between atoms: N_13  and  C_14
REMARK    6  A    between atoms: C_14  and  C_15
REMARK                            x       y       z     vdW  Elec       q    Type
REMARK                         _______ _______ _______ _____ _____    ______ ____
ROOT
ATOM      1  N   UNL     1       3.523   4.922  19.584  0.00  0.00    +0.000 NA
ATOM      2  C   UNL     1       3.732   6.282  19.085  0.00  0.00    +0.000 C 
ATOM      3  C   UNL     1       2.388   7.038  18.971  0.00  0.00    +0.000 C 
ATOM      4  N   UNL     1       1.464   6.920  20.126  0.00  0.00    +0.000 NA
ATOM      5  C   UNL     1       1.327   5.487  20.476  0.00  0.00    +0.000 C 
ATOM      6  C   UNL     1       2.666   4.782  20.760  0.00  0.00    +0.000 C 
ENDROOT
BRANCH   1   7
ATOM      7  S   UNL     1       4.206   3.557  18.854  0.00  0.00    +0.000 S 
ATOM      8  O   UNL     1       3.144   2.816  18.229  0.00  0.00    +0.000 OA
ATOM      9  O   UNL     1       5.166   2.938  19.758  0.00  0.00    +0.000 OA
BRANCH   7  13
ATOM     10  C   UNL     1       6.886   4.975  15.292  0.00  0.00    +0.000 A 
ATOM     11  C   UNL     1       7.240   5.057  16.650  0.00  0.00    +0.000 A 
ATOM     12  C   UNL     1       6.480   4.543  17.716  0.00  0.00    +0.000 A 
ATOM     13  C   UNL     1       5.218   4.172  17.481  0.00  0.00    +0.000 A 
ATOM     14  C   UNL     1       4.723   4.268  16.159  0.00  0.00    +0.000 A 
ATOM     15  C   UNL     1       5.592   4.574  15.054  0.00  0.00    +0.000 A 
BRANCH  10  17
ATOM     16  C   UNL     1       7.839   5.185  12.995  0.00  0.00    +0.000 C 
ATOM     17  O   UNL     1       7.829   5.429  14.417  0.00  0.00    +0.000 OA
ENDBRANCH  10  17
ENDBRANCH   7  13
ENDBRANCH   1   7
BRANCH   4  18
ATOM     18  C   UNL     1       1.903   7.706  21.300  0.00  0.00    +0.000 C 
BRANCH  18  19
ATOM     19  C   UNL     1       1.026   8.882  21.547  0.00  0.00    +0.000 A 
ATOM     20  C   UNL     1       0.143   9.219  22.551  0.00  0.00    +0.000 A 
ATOM     21  C   UNL     1      -0.514  10.397  22.121  0.00  0.00    +0.000 A 
ATOM     22  C   UNL     1       0.059  10.741  20.919  0.00  0.00    +0.000 A 
ATOM     23  O   UNL     1       0.998   9.828  20.563  0.00  0.00    +0.000 OA
ENDBRANCH  18  19
ENDBRANCH   4  18
TORSDOF 5
ENDMDL
MODEL 9
REMARK VINA RESULT:      -6.5      1.099      1.816
REMARK  Name = 
REMARK  6 active torsions:
REMARK  status: ('A' for Active; 'I' for Inactive)
REMARK    1  A    between atoms: C_1  and  O_2
REMARK    2  A    between atoms: O_2  and  C_3
REMARK    3  A    between atoms: C_6  and  S_7
REMARK    4  A    between atoms: S_7  and  N_10
REMARK    5  A    between atoms: N_13  and  C_14
REMARK    6  A    between atoms: C_14  and  C_15
REMARK                            x       y       z     vdW  Elec       q    Type
REMARK                         _______ _______ _______ _____ _____    ______ ____
ROOT
ATOM      1  N   UNL     1       5.343   5.578  17.421  0.00  0.00    +0.000 NA
ATOM      2  C   UNL     1       4.991   4.613  18.464  0.00  0.00    +0.000 C 
ATOM      3  C   UNL     1       4.237   5.308  19.622  0.00  0.00    +0.000 C 
ATOM      4  N   UNL     1       3.157   6.249  19.235  0.00  0.00    +0.000 NA
ATOM      5  C   UNL     1       3.686   7.179  18.211  0.00  0.00    +0.000 C 
ATOM      6  C   UNL     1       4.280   6.477  16.976  0.00  0.00    +0.000 C 
ENDROOT
BRANCH   1   7
ATOM      7  S   UNL     1       6.893   5.687  16.752  0.00  0.00    +0.000 S 
ATOM      8  O   UNL     1       7.749   4.787  17.478  0.00  0.00    +0.000 OA
ATOM      9  O   UNL     1       7.240   7.083  16.526  0.00  0.00    +0.000 OA
BRANCH   7  13
ATOM     10  C   UNL     1       6.690   3.718  12.514  0.00  0.00    +0.000 A 
ATOM     11  C   UNL     1       7.659   4.651  12.925  0.00  0.00    +0.000 A 
ATOM     12  C   UNL     1       7.781   5.169  14.226  0.00  0.00    +0.000 A 
ATOM     13  C   UNL     1       6.777   4.980  15.087  0.00  0.00    +0.000 A 
ATOM     14  C   UNL     1       5.660   4.223  14.662  0.00  0.00    +0.000 A 
ATOM     15  C   UNL     1       5.669   3.512  13.411  0.00  0.00    +0.000 A 
BRANCH  10  17
ATOM     16  C   UNL     1       7.340   1.957  10.870  0.00  0.00    +0.000 C 
ATOM     17  O   UNL     1       6.833   3.257  11.238  0.00  0.00    +0.000 OA
ENDBRANCH  10  17
ENDBRANCH   7  13
ENDBRANCH   1   7
BRANCH   4  18
ATOM     18  C   UNL     1       1.943   5.563  18.743  0.00  0.00    +0.000 C 
BRANCH  18  19
ATOM     19  C   UNL     1       1.642   4.329  19.520  0.00  0.00    +0.000 A 
ATOM     20  C   UNL     1       1.314   4.088  20.838  0.00  0.00    +0.000 A 
ATOM     21  C   UNL     1       1.322   2.682  20.996  0.00  0.00    +0.000 A 
ATOM     22  C   UNL     1       1.582   2.156  19.752  0.00  0.00    +0.000 A 
ATOM     23  O   UNL     1       1.776   3.149  18.848  0.00  0.00    +0.000 OA
ENDBRANCH  18  19
ENDBRANCH   4  18
TORSDOF 5
ENDMDL
