MODEL 1
REMARK VINA RESULT:      -9.2      0.000      0.000
REMARK  Name = 
REMARK  9 active torsions:
REMARK  status: ('A' for Active; 'I' for Inactive)
REMARK    1  A    between atoms: C_1  and  C_2
REMARK    2  A    between atoms: C_5  and  N_6
REMARK    3  A    between atoms: C_7  and  C_9
REMARK    4  A    between atoms: C_14  and  C_15
REMARK    5  A    between atoms: N_17  and  C_18
REMARK    6  A    between atoms: C_18  and  C_19
REMARK    7  A    between atoms: C_19  and  C_20
REMARK    8  A    between atoms: C_20  and  C_21
REMARK    9  A    between atoms: C_21  and  N_22
REMARK                            x       y       z     vdW  Elec       q    Type
REMARK                         _______ _______ _______ _____ _____    ______ ____
ROOT
ATOM      1  C   UNL     1       3.181   5.875  18.430  0.00  0.00    +0.000 C 
ATOM      2  C   UNL     1       2.246   4.649  18.235  0.00  0.00    +0.000 C 
ATOM      3  C   UNL     1       1.518   4.373  19.520  0.00  0.00    +0.000 C 
ATOM      4  C   UNL     1       2.456   3.918  20.433  0.00  0.00    +0.000 C 
ATOM      5  C   UNL     1       3.791   3.900  19.739  0.00  0.00    +0.000 C 
ATOM      6  C   UNL     1       4.200   5.387  19.526  0.00  0.00    +0.000 C 
ATOM      7  C   UNL     1       3.285   3.561  18.360  0.00  0.00    +0.000 C 
ATOM      8  C   UNL     1       3.020   2.150  17.938  0.00  0.00    +0.000 C 
ATOM      9  C   UNL     1       4.114   3.038  17.231  0.00  0.00    +0.000 C 
ENDROOT
BRANCH   1  11
ATOM     10  N   UNL     1       2.080   7.404  20.090  0.00  0.00    +0.000 N 
ATOM     11  C   UNL     1       2.469   7.167  18.798  0.00  0.00    +0.000 C 
ATOM     12  O   UNL     1       2.248   7.971  17.910  0.00  0.00    +0.000 OA
ATOM     13  H   UNL     1       2.303   6.673  20.783  0.00  0.00    +0.000 HD
BRANCH  10  18
ATOM     14  C   UNL     1      -0.677  11.895  22.375  0.00  0.00    +0.000 C 
ATOM     15  C   UNL     1       0.038  10.747  21.733  0.00  0.00    +0.000 A 
ATOM     16  C   UNL     1       0.031  10.583  20.347  0.00  0.00    +0.000 A 
ATOM     17  C   UNL     1       0.697   9.499  19.776  0.00  0.00    +0.000 A 
ATOM     18  C   UNL     1       1.379   8.561  20.588  0.00  0.00    +0.000 A 
ATOM     19  C   UNL     1       1.357   8.782  21.980  0.00  0.00    +0.000 A 
ATOM     20  N   UNL     1       0.698   9.848  22.510  0.00  0.00    +0.000 NA
ENDBRANCH  10  18
ENDBRANCH   1  11
BRANCH   6  21
ATOM     21  C   UNL     1       5.635   5.560  19.067  0.00  0.00    +0.000 C 
ATOM     22  O   UNL     1       6.547   5.079  19.727  0.00  0.00    +0.000 OA
ATOM     23  N   UNL     1       5.902   6.259  17.928  0.00  0.00    +0.000 N 
ATOM     24  H   UNL     1       5.119   6.660  17.390  0.00  0.00    +0.000 HD
BRANCH  23  25
ATOM     25  C   UNL     1       7.248   6.456  17.421  0.00  0.00    +0.000 C 
BRANCH  25  26
ATOM     26  C   UNL     1       8.032   7.406  18.339  0.00  0.00    +0.000 C 
BRANCH  26  27
ATOM     27  C   UNL     1       8.174   8.819  17.748  0.00  0.00    +0.000 C 
BRANCH  27  28
ATOM     28  C   UNL     1       8.829   9.823  18.718  0.00  0.00    +0.000 C 
BRANCH  28  29
ATOM     29  N   UNL     1       9.519  10.913  17.992  0.00  0.00    +0.000 NA
ATOM     30  C   UNL     1      10.673  11.405  18.772  0.00  0.00    +0.000 C 
ATOM     31  C   UNL     1      10.219  12.705  19.417  0.00  0.00    +0.000 C 
ATOM     32  C   UNL     1       9.457  13.306  18.265  0.00  0.00    +0.000 C 
ATOM     33  C   UNL     1       8.644  12.102  17.821  0.00  0.00    +0.000 C 
ENDBRANCH  28  29
ENDBRANCH  27  28
ENDBRANCH  26  27
ENDBRANCH  25  26
ENDBRANCH  23  25
ENDBRANCH   6  21
TORSDOF 8
ENDMDL
MODEL 2
REMARK VINA RESULT:      -9.2      1.646      1.741
REMARK  Name = 
REMARK  9 active torsions:
REMARK  status: ('A' for Active; 'I' for Inactive)
REMARK    1  A    between atoms: C_1  and  C_2
REMARK    2  A    between atoms: C_5  and  N_6
REMARK    3  A    between atoms: C_7  and  C_9
REMARK    4  A    between atoms: C_14  and  C_15
REMARK    5  A    between atoms: N_17  and  C_18
REMARK    6  A    between atoms: C_18  and  C_19
REMARK    7  A    between atoms: C_19  and  C_20
REMARK    8  A    between atoms: C_20  and  C_21
REMARK    9  A    between atoms: C_21  and  N_22
REMARK                            x       y       z     vdW  Elec       q    Type
REMARK                         _______ _______ _______ _____ _____    ______ ____
ROOT
ATOM      1  C   UNL     1       3.011   5.969  18.370  0.00  0.00    +0.000 C 
ATOM      2  C   UNL     1       1.980   4.809  18.292  0.00  0.00    +0.000 C 
ATOM      3  C   UNL     1       1.389   4.580  19.655  0.00  0.00    +0.000 C 
ATOM      4  C   UNL     1       2.395   4.061  20.454  0.00  0.00    +0.000 C 
ATOM      5  C   UNL     1       3.636   3.955  19.610  0.00  0.00    +0.000 C 
ATOM      6  C   UNL     1       4.115   5.412  19.342  0.00  0.00    +0.000 C 
ATOM      7  C   UNL     1       2.950   3.654  18.302  0.00  0.00    +0.000 C 
ATOM      8  C   UNL     1       2.544   2.265  17.921  0.00  0.00    +0.000 C 
ATOM      9  C   UNL     1       3.605   3.079  17.087  0.00  0.00    +0.000 C 
ENDROOT
BRANCH   1  11
ATOM     10  N   UNL     1       2.005   8.218  17.884  0.00  0.00    +0.000 N 
ATOM     11  C   UNL     1       2.434   7.305  18.811  0.00  0.00    +0.000 C 
ATOM     12  O   UNL     1       2.379   7.538  20.006  0.00  0.00    +0.000 OA
ATOM     13  H   UNL     1       2.087   7.945  16.893  0.00  0.00    +0.000 HD
BRANCH  10  18
ATOM     14  C   UNL     1       0.143  13.551  18.928  0.00  0.00    +0.000 C 
ATOM     15  C   UNL     1       0.580  12.146  18.650  0.00  0.00    +0.000 A 
ATOM     16  C   UNL     1      -0.335  11.092  18.681  0.00  0.00    +0.000 A 
ATOM     17  C   UNL     1       0.100   9.792  18.428  0.00  0.00    +0.000 A 
ATOM     18  C   UNL     1       1.461   9.528  18.142  0.00  0.00    +0.000 A 
ATOM     19  C   UNL     1       2.337  10.633  18.118  0.00  0.00    +0.000 A 
ATOM     20  N   UNL     1       1.885  11.890  18.370  0.00  0.00    +0.000 NA
ENDBRANCH  10  18
ENDBRANCH   1  11
BRANCH   6  21
ATOM     21  C   UNL     1       5.496   5.488  18.718  0.00  0.00    +0.000 C 
ATOM     22  O   UNL     1       6.312   4.604  18.936  0.00  0.00    +0.000 OA
ATOM     23  N   UNL     1       5.822   6.549  17.927  0.00  0.00    +0.000 N 
ATOM     24  H   UNL     1       5.122   7.286  17.761  0.00  0.00    +0.000 HD
BRANCH  23  25
ATOM     25  C   UNL     1       7.119   6.685  17.287  0.00  0.00    +0.000 C 
BRANCH  25  26
ATOM     26  C   UNL     1       8.072   7.497  18.177  0.00  0.00    +0.000 C 
BRANCH  26  27
ATOM     27  C   UNL     1       8.070   8.997  17.835  0.00  0.00    +0.000 C 
BRANCH  27  28
ATOM     28  C   UNL     1       8.900   9.848  18.817  0.00  0.00    +0.000 C 
BRANCH  28  29
ATOM     29  N   UNL     1       9.646  10.918  18.117  0.00  0.00    +0.000 NA
ATOM     30  C   UNL     1      10.725  11.445  18.977  0.00  0.00    +0.000 C 
ATOM     31  C   UNL     1      10.210  12.763  19.535  0.00  0.00    +0.000 C 
ATOM     32  C   UNL     1       9.550  13.319  18.300  0.00  0.00    +0.000 C 
ATOM     33  C   UNL     1       8.784  12.094  17.829  0.00  0.00    +0.000 C 
ENDBRANCH  28  29
ENDBRANCH  27  28
ENDBRANCH  26  27
ENDBRANCH  25  26
ENDBRANCH  23  25
ENDBRANCH   6  21
TORSDOF 8
ENDMDL
MODEL 3
REMARK VINA RESULT:      -9.0      0.853      1.189
REMARK  Name = 
REMARK  9 active torsions:
REMARK  status: ('A' for Active; 'I' for Inactive)
REMARK    1  A    between atoms: C_1  and  C_2
REMARK    2  A    between atoms: C_5  and  N_6
REMARK    3  A    between atoms: C_7  and  C_9
REMARK    4  A    between atoms: C_14  and  C_15
REMARK    5  A    between atoms: N_17  and  C_18
REMARK    6  A    between atoms: C_18  and  C_19
REMARK    7  A    between atoms: C_19  and  C_20
REMARK    8  A    between atoms: C_20  and  C_21
REMARK    9  A    between atoms: C_21  and  N_22
REMARK                            x       y       z     vdW  Elec       q    Type
REMARK                         _______ _______ _______ _____ _____    ______ ____
ROOT
ATOM      1  C   UNL     1       3.134   5.883  18.375  0.00  0.00    +0.000 C 
ATOM      2  C   UNL     1       2.262   4.633  18.072  0.00  0.00    +0.000 C 
ATOM      3  C   UNL     1       1.504   4.246  19.310  0.00  0.00    +0.000 C 
ATOM      4  C   UNL     1       2.430   3.775  20.226  0.00  0.00    +0.000 C 
ATOM      5  C   UNL     1       3.787   3.858  19.582  0.00  0.00    +0.000 C 
ATOM      6  C   UNL     1       4.136   5.371  19.475  0.00  0.00    +0.000 C 
ATOM      7  C   UNL     1       3.343   3.584  18.168  0.00  0.00    +0.000 C 
ATOM      8  C   UNL     1       3.156   2.193  17.650  0.00  0.00    +0.000 C 
ATOM      9  C   UNL     1       4.232   3.170  17.040  0.00  0.00    +0.000 C 
ENDROOT
BRANCH   1  11
ATOM     10  N   UNL     1       2.117   7.375  20.120  0.00  0.00    +0.000 N 
ATOM     11  C   UNL     1       2.353   7.118  18.795  0.00  0.00    +0.000 C 
ATOM     12  O   UNL     1       1.939   7.858  17.921  0.00  0.00    +0.000 OA
ATOM     13  H   UNL     1       2.501   6.700  20.799  0.00  0.00    +0.000 HD
BRANCH  10  18
ATOM     14  C   UNL     1      -0.680  11.983  22.104  0.00  0.00    +0.000 C 
ATOM     15  C   UNL     1       0.021  10.753  21.619  0.00  0.00    +0.000 A 
ATOM     16  C   UNL     1      -0.068   9.552  22.324  0.00  0.00    +0.000 A 
ATOM     17  C   UNL     1       0.603   8.423  21.855  0.00  0.00    +0.000 A 
ATOM     18  C   UNL     1       1.377   8.483  20.671  0.00  0.00    +0.000 A 
ATOM     19  C   UNL     1       1.425   9.721  19.998  0.00  0.00    +0.000 A 
ATOM     20  N   UNL     1       0.761  10.806  20.479  0.00  0.00    +0.000 NA
ENDBRANCH  10  18
ENDBRANCH   1  11
BRANCH   6  21
ATOM     21  C   UNL     1       5.577   5.633  19.081  0.00  0.00    +0.000 C 
ATOM     22  O   UNL     1       6.486   5.236  19.797  0.00  0.00    +0.000 OA
ATOM     23  N   UNL     1       5.851   6.319  17.935  0.00  0.00    +0.000 N 
ATOM     24  H   UNL     1       5.070   6.649  17.349  0.00  0.00    +0.000 HD
BRANCH  23  25
ATOM     25  C   UNL     1       7.204   6.597  17.487  0.00  0.00    +0.000 C 
BRANCH  25  26
ATOM     26  C   UNL     1       7.448   8.113  17.432  0.00  0.00    +0.000 C 
BRANCH  26  27
ATOM     27  C   UNL     1       8.462   8.589  18.485  0.00  0.00    +0.000 C 
BRANCH  27  28
ATOM     28  C   UNL     1       8.803  10.088  18.370  0.00  0.00    +0.000 C 
BRANCH  28  29
ATOM     29  N   UNL     1       9.876  10.480  19.312  0.00  0.00    +0.000 NA
ATOM     30  C   UNL     1       9.305  10.846  20.624  0.00  0.00    +0.000 C 
ATOM     31  C   UNL     1       9.304  12.365  20.670  0.00  0.00    +0.000 C 
ATOM     32  C   UNL     1      10.649  12.639  20.050  0.00  0.00    +0.000 C 
ATOM     33  C   UNL     1      10.592  11.700  18.857  0.00  0.00    +0.000 C 
ENDBRANCH  28  29
ENDBRANCH  27  28
ENDBRANCH  26  27
ENDBRANCH  25  26
ENDBRANCH  23  25
ENDBRANCH   6  21
TORSDOF 8
ENDMDL
MODEL 4
REMARK VINA RESULT:      -8.8      3.391      5.391
REMARK  Name = 
REMARK  9 active torsions:
REMARK  status: ('A' for Active; 'I' for Inactive)
REMARK    1  A    between atoms: C_1  and  C_2
REMARK    2  A    between atoms: C_5  and  N_6
REMARK    3  A    between atoms: C_7  and  C_9
REMARK    4  A    between atoms: C_14  and  C_15
REMARK    5  A    between atoms: N_17  and  C_18
REMARK    6  A    between atoms: C_18  and  C_19
REMARK    7  A    between atoms: C_19  and  C_20
REMARK    8  A    between atoms: C_20  and  C_21
REMARK    9  A    between atoms: C_21  and  N_22
REMARK                            x       y       z     vdW  Elec       q    Type
REMARK                         _______ _______ _______ _____ _____    ______ ____
ROOT
ATOM      1  C   UNL     1       2.937   5.999  18.465  0.00  0.00    +0.000 C 
ATOM      2  C   UNL     1       1.906   4.840  18.374  0.00  0.00    +0.000 C 
ATOM      3  C   UNL     1       1.269   4.638  19.720  0.00  0.00    +0.000 C 
ATOM      4  C   UNL     1       2.246   4.131  20.562  0.00  0.00    +0.000 C 
ATOM      5  C   UNL     1       3.514   4.006  19.761  0.00  0.00    +0.000 C 
ATOM      6  C   UNL     1       4.007   5.456  19.483  0.00  0.00    +0.000 C 
ATOM      7  C   UNL     1       2.872   3.683  18.436  0.00  0.00    +0.000 C 
ATOM      8  C   UNL     1       2.474   2.288  18.068  0.00  0.00    +0.000 C 
ATOM      9  C   UNL     1       3.564   3.084  17.254  0.00  0.00    +0.000 C 
ENDROOT
BRANCH   1  11
ATOM     10  N   UNL     1       2.047   8.280  17.909  0.00  0.00    +0.000 N 
ATOM     11  C   UNL     1       2.351   7.344  18.862  0.00  0.00    +0.000 C 
ATOM     12  O   UNL     1       2.173   7.564  20.047  0.00  0.00    +0.000 OA
ATOM     13  H   UNL     1       2.228   8.017  16.928  0.00  0.00    +0.000 HD
BRANCH  10  18
ATOM     14  C   UNL     1      -0.382  13.420  18.728  0.00  0.00    +0.000 C 
ATOM     15  C   UNL     1       0.296  12.101  18.527  0.00  0.00    +0.000 A 
ATOM     16  C   UNL     1       1.685  12.019  18.421  0.00  0.00    +0.000 A 
ATOM     17  C   UNL     1       2.292  10.778  18.223  0.00  0.00    +0.000 A 
ATOM     18  C   UNL     1       1.512   9.601  18.128  0.00  0.00    +0.000 A 
ATOM     19  C   UNL     1       0.115   9.745  18.249  0.00  0.00    +0.000 A 
ATOM     20  N   UNL     1      -0.449  10.968  18.440  0.00  0.00    +0.000 NA
ENDBRANCH  10  18
ENDBRANCH   1  11
BRANCH   6  21
ATOM     21  C   UNL     1       5.408   5.518  18.904  0.00  0.00    +0.000 C 
ATOM     22  O   UNL     1       6.348   5.057  19.536  0.00  0.00    +0.000 OA
ATOM     23  N   UNL     1       5.612   6.098  17.687  0.00  0.00    +0.000 N 
ATOM     24  H   UNL     1       4.806   6.485  17.174  0.00  0.00    +0.000 HD
BRANCH  23  25
ATOM     25  C   UNL     1       6.921   6.183  17.065  0.00  0.00    +0.000 C 
BRANCH  25  26
ATOM     26  C   UNL     1       7.004   5.233  15.861  0.00  0.00    +0.000 C 
BRANCH  26  27
ATOM     27  C   UNL     1       5.688   5.164  15.068  0.00  0.00    +0.000 C 
BRANCH  27  28
ATOM     28  C   UNL     1       5.527   3.858  14.264  0.00  0.00    +0.000 C 
BRANCH  28  29
ATOM     29  N   UNL     1       5.841   4.056  12.831  0.00  0.00    +0.000 NA
ATOM     30  C   UNL     1       4.950   3.233  11.987  0.00  0.00    +0.000 C 
ATOM     31  C   UNL     1       5.774   2.030  11.558  0.00  0.00    +0.000 C 
ATOM     32  C   UNL     1       7.085   2.712  11.265  0.00  0.00    +0.000 C 
ATOM     33  C   UNL     1       7.213   3.591  12.497  0.00  0.00    +0.000 C 
ENDBRANCH  28  29
ENDBRANCH  27  28
ENDBRANCH  26  27
ENDBRANCH  25  26
ENDBRANCH  23  25
ENDBRANCH   6  21
TORSDOF 8
ENDMDL
MODEL 5
REMARK VINA RESULT:      -8.7      3.565      5.496
REMARK  Name = 
REMARK  9 active torsions:
REMARK  status: ('A' for Active; 'I' for Inactive)
REMARK    1  A    between atoms: C_1  and  C_2
REMARK    2  A    between atoms: C_5  and  N_6
REMARK    3  A    between atoms: C_7  and  C_9
REMARK    4  A    between atoms: C_14  and  C_15
REMARK    5  A    between atoms: N_17  and  C_18
REMARK    6  A    between atoms: C_18  and  C_19
REMARK    7  A    between atoms: C_19  and  C_20
REMARK    8  A    between atoms: C_20  and  C_21
REMARK    9  A    between atoms: C_21  and  N_22
REMARK                            x       y       z     vdW  Elec       q    Type
REMARK                         _______ _______ _______ _____ _____    ______ ____
ROOT
ATOM      1  C   UNL     1       2.772   5.575  18.678  0.00  0.00    +0.000 C 
ATOM      2  C   UNL     1       1.620   4.572  18.968  0.00  0.00    +0.000 C 
ATOM      3  C   UNL     1       1.250   4.651  20.422  0.00  0.00    +0.000 C 
ATOM      4  C   UNL     1       2.314   4.134  21.144  0.00  0.00    +0.000 C 
ATOM      5  C   UNL     1       3.372   3.721  20.157  0.00  0.00    +0.000 C 
ATOM      6  C   UNL     1       3.957   5.034  19.560  0.00  0.00    +0.000 C 
ATOM      7  C   UNL     1       2.444   3.310  19.043  0.00  0.00    +0.000 C 
ATOM      8  C   UNL     1       1.827   1.948  18.987  0.00  0.00    +0.000 C 
ATOM      9  C   UNL     1       2.813   2.461  17.869  0.00  0.00    +0.000 C 
ENDROOT
BRANCH   1  11
ATOM     10  N   UNL     1       1.635   7.375  20.010  0.00  0.00    +0.000 N 
ATOM     11  C   UNL     1       2.431   7.032  18.949  0.00  0.00    +0.000 C 
ATOM     12  O   UNL     1       2.877   7.875  18.191  0.00  0.00    +0.000 OA
ATOM     13  H   UNL     1       1.296   6.602  20.604  0.00  0.00    +0.000 HD
BRANCH  10  18
ATOM     14  C   UNL     1      -0.056  12.564  21.801  0.00  0.00    +0.000 C 
ATOM     15  C   UNL     1       0.384  11.229  21.286  0.00  0.00    +0.000 A 
ATOM     16  C   UNL     1       0.295  10.920  19.928  0.00  0.00    +0.000 A 
ATOM     17  C   UNL     1       0.703   9.666  19.476  0.00  0.00    +0.000 A 
ATOM     18  C   UNL     1       1.205   8.700  20.381  0.00  0.00    +0.000 A 
ATOM     19  C   UNL     1       1.278   9.071  21.739  0.00  0.00    +0.000 A 
ATOM     20  N   UNL     1       0.872  10.301  22.152  0.00  0.00    +0.000 NA
ENDBRANCH  10  18
ENDBRANCH   1  11
BRANCH   6  21
ATOM     21  C   UNL     1       5.210   4.817  18.734  0.00  0.00    +0.000 C 
ATOM     22  O   UNL     1       6.133   4.155  19.189  0.00  0.00    +0.000 OA
ATOM     23  N   UNL     1       5.306   5.370  17.491  0.00  0.00    +0.000 N 
ATOM     24  H   UNL     1       4.520   5.928  17.128  0.00  0.00    +0.000 HD
BRANCH  23  25
ATOM     25  C   UNL     1       6.469   5.195  16.638  0.00  0.00    +0.000 C 
BRANCH  25  26
ATOM     26  C   UNL     1       6.281   3.978  15.721  0.00  0.00    +0.000 C 
BRANCH  26  27
ATOM     27  C   UNL     1       6.492   4.316  14.235  0.00  0.00    +0.000 C 
BRANCH  27  28
ATOM     28  C   UNL     1       5.339   3.838  13.330  0.00  0.00    +0.000 C 
BRANCH  28  29
ATOM     29  N   UNL     1       5.794   3.606  11.941  0.00  0.00    +0.000 NA
ATOM     30  C   UNL     1       5.087   2.452  11.350  0.00  0.00    +0.000 C 
ATOM     31  C   UNL     1       6.065   1.289  11.406  0.00  0.00    +0.000 C 
ATOM     32  C   UNL     1       7.330   2.002  11.007  0.00  0.00    +0.000 C 
ATOM     33  C   UNL     1       7.233   3.237  11.886  0.00  0.00    +0.000 C 
ENDBRANCH  28  29
ENDBRANCH  27  28
ENDBRANCH  26  27
ENDBRANCH  25  26
ENDBRANCH  23  25
ENDBRANCH   6  21
TORSDOF 8
ENDMDL
MODEL 6
REMARK VINA RESULT:      -8.6      2.628      3.877
REMARK  Name = 
REMARK  9 active torsions:
REMARK  status: ('A' for Active; 'I' for Inactive)
REMARK    1  A    between atoms: C_1  and  C_2
REMARK    2  A    between atoms: C_5  and  N_6
REMARK    3  A    between atoms: C_7  and  C_9
REMARK    4  A    between atoms: C_14  and  C_15
REMARK    5  A    between atoms: N_17  and  C_18
REMARK    6  A    between atoms: C_18  and  C_19
REMARK    7  A    between atoms: C_19  and  C_20
REMARK    8  A    between atoms: C_20  and  C_21
REMARK    9  A    between atoms: C_21  and  N_22
REMARK                            x       y       z     vdW  Elec       q    Type
REMARK                         _______ _______ _______ _____ _____    ______ ____
ROOT
ATOM      1  C   UNL     1       2.784   5.291  18.877  0.00  0.00    +0.000 C 
ATOM      2  C   UNL     1       1.595   4.296  18.768  0.00  0.00    +0.000 C 
ATOM      3  C   UNL     1       0.791   4.345  20.037  0.00  0.00    +0.000 C 
ATOM      4  C   UNL     1       1.575   3.799  21.039  0.00  0.00    +0.000 C 
ATOM      5  C   UNL     1       2.887   3.396  20.421  0.00  0.00    +0.000 C 
ATOM      6  C   UNL     1       3.634   4.716  20.069  0.00  0.00    +0.000 C 
ATOM      7  C   UNL     1       2.349   3.022  19.063  0.00  0.00    +0.000 C 
ATOM      8  C   UNL     1       1.775   1.670  18.783  0.00  0.00    +0.000 C 
ATOM      9  C   UNL     1       3.062   2.196  18.041  0.00  0.00    +0.000 C 
ENDROOT
BRANCH   1  11
ATOM     10  N   UNL     1       1.794   7.159  20.232  0.00  0.00    +0.000 N 
ATOM     11  C   UNL     1       2.382   6.745  19.066  0.00  0.00    +0.000 C 
ATOM     12  O   UNL     1       2.589   7.520  18.149  0.00  0.00    +0.000 OA
ATOM     13  H   UNL     1       1.653   6.441  20.959  0.00  0.00    +0.000 HD
BRANCH  10  18
ATOM     14  C   UNL     1      -0.015  12.375  21.816  0.00  0.00    +0.000 C 
ATOM     15  C   UNL     1       0.458  11.032  21.355  0.00  0.00    +0.000 A 
ATOM     16  C   UNL     1       0.426  10.687  20.003  0.00  0.00    +0.000 A 
ATOM     17  C   UNL     1       0.863   9.425  19.600  0.00  0.00    +0.000 A 
ATOM     18  C   UNL     1       1.338   8.489  20.550  0.00  0.00    +0.000 A 
ATOM     19  C   UNL     1       1.352   8.896  21.900  0.00  0.00    +0.000 A 
ATOM     20  N   UNL     1       0.919  10.132  22.264  0.00  0.00    +0.000 NA
ENDBRANCH  10  18
ENDBRANCH   1  11
BRANCH   6  21
ATOM     21  C   UNL     1       5.081   4.502  19.668  0.00  0.00    +0.000 C 
ATOM     22  O   UNL     1       5.510   3.366  19.518  0.00  0.00    +0.000 OA
ATOM     23  N   UNL     1       5.899   5.577  19.487  0.00  0.00    +0.000 N 
ATOM     24  H   UNL     1       5.520   6.525  19.624  0.00  0.00    +0.000 HD
BRANCH  23  25
ATOM     25  C   UNL     1       7.291   5.451  19.092  0.00  0.00    +0.000 C 
BRANCH  25  26
ATOM     26  C   UNL     1       7.852   6.816  18.667  0.00  0.00    +0.000 C 
BRANCH  26  27
ATOM     27  C   UNL     1       7.492   7.180  17.217  0.00  0.00    +0.000 C 
BRANCH  27  28
ATOM     28  C   UNL     1       7.599   5.989  16.244  0.00  0.00    +0.000 C 
BRANCH  28  29
ATOM     29  N   UNL     1       6.457   5.945  15.304  0.00  0.00    +0.000 NA
ATOM     30  C   UNL     1       5.192   5.723  16.035  0.00  0.00    +0.000 C 
ATOM     31  C   UNL     1       4.850   4.255  15.842  0.00  0.00    +0.000 C 
ATOM     32  C   UNL     1       5.208   4.100  14.388  0.00  0.00    +0.000 C 
ATOM     33  C   UNL     1       6.558   4.796  14.366  0.00  0.00    +0.000 C 
ENDBRANCH  28  29
ENDBRANCH  27  28
ENDBRANCH  26  27
ENDBRANCH  25  26
ENDBRANCH  23  25
ENDBRANCH   6  21
TORSDOF 8
ENDMDL
MODEL 7
REMARK VINA RESULT:      -8.6      3.008      4.122
REMARK  Name = 
REMARK  9 active torsions:
REMARK  status: ('A' for Active; 'I' for Inactive)
REMARK    1  A    between atoms: C_1  and  C_2
REMARK    2  A    between atoms: C_5  and  N_6
REMARK    3  A    between atoms: C_7  and  C_9
REMARK    4  A    between atoms: C_14  and  C_15
REMARK    5  A    between atoms: N_17  and  C_18
REMARK    6  A    between atoms: C_18  and  C_19
REMARK    7  A    between atoms: C_19  and  C_20
REMARK    8  A    between atoms: C_20  and  C_21
REMARK    9  A    between atoms: C_21  and  N_22
REMARK                            x       y       z     vdW  Elec       q    Type
REMARK                         _______ _______ _______ _____ _____    ______ ____
ROOT
ATOM      1  C   UNL     1       2.753   5.306  18.990  0.00  0.00    +0.000 C 
ATOM      2  C   UNL     1       1.514   4.380  18.830  0.00  0.00    +0.000 C 
ATOM      3  C   UNL     1       0.755   4.342  20.126  0.00  0.00    +0.000 C 
ATOM      4  C   UNL     1       1.544   3.666  21.042  0.00  0.00    +0.000 C 
ATOM      5  C   UNL     1       2.813   3.267  20.340  0.00  0.00    +0.000 C 
ATOM      6  C   UNL     1       3.612   4.579  20.090  0.00  0.00    +0.000 C 
ATOM      7  C   UNL     1       2.215   3.052  18.974  0.00  0.00    +0.000 C 
ATOM      8  C   UNL     1       1.567   1.760  18.586  0.00  0.00    +0.000 C 
ATOM      9  C   UNL     1       2.853   2.298  17.851  0.00  0.00    +0.000 C 
ENDROOT
BRANCH   1  11
ATOM     10  N   UNL     1       2.060   7.633  18.351  0.00  0.00    +0.000 N 
ATOM     11  C   UNL     1       2.428   6.751  19.332  0.00  0.00    +0.000 C 
ATOM     12  O   UNL     1       2.516   7.097  20.497  0.00  0.00    +0.000 OA
ATOM     13  H   UNL     1       2.009   7.262  17.390  0.00  0.00    +0.000 HD
BRANCH  10  18
ATOM     14  C   UNL     1       0.541  13.115  19.150  0.00  0.00    +0.000 C 
ATOM     15  C   UNL     1       0.981  11.702  18.921  0.00  0.00    +0.000 A 
ATOM     16  C   UNL     1       2.046  11.413  18.067  0.00  0.00    +0.000 A 
ATOM     17  C   UNL     1       2.429  10.088  17.863  0.00  0.00    +0.000 A 
ATOM     18  C   UNL     1       1.747   9.031  18.512  0.00  0.00    +0.000 A 
ATOM     19  C   UNL     1       0.683   9.384  19.368  0.00  0.00    +0.000 A 
ATOM     20  N   UNL     1       0.331  10.685  19.547  0.00  0.00    +0.000 NA
ENDBRANCH  10  18
ENDBRANCH   1  11
BRANCH   6  21
ATOM     21  C   UNL     1       5.033   4.340  19.617  0.00  0.00    +0.000 C 
ATOM     22  O   UNL     1       5.445   3.197  19.480  0.00  0.00    +0.000 OA
ATOM     23  N   UNL     1       5.848   5.403  19.358  0.00  0.00    +0.000 N 
ATOM     24  H   UNL     1       5.483   6.358  19.485  0.00  0.00    +0.000 HD
BRANCH  23  25
ATOM     25  C   UNL     1       7.215   5.252  18.892  0.00  0.00    +0.000 C 
BRANCH  25  26
ATOM     26  C   UNL     1       7.807   6.621  18.522  0.00  0.00    +0.000 C 
BRANCH  26  27
ATOM     27  C   UNL     1       7.381   7.093  17.122  0.00  0.00    +0.000 C 
BRANCH  27  28
ATOM     28  C   UNL     1       5.875   6.909  16.848  0.00  0.00    +0.000 C 
BRANCH  28  29
ATOM     29  N   UNL     1       5.634   6.120  15.619  0.00  0.00    +0.000 NA
ATOM     30  C   UNL     1       4.745   4.976  15.903  0.00  0.00    +0.000 C 
ATOM     31  C   UNL     1       5.648   3.756  15.992  0.00  0.00    +0.000 C 
ATOM     32  C   UNL     1       6.576   4.044  14.840  0.00  0.00    +0.000 C 
ATOM     33  C   UNL     1       6.886   5.507  15.103  0.00  0.00    +0.000 C 
ENDBRANCH  28  29
ENDBRANCH  27  28
ENDBRANCH  26  27
ENDBRANCH  25  26
ENDBRANCH  23  25
ENDBRANCH   6  21
TORSDOF 8
ENDMDL
MODEL 8
REMARK VINA RESULT:      -8.6      2.788      3.958
REMARK  Name = 
REMARK  9 active torsions:
REMARK  status: ('A' for Active; 'I' for Inactive)
REMARK    1  A    between atoms: C_1  and  C_2
REMARK    2  A    between atoms: C_5  and  N_6
REMARK    3  A    between atoms: C_7  and  C_9
REMARK    4  A    between atoms: C_14  and  C_15
REMARK    5  A    between atoms: N_17  and  C_18
REMARK    6  A    between atoms: C_18  and  C_19
REMARK    7  A    between atoms: C_19  and  C_20
REMARK    8  A    between atoms: C_20  and  C_21
REMARK    9  A    between atoms: C_21  and  N_22
REMARK                            x       y       z     vdW  Elec       q    Type
REMARK                         _______ _______ _______ _____ _____    ______ ____
ROOT
ATOM      1  C   UNL     1       2.684   5.107  18.832  0.00  0.00    +0.000 C 
ATOM      2  C   UNL     1       1.493   4.114  18.729  0.00  0.00    +0.000 C 
ATOM      3  C   UNL     1       0.693   4.167  20.000  0.00  0.00    +0.000 C 
ATOM      4  C   UNL     1       1.480   3.620  21.001  0.00  0.00    +0.000 C 
ATOM      5  C   UNL     1       2.788   3.214  20.377  0.00  0.00    +0.000 C 
ATOM      6  C   UNL     1       3.537   4.531  20.022  0.00  0.00    +0.000 C 
ATOM      7  C   UNL     1       2.245   2.840  19.022  0.00  0.00    +0.000 C 
ATOM      8  C   UNL     1       1.667   1.488  18.745  0.00  0.00    +0.000 C 
ATOM      9  C   UNL     1       2.952   2.011  17.998  0.00  0.00    +0.000 C 
ENDROOT
BRANCH   1  11
ATOM     10  N   UNL     1       1.863   7.016  20.243  0.00  0.00    +0.000 N 
ATOM     11  C   UNL     1       2.285   6.562  19.021  0.00  0.00    +0.000 C 
ATOM     12  O   UNL     1       2.344   7.302  18.054  0.00  0.00    +0.000 OA
ATOM     13  H   UNL     1       1.841   6.326  21.010  0.00  0.00    +0.000 HD
BRANCH  10  18
ATOM     14  C   UNL     1       0.213  12.424  21.251  0.00  0.00    +0.000 C 
ATOM     15  C   UNL     1       0.628  11.002  21.035  0.00  0.00    +0.000 A 
ATOM     16  C   UNL     1       0.750  10.121  22.111  0.00  0.00    +0.000 A 
ATOM     17  C   UNL     1       1.148   8.804  21.883  0.00  0.00    +0.000 A 
ATOM     18  C   UNL     1       1.431   8.351  20.572  0.00  0.00    +0.000 A 
ATOM     19  C   UNL     1       1.284   9.284  19.526  0.00  0.00    +0.000 A 
ATOM     20  N   UNL     1       0.896  10.563  19.777  0.00  0.00    +0.000 NA
ENDBRANCH  10  18
ENDBRANCH   1  11
BRANCH   6  21
ATOM     21  C   UNL     1       4.982   4.314  19.615  0.00  0.00    +0.000 C 
ATOM     22  O   UNL     1       5.433   3.179  19.553  0.00  0.00    +0.000 OA
ATOM     23  N   UNL     1       5.774   5.388  19.333  0.00  0.00    +0.000 N 
ATOM     24  H   UNL     1       5.376   6.336  19.397  0.00  0.00    +0.000 HD
BRANCH  23  25
ATOM     25  C   UNL     1       7.163   5.257  18.926  0.00  0.00    +0.000 C 
BRANCH  25  26
ATOM     26  C   UNL     1       7.746   6.632  18.570  0.00  0.00    +0.000 C 
BRANCH  26  27
ATOM     27  C   UNL     1       7.397   7.072  17.138  0.00  0.00    +0.000 C 
BRANCH  27  28
ATOM     28  C   UNL     1       5.899   6.927  16.803  0.00  0.00    +0.000 C 
BRANCH  28  29
ATOM     29  N   UNL     1       5.687   6.111  15.586  0.00  0.00    +0.000 NA
ATOM     30  C   UNL     1       4.715   5.030  15.850  0.00  0.00    +0.000 C 
ATOM     31  C   UNL     1       5.537   3.764  16.033  0.00  0.00    +0.000 C 
ATOM     32  C   UNL     1       6.549   3.958  14.933  0.00  0.00    +0.000 C 
ATOM     33  C   UNL     1       6.929   5.409  15.169  0.00  0.00    +0.000 C 
ENDBRANCH  28  29
ENDBRANCH  27  28
ENDBRANCH  26  27
ENDBRANCH  25  26
ENDBRANCH  23  25
ENDBRANCH   6  21
TORSDOF 8
ENDMDL
MODEL 9
REMARK VINA RESULT:      -8.5      3.142      4.403
REMARK  Name = 
REMARK  9 active torsions:
REMARK  status: ('A' for Active; 'I' for Inactive)
REMARK    1  A    between atoms: C_1  and  C_2
REMARK    2  A    between atoms: C_5  and  N_6
REMARK    3  A    between atoms: C_7  and  C_9
REMARK    4  A    between atoms: C_14  and  C_15
REMARK    5  A    between atoms: N_17  and  C_18
REMARK    6  A    between atoms: C_18  and  C_19
REMARK    7  A    between atoms: C_19  and  C_20
REMARK    8  A    between atoms: C_20  and  C_21
REMARK    9  A    between atoms: C_21  and  N_22
REMARK                            x       y       z     vdW  Elec       q    Type
REMARK                         _______ _______ _______ _____ _____    ______ ____
ROOT
ATOM      1  C   UNL     1       2.729   5.369  18.745  0.00  0.00    +0.000 C 
ATOM      2  C   UNL     1       1.589   4.313  18.729  0.00  0.00    +0.000 C 
ATOM      3  C   UNL     1       0.874   4.338  20.051  0.00  0.00    +0.000 C 
ATOM      4  C   UNL     1       1.754   3.845  21.001  0.00  0.00    +0.000 C 
ATOM      5  C   UNL     1       3.038   3.502  20.295  0.00  0.00    +0.000 C 
ATOM      6  C   UNL     1       3.689   4.853  19.880  0.00  0.00    +0.000 C 
ATOM      7  C   UNL     1       2.427   3.084  18.982  0.00  0.00    +0.000 C 
ATOM      8  C   UNL     1       1.905   1.700  18.755  0.00  0.00    +0.000 C 
ATOM      9  C   UNL     1       3.109   2.283  17.920  0.00  0.00    +0.000 C 
ENDROOT
BRANCH   1  11
ATOM     10  N   UNL     1       1.852   7.233  20.182  0.00  0.00    +0.000 N 
ATOM     11  C   UNL     1       2.267   6.803  18.949  0.00  0.00    +0.000 C 
ATOM     12  O   UNL     1       2.267   7.547  17.984  0.00  0.00    +0.000 OA
ATOM     13  H   UNL     1       1.881   6.541  20.947  0.00  0.00    +0.000 HD
BRANCH  10  18
ATOM     14  C   UNL     1      -0.092  12.368  21.867  0.00  0.00    +0.000 C 
ATOM     15  C   UNL     1       0.418  11.048  21.380  0.00  0.00    +0.000 A 
ATOM     16  C   UNL     1       0.454  10.752  20.017  0.00  0.00    +0.000 A 
ATOM     17  C   UNL     1       0.924   9.511  19.590  0.00  0.00    +0.000 A 
ATOM     18  C   UNL     1       1.365   8.545  20.526  0.00  0.00    +0.000 A 
ATOM     19  C   UNL     1       1.312   8.902  21.889  0.00  0.00    +0.000 A 
ATOM     20  N   UNL     1       0.848  10.120  22.277  0.00  0.00    +0.000 NA
ENDBRANCH  10  18
ENDBRANCH   1  11
BRANCH   6  21
ATOM     21  C   UNL     1       5.114   4.709  19.380  0.00  0.00    +0.000 C 
ATOM     22  O   UNL     1       5.709   3.651  19.535  0.00  0.00    +0.000 OA
ATOM     23  N   UNL     1       5.728   5.763  18.771  0.00  0.00    +0.000 N 
ATOM     24  H   UNL     1       5.210   6.647  18.655  0.00  0.00    +0.000 HD
BRANCH  23  25
ATOM     25  C   UNL     1       7.084   5.695  18.257  0.00  0.00    +0.000 C 
BRANCH  25  26
ATOM     26  C   UNL     1       7.081   5.199  16.804  0.00  0.00    +0.000 C 
BRANCH  26  27
ATOM     27  C   UNL     1       6.028   5.909  15.936  0.00  0.00    +0.000 C 
BRANCH  27  28
ATOM     28  C   UNL     1       5.469   5.022  14.806  0.00  0.00    +0.000 C 
BRANCH  28  29
ATOM     29  N   UNL     1       6.527   4.190  14.189  0.00  0.00    +0.000 NA
ATOM     30  C   UNL     1       7.607   5.040  13.649  0.00  0.00    +0.000 C 
ATOM     31  C   UNL     1       7.380   5.100  12.147  0.00  0.00    +0.000 C 
ATOM     32  C   UNL     1       7.011   3.663  11.889  0.00  0.00    +0.000 C 
ATOM     33  C   UNL     1       6.018   3.432  13.015  0.00  0.00    +0.000 C 
ENDBRANCH  28  29
ENDBRANCH  27  28
ENDBRANCH  26  27
ENDBRANCH  25  26
ENDBRANCH  23  25
ENDBRANCH   6  21
TORSDOF 8
ENDMDL
