MODEL 1
REMARK VINA RESULT:      -7.6      0.000      0.000
REMARK  Name = 
REMARK  5 active torsions:
REMARK  status: ('A' for Active; 'I' for Inactive)
REMARK    1  A    between atoms: C_1  and  C_2
REMARK    2  A    between atoms: C_8  and  C_9
REMARK    3  A    between atoms: N_13  and  C_14
REMARK    4  A    between atoms: C_14  and  C_15
REMARK    5  A    between atoms: C_15  and  O_17
REMARK                            x       y       z     vdW  Elec       q    Type
REMARK                         _______ _______ _______ _____ _____    ______ ____
ROOT
ATOM      1  C   UNL     1       0.644   2.481  18.888  0.00  0.00    +0.000 C 
ATOM      2  C   UNL     1       1.874   3.147  18.342  0.00  0.00    +0.000 A 
ATOM      3  C   UNL     1       2.924   2.406  17.809  0.00  0.00    +0.000 A 
ATOM      4  C   UNL     1       4.052   3.052  17.296  0.00  0.00    +0.000 A 
ATOM      5  C   UNL     1       4.154   4.453  17.305  0.00  0.00    +0.000 A 
ATOM      6  C   UNL     1       3.102   5.217  17.867  0.00  0.00    +0.000 A 
ATOM      7  C   UNL     1       1.969   4.544  18.358  0.00  0.00    +0.000 A 
ATOM      8  C   UNL     1       3.226   6.686  17.946  0.00  0.00    +0.000 A 
ATOM      9  C   UNL     1       2.205   7.571  18.610  0.00  0.00    +0.000 C 
ATOM     10  C   UNL     1       4.325   7.257  17.433  0.00  0.00    +0.000 A 
ATOM     11  C   UNL     1       5.414   6.501  16.787  0.00  0.00    +0.000 A 
ATOM     12  O   UNL     1       6.373   7.129  16.346  0.00  0.00    +0.000 OA
ATOM     13  N   UNL     1       5.290   5.118  16.733  0.00  0.00    +0.000 N 
ENDROOT
BRANCH  13  14
ATOM     14  C   UNL     1       6.452   4.365  16.230  0.00  0.00    +0.000 C 
BRANCH  14  15
ATOM     15  C   UNL     1       6.755   4.419  14.731  0.00  0.00    +0.000 C 
ATOM     16  O   UNL     1       6.192   3.709  13.911  0.00  0.00    +0.000 OA
BRANCH  15  17
ATOM     17  O   UNL     1       7.684   5.336  14.367  0.00  0.00    +0.000 OA
ATOM     18  H   UNL     1       7.430   5.819  13.555  0.00  0.00    +0.000 HD
ENDBRANCH  15  17
ENDBRANCH  14  15
ENDBRANCH  13  14
TORSDOF 3
ENDMDL
MODEL 2
REMARK VINA RESULT:      -7.4      1.050      1.208
REMARK  Name = 
REMARK  5 active torsions:
REMARK  status: ('A' for Active; 'I' for Inactive)
REMARK    1  A    between atoms: C_1  and  C_2
REMARK    2  A    between atoms: C_8  and  C_9
REMARK    3  A    between atoms: N_13  and  C_14
REMARK    4  A    between atoms: C_14  and  C_15
REMARK    5  A    between atoms: C_15  and  O_17
REMARK                            x       y       z     vdW  Elec       q    Type
REMARK                         _______ _______ _______ _____ _____    ______ ____
ROOT
ATOM      1  C   UNL     1       1.021   2.889  20.460  0.00  0.00    +0.000 C 
ATOM      2  C   UNL     1       2.009   3.430  19.468  0.00  0.00    +0.000 A 
ATOM      3  C   UNL     1       2.878   2.590  18.778  0.00  0.00    +0.000 A 
ATOM      4  C   UNL     1       3.779   3.119  17.850  0.00  0.00    +0.000 A 
ATOM      5  C   UNL     1       3.831   4.499  17.592  0.00  0.00    +0.000 A 
ATOM      6  C   UNL     1       2.968   5.366  18.306  0.00  0.00    +0.000 A 
ATOM      7  C   UNL     1       2.056   4.807  19.220  0.00  0.00    +0.000 A 
ATOM      8  C   UNL     1       3.059   6.826  18.097  0.00  0.00    +0.000 A 
ATOM      9  C   UNL     1       2.252   7.828  18.877  0.00  0.00    +0.000 C 
ATOM     10  C   UNL     1       3.936   7.281  17.190  0.00  0.00    +0.000 A 
ATOM     11  C   UNL     1       4.808   6.407  16.385  0.00  0.00    +0.000 A 
ATOM     12  O   UNL     1       5.570   6.934  15.579  0.00  0.00    +0.000 OA
ATOM     13  N   UNL     1       4.721   5.037  16.603  0.00  0.00    +0.000 N 
ENDROOT
BRANCH  13  14
ATOM     14  C   UNL     1       5.707   4.189  15.910  0.00  0.00    +0.000 C 
BRANCH  14  15
ATOM     15  C   UNL     1       7.184   4.581  15.994  0.00  0.00    +0.000 C 
ATOM     16  O   UNL     1       7.875   4.370  16.979  0.00  0.00    +0.000 OA
BRANCH  15  17
ATOM     17  O   UNL     1       7.685   5.165  14.879  0.00  0.00    +0.000 OA
ATOM     18  H   UNL     1       8.643   5.349  14.956  0.00  0.00    +0.000 HD
ENDBRANCH  15  17
ENDBRANCH  14  15
ENDBRANCH  13  14
TORSDOF 3
ENDMDL
MODEL 3
REMARK VINA RESULT:      -7.0      3.759      5.735
REMARK  Name = 
REMARK  5 active torsions:
REMARK  status: ('A' for Active; 'I' for Inactive)
REMARK    1  A    between atoms: C_1  and  C_2
REMARK    2  A    between atoms: C_8  and  C_9
REMARK    3  A    between atoms: N_13  and  C_14
REMARK    4  A    between atoms: C_14  and  C_15
REMARK    5  A    between atoms: C_15  and  O_17
REMARK                            x       y       z     vdW  Elec       q    Type
REMARK                         _______ _______ _______ _____ _____    ______ ____
ROOT
ATOM      1  C   UNL     1       2.010   9.544  17.896  0.00  0.00    +0.000 C 
ATOM      2  C   UNL     1       2.323   8.184  18.449  0.00  0.00    +0.000 A 
ATOM      3  C   UNL     1       1.845   7.780  19.691  0.00  0.00    +0.000 A 
ATOM      4  C   UNL     1       2.140   6.503  20.177  0.00  0.00    +0.000 A 
ATOM      5  C   UNL     1       2.919   5.603  19.431  0.00  0.00    +0.000 A 
ATOM      6  C   UNL     1       3.431   6.013  18.175  0.00  0.00    +0.000 A 
ATOM      7  C   UNL     1       3.103   7.295  17.700  0.00  0.00    +0.000 A 
ATOM      8  C   UNL     1       4.309   5.104  17.411  0.00  0.00    +0.000 A 
ATOM      9  C   UNL     1       4.975   5.486  16.116  0.00  0.00    +0.000 C 
ATOM     10  C   UNL     1       4.555   3.887  17.918  0.00  0.00    +0.000 A 
ATOM     11  C   UNL     1       3.992   3.403  19.192  0.00  0.00    +0.000 A 
ATOM     12  O   UNL     1       4.281   2.267  19.557  0.00  0.00    +0.000 OA
ATOM     13  N   UNL     1       3.180   4.274  19.907  0.00  0.00    +0.000 N 
ENDROOT
BRANCH  13  14
ATOM     14  C   UNL     1       2.755   3.839  21.249  0.00  0.00    +0.000 C 
BRANCH  14  15
ATOM     15  C   UNL     1       1.474   3.009  21.367  0.00  0.00    +0.000 C 
ATOM     16  O   UNL     1       1.233   2.290  22.326  0.00  0.00    +0.000 OA
BRANCH  15  17
ATOM     17  O   UNL     1       0.607   3.144  20.336  0.00  0.00    +0.000 OA
ATOM     18  H   UNL     1      -0.169   2.554  20.424  0.00  0.00    +0.000 HD
ENDBRANCH  15  17
ENDBRANCH  14  15
ENDBRANCH  13  14
TORSDOF 3
ENDMDL
MODEL 4
REMARK VINA RESULT:      -7.0      1.751      1.909
REMARK  Name = 
REMARK  5 active torsions:
REMARK  status: ('A' for Active; 'I' for Inactive)
REMARK    1  A    between atoms: C_1  and  C_2
REMARK    2  A    between atoms: C_8  and  C_9
REMARK    3  A    between atoms: N_13  and  C_14
REMARK    4  A    between atoms: C_14  and  C_15
REMARK    5  A    between atoms: C_15  and  O_17
REMARK                            x       y       z     vdW  Elec       q    Type
REMARK                         _______ _______ _______ _____ _____    ______ ____
ROOT
ATOM      1  C   UNL     1       2.173   2.556  21.778  0.00  0.00    +0.000 C 
ATOM      2  C   UNL     1       2.831   3.185  20.585  0.00  0.00    +0.000 A 
ATOM      3  C   UNL     1       3.699   2.463  19.772  0.00  0.00    +0.000 A 
ATOM      4  C   UNL     1       4.288   3.070  18.659  0.00  0.00    +0.000 A 
ATOM      5  C   UNL     1       4.023   4.411  18.336  0.00  0.00    +0.000 A 
ATOM      6  C   UNL     1       3.160   5.162  19.171  0.00  0.00    +0.000 A 
ATOM      7  C   UNL     1       2.563   4.523  20.273  0.00  0.00    +0.000 A 
ATOM      8  C   UNL     1       2.926   6.592  18.884  0.00  0.00    +0.000 A 
ATOM      9  C   UNL     1       2.103   7.492  19.767  0.00  0.00    +0.000 C 
ATOM     10  C   UNL     1       3.510   7.124  17.800  0.00  0.00    +0.000 A 
ATOM     11  C   UNL     1       4.365   6.360  16.875  0.00  0.00    +0.000 A 
ATOM     12  O   UNL     1       4.845   6.949  15.910  0.00  0.00    +0.000 OA
ATOM     13  N   UNL     1       4.588   5.020  17.166  0.00  0.00    +0.000 N 
ENDROOT
BRANCH  13  14
ATOM     14  C   UNL     1       5.570   4.310  16.326  0.00  0.00    +0.000 C 
BRANCH  14  15
ATOM     15  C   UNL     1       7.053   4.638  16.515  0.00  0.00    +0.000 C 
ATOM     16  O   UNL     1       7.667   5.393  15.776  0.00  0.00    +0.000 OA
BRANCH  15  17
ATOM     17  O   UNL     1       7.639   4.044  17.582  0.00  0.00    +0.000 OA
ATOM     18  H   UNL     1       7.178   4.250  18.420  0.00  0.00    +0.000 HD
ENDBRANCH  15  17
ENDBRANCH  14  15
ENDBRANCH  13  14
TORSDOF 3
ENDMDL
MODEL 5
REMARK VINA RESULT:      -6.9      2.256      4.148
REMARK  Name = 
REMARK  5 active torsions:
REMARK  status: ('A' for Active; 'I' for Inactive)
REMARK    1  A    between atoms: C_1  and  C_2
REMARK    2  A    between atoms: C_8  and  C_9
REMARK    3  A    between atoms: N_13  and  C_14
REMARK    4  A    between atoms: C_14  and  C_15
REMARK    5  A    between atoms: C_15  and  O_17
REMARK                            x       y       z     vdW  Elec       q    Type
REMARK                         _______ _______ _______ _____ _____    ______ ____
ROOT
ATOM      1  C   UNL     1       1.299   8.094  21.030  0.00  0.00    +0.000 C 
ATOM      2  C   UNL     1       1.896   6.976  20.226  0.00  0.00    +0.000 A 
ATOM      3  C   UNL     1       2.597   7.223  19.050  0.00  0.00    +0.000 A 
ATOM      4  C   UNL     1       3.153   6.164  18.327  0.00  0.00    +0.000 A 
ATOM      5  C   UNL     1       3.021   4.836  18.764  0.00  0.00    +0.000 A 
ATOM      6  C   UNL     1       2.289   4.570  19.947  0.00  0.00    +0.000 A 
ATOM      7  C   UNL     1       1.756   5.655  20.668  0.00  0.00    +0.000 A 
ATOM      8  C   UNL     1       2.082   3.174  20.382  0.00  0.00    +0.000 A 
ATOM      9  C   UNL     1       1.240   2.790  21.570  0.00  0.00    +0.000 C 
ATOM     10  C   UNL     1       2.643   2.196  19.657  0.00  0.00    +0.000 A 
ATOM     11  C   UNL     1       3.461   2.436  18.454  0.00  0.00    +0.000 A 
ATOM     12  O   UNL     1       3.931   1.463  17.870  0.00  0.00    +0.000 OA
ATOM     13  N   UNL     1       3.635   3.753  18.049  0.00  0.00    +0.000 N 
ENDROOT
BRANCH  13  14
ATOM     14  C   UNL     1       4.317   3.970  16.761  0.00  0.00    +0.000 C 
BRANCH  14  15
ATOM     15  C   UNL     1       5.838   4.149  16.771  0.00  0.00    +0.000 C 
ATOM     16  O   UNL     1       6.486   4.393  15.764  0.00  0.00    +0.000 OA
BRANCH  15  17
ATOM     17  O   UNL     1       6.420   4.040  17.989  0.00  0.00    +0.000 OA
ATOM     18  H   UNL     1       6.895   4.855  18.247  0.00  0.00    +0.000 HD
ENDBRANCH  15  17
ENDBRANCH  14  15
ENDBRANCH  13  14
TORSDOF 3
ENDMDL
MODEL 6
REMARK VINA RESULT:      -6.8      1.358      1.358
REMARK  Name = 
REMARK  5 active torsions:
REMARK  status: ('A' for Active; 'I' for Inactive)
REMARK    1  A    between atoms: C_1  and  C_2
REMARK    2  A    between atoms: C_8  and  C_9
REMARK    3  A    between atoms: N_13  and  C_14
REMARK    4  A    between atoms: C_14  and  C_15
REMARK    5  A    between atoms: C_15  and  O_17
REMARK                            x       y       z     vdW  Elec       q    Type
REMARK                         _______ _______ _______ _____ _____    ______ ____
ROOT
ATOM      1  C   UNL     1       1.778   2.991  21.410  0.00  0.00    +0.000 C 
ATOM      2  C   UNL     1       2.714   3.574  20.391  0.00  0.00    +0.000 A 
ATOM      3  C   UNL     1       3.827   2.870  19.943  0.00  0.00    +0.000 A 
ATOM      4  C   UNL     1       4.675   3.432  18.984  0.00  0.00    +0.000 A 
ATOM      5  C   UNL     1       4.429   4.709  18.454  0.00  0.00    +0.000 A 
ATOM      6  C   UNL     1       3.312   5.445  18.921  0.00  0.00    +0.000 A 
ATOM      7  C   UNL     1       2.462   4.849  19.871  0.00  0.00    +0.000 A 
ATOM      8  C   UNL     1       3.079   6.816  18.424  0.00  0.00    +0.000 A 
ATOM      9  C   UNL     1       1.977   7.707  18.932  0.00  0.00    +0.000 C 
ATOM     10  C   UNL     1       3.918   7.305  17.500  0.00  0.00    +0.000 A 
ATOM     11  C   UNL     1       5.056   6.548  16.946  0.00  0.00    +0.000 A 
ATOM     12  O   UNL     1       5.757   7.094  16.098  0.00  0.00    +0.000 OA
ATOM     13  N   UNL     1       5.271   5.265  17.433  0.00  0.00    +0.000 N 
ENDROOT
BRANCH  13  14
ATOM     14  C   UNL     1       6.499   4.581  16.991  0.00  0.00    +0.000 C 
BRANCH  14  15
ATOM     15  C   UNL     1       6.726   4.405  15.487  0.00  0.00    +0.000 C 
ATOM     16  O   UNL     1       6.110   3.595  14.811  0.00  0.00    +0.000 OA
BRANCH  15  17
ATOM     17  O   UNL     1       7.651   5.234  14.947  0.00  0.00    +0.000 OA
ATOM     18  H   UNL     1       8.035   4.873  14.123  0.00  0.00    +0.000 HD
ENDBRANCH  15  17
ENDBRANCH  14  15
ENDBRANCH  13  14
TORSDOF 3
ENDMDL
MODEL 7
REMARK VINA RESULT:      -6.8      1.694      2.087
REMARK  Name = 
REMARK  5 active torsions:
REMARK  status: ('A' for Active; 'I' for Inactive)
REMARK    1  A    between atoms: C_1  and  C_2
REMARK    2  A    between atoms: C_8  and  C_9
REMARK    3  A    between atoms: N_13  and  C_14
REMARK    4  A    between atoms: C_14  and  C_15
REMARK    5  A    between atoms: C_15  and  O_17
REMARK                            x       y       z     vdW  Elec       q    Type
REMARK                         _______ _______ _______ _____ _____    ______ ____
ROOT
ATOM      1  C   UNL     1       0.899   3.426  20.764  0.00  0.00    +0.000 C 
ATOM      2  C   UNL     1       2.029   3.892  19.893  0.00  0.00    +0.000 A 
ATOM      3  C   UNL     1       3.100   3.058  19.586  0.00  0.00    +0.000 A 
ATOM      4  C   UNL     1       4.132   3.514  18.762  0.00  0.00    +0.000 A 
ATOM      5  C   UNL     1       4.117   4.813  18.228  0.00  0.00    +0.000 A 
ATOM      6  C   UNL     1       3.045   5.678  18.553  0.00  0.00    +0.000 A 
ATOM      7  C   UNL     1       2.007   5.190  19.367  0.00  0.00    +0.000 A 
ATOM      8  C   UNL     1       3.050   7.069  18.055  0.00  0.00    +0.000 A 
ATOM      9  C   UNL     1       2.005   8.087  18.426  0.00  0.00    +0.000 C 
ATOM     10  C   UNL     1       4.060   7.454  17.262  0.00  0.00    +0.000 A 
ATOM     11  C   UNL     1       5.162   6.564  16.853  0.00  0.00    +0.000 A 
ATOM     12  O   UNL     1       6.034   7.023  16.119  0.00  0.00    +0.000 OA
ATOM     13  N   UNL     1       5.152   5.264  17.341  0.00  0.00    +0.000 N 
ENDROOT
BRANCH  13  14
ATOM     14  C   UNL     1       6.337   4.436  17.056  0.00  0.00    +0.000 C 
BRANCH  14  15
ATOM     15  C   UNL     1       7.528   4.524  18.014  0.00  0.00    +0.000 C 
ATOM     16  O   UNL     1       8.626   4.052  17.758  0.00  0.00    +0.000 OA
BRANCH  15  17
ATOM     17  O   UNL     1       7.285   5.189  19.169  0.00  0.00    +0.000 OA
ATOM     18  H   UNL     1       6.881   6.067  19.014  0.00  0.00    +0.000 HD
ENDBRANCH  15  17
ENDBRANCH  14  15
ENDBRANCH  13  14
TORSDOF 3
ENDMDL
MODEL 8
REMARK VINA RESULT:      -6.7      1.542      1.878
REMARK  Name = 
REMARK  5 active torsions:
REMARK  status: ('A' for Active; 'I' for Inactive)
REMARK    1  A    between atoms: C_1  and  C_2
REMARK    2  A    between atoms: C_8  and  C_9
REMARK    3  A    between atoms: N_13  and  C_14
REMARK    4  A    between atoms: C_14  and  C_15
REMARK    5  A    between atoms: C_15  and  O_17
REMARK                            x       y       z     vdW  Elec       q    Type
REMARK                         _______ _______ _______ _____ _____    ______ ____
ROOT
ATOM      1  C   UNL     1       0.810   2.449  18.788  0.00  0.00    +0.000 C 
ATOM      2  C   UNL     1       2.027   3.213  18.355  0.00  0.00    +0.000 A 
ATOM      3  C   UNL     1       3.225   2.566  18.070  0.00  0.00    +0.000 A 
ATOM      4  C   UNL     1       4.340   3.301  17.657  0.00  0.00    +0.000 A 
ATOM      5  C   UNL     1       4.281   4.697  17.521  0.00  0.00    +0.000 A 
ATOM      6  C   UNL     1       3.074   5.369  17.832  0.00  0.00    +0.000 A 
ATOM      7  C   UNL     1       1.960   4.606  18.226  0.00  0.00    +0.000 A 
ATOM      8  C   UNL     1       3.017   6.844  17.760  0.00  0.00    +0.000 A 
ATOM      9  C   UNL     1       1.810   7.648  18.162  0.00  0.00    +0.000 C 
ATOM     10  C   UNL     1       4.112   7.500  17.351  0.00  0.00    +0.000 A 
ATOM     11  C   UNL     1       5.367   6.832  16.962  0.00  0.00    +0.000 A 
ATOM     12  O   UNL     1       6.307   7.534  16.597  0.00  0.00    +0.000 OA
ATOM     13  N   UNL     1       5.411   5.447  17.048  0.00  0.00    +0.000 N 
ENDROOT
BRANCH  13  14
ATOM     14  C   UNL     1       6.716   4.805  16.810  0.00  0.00    +0.000 C 
BRANCH  14  15
ATOM     15  C   UNL     1       7.729   4.781  17.958  0.00  0.00    +0.000 C 
ATOM     16  O   UNL     1       7.672   5.543  18.912  0.00  0.00    +0.000 OA
BRANCH  15  17
ATOM     17  O   UNL     1       8.691   3.834  17.853  0.00  0.00    +0.000 OA
ATOM     18  H   UNL     1       9.350   3.894  18.574  0.00  0.00    +0.000 HD
ENDBRANCH  15  17
ENDBRANCH  14  15
ENDBRANCH  13  14
TORSDOF 3
ENDMDL
MODEL 9
REMARK VINA RESULT:      -6.7      2.139      2.715
REMARK  Name = 
REMARK  5 active torsions:
REMARK  status: ('A' for Active; 'I' for Inactive)
REMARK    1  A    between atoms: C_1  and  C_2
REMARK    2  A    between atoms: C_8  and  C_9
REMARK    3  A    between atoms: N_13  and  C_14
REMARK    4  A    between atoms: C_14  and  C_15
REMARK    5  A    between atoms: C_15  and  O_17
REMARK                            x       y       z     vdW  Elec       q    Type
REMARK                         _______ _______ _______ _____ _____    ______ ____
ROOT
ATOM      1  C   UNL     1       1.278   3.176  20.701  0.00  0.00    +0.000 C 
ATOM      2  C   UNL     1       2.446   3.824  20.016  0.00  0.00    +0.000 A 
ATOM      3  C   UNL     1       3.723   3.277  20.086  0.00  0.00    +0.000 A 
ATOM      4  C   UNL     1       4.790   3.893  19.428  0.00  0.00    +0.000 A 
ATOM      5  C   UNL     1       4.603   5.070  18.684  0.00  0.00    +0.000 A 
ATOM      6  C   UNL     1       3.312   5.650  18.625  0.00  0.00    +0.000 A 
ATOM      7  C   UNL     1       2.251   4.999  19.279  0.00  0.00    +0.000 A 
ATOM      8  C   UNL     1       3.114   6.924  17.905  0.00  0.00    +0.000 A 
ATOM      9  C   UNL     1       1.802   7.662  17.869  0.00  0.00    +0.000 C 
ATOM     10  C   UNL     1       4.169   7.470  17.284  0.00  0.00    +0.000 A 
ATOM     11  C   UNL     1       5.514   6.867  17.273  0.00  0.00    +0.000 A 
ATOM     12  O   UNL     1       6.406   7.454  16.666  0.00  0.00    +0.000 OA
ATOM     13  N   UNL     1       5.689   5.676  17.966  0.00  0.00    +0.000 N 
ENDROOT
BRANCH  13  14
ATOM     14  C   UNL     1       7.067   5.168  18.081  0.00  0.00    +0.000 C 
BRANCH  14  15
ATOM     15  C   UNL     1       7.962   5.749  19.178  0.00  0.00    +0.000 C 
ATOM     16  O   UNL     1       8.228   5.148  20.208  0.00  0.00    +0.000 OA
BRANCH  15  17
ATOM     17  O   UNL     1       8.464   6.979  18.916  0.00  0.00    +0.000 OA
ATOM     18  H   UNL     1       9.384   7.080  19.234  0.00  0.00    +0.000 HD
ENDBRANCH  15  17
ENDBRANCH  14  15
ENDBRANCH  13  14
TORSDOF 3
ENDMDL
