MODEL 1
REMARK VINA RESULT:      -7.8      0.000      0.000
REMARK  Name = 
REMARK  6 active torsions:
REMARK  status: ('A' for Active; 'I' for Inactive)
REMARK    1  A    between atoms: C_1  and  C_2
REMARK    2  A    between atoms: C_6  and  C_7
REMARK    3  A    between atoms: N_9  and  C_10
REMARK    4  A    between atoms: C_16  and  C_17
REMARK    5  A    between atoms: C_18  and  C_19
REMARK    6  A    between atoms: C_22  and  N_23
REMARK                            x       y       z     vdW  Elec       q    Type
REMARK                         _______ _______ _______ _____ _____    ______ ____
ROOT
ATOM      1  C   UNL     1       2.896   9.140  17.709  0.00  0.00    +0.000 C 
ATOM      2  C   UNL     1       2.938   7.751  18.292  0.00  0.00    +0.000 A 
ATOM      3  N   UNL     1       3.742   6.937  17.566  0.00  0.00    +0.000 NA
ATOM      4  C   UNL     1       3.859   5.673  18.006  0.00  0.00    +0.000 A 
ATOM      5  C   UNL     1       3.216   5.135  19.116  0.00  0.00    +0.000 A 
ATOM      6  C   UNL     1       3.692   3.789  19.169  0.00  0.00    +0.000 A 
ATOM      7  C   UNL     1       3.456   2.686  20.137  0.00  0.00    +0.000 C 
ATOM      8  N   UNL     1       4.518   3.507  18.158  0.00  0.00    +0.000 NA
ATOM      9  N   UNL     1       4.620   4.653  17.436  0.00  0.00    +0.000 N 
ATOM     10  C   UNL     1       2.327   5.981  19.845  0.00  0.00    +0.000 A 
ATOM     11  C   UNL     1       1.537   5.440  21.013  0.00  0.00    +0.000 C 
ATOM     12  C   UNL     1       2.196   7.366  19.442  0.00  0.00    +0.000 A 
ENDROOT
BRANCH   9  13
ATOM     13  C   UNL     1       5.439   4.657  16.261  0.00  0.00    +0.000 A 
ATOM     14  C   UNL     1       4.939   4.080  15.079  0.00  0.00    +0.000 A 
ATOM     15  C   UNL     1       5.702   4.072  13.909  0.00  0.00    +0.000 A 
ATOM     16  C   UNL     1       6.973   4.636  13.904  0.00  0.00    +0.000 A 
ATOM     17  C   UNL     1       7.483   5.206  15.071  0.00  0.00    +0.000 A 
ATOM     18  C   UNL     1       6.721   5.219  16.246  0.00  0.00    +0.000 A 
ENDBRANCH   9  13
BRANCH  12  19
ATOM     19  C   UNL     1       1.286   8.306  20.174  0.00  0.00    +0.000 A 
ATOM     20  C   UNL     1       0.313   9.069  19.492  0.00  0.00    +0.000 A 
ATOM     21  C   UNL     1      -0.417  10.090  20.119  0.00  0.00    +0.000 A 
ATOM     22  C   UNL     1      -0.278  10.290  21.489  0.00  0.00    +0.000 A 
ATOM     23  C   UNL     1       0.592   9.484  22.226  0.00  0.00    +0.000 A 
ATOM     24  C   UNL     1       1.387   8.534  21.561  0.00  0.00    +0.000 A 
BRANCH  22  25
ATOM     25  N   UNL     1      -1.030  11.361  22.152  0.00  0.00    +0.000 N 
ATOM     26  O   UNL     1      -1.016  11.400  23.392  0.00  0.00    +0.000 OA
ATOM     27  O   UNL     1      -1.658  12.150  21.429  0.00  0.00    +0.000 OA
ENDBRANCH  22  25
ENDBRANCH  12  19
TORSDOF 3
ENDMDL
MODEL 2
REMARK VINA RESULT:      -7.5      1.454      2.249
REMARK  Name = 
REMARK  6 active torsions:
REMARK  status: ('A' for Active; 'I' for Inactive)
REMARK    1  A    between atoms: C_1  and  C_2
REMARK    2  A    between atoms: C_6  and  C_7
REMARK    3  A    between atoms: N_9  and  C_10
REMARK    4  A    between atoms: C_16  and  C_17
REMARK    5  A    between atoms: C_18  and  C_19
REMARK    6  A    between atoms: C_22  and  N_23
REMARK                            x       y       z     vdW  Elec       q    Type
REMARK                         _______ _______ _______ _____ _____    ______ ____
ROOT
ATOM      1  C   UNL     1       2.433  10.172  17.523  0.00  0.00    +0.000 C 
ATOM      2  C   UNL     1       2.307   8.947  18.392  0.00  0.00    +0.000 A 
ATOM      3  N   UNL     1       3.124   7.954  17.964  0.00  0.00    +0.000 NA
ATOM      4  C   UNL     1       3.098   6.816  18.678  0.00  0.00    +0.000 A 
ATOM      5  C   UNL     1       2.298   6.570  19.789  0.00  0.00    +0.000 A 
ATOM      6  C   UNL     1       2.665   5.249  20.189  0.00  0.00    +0.000 A 
ATOM      7  C   UNL     1       2.241   4.401  21.336  0.00  0.00    +0.000 C 
ATOM      8  N   UNL     1       3.574   4.709  19.374  0.00  0.00    +0.000 NA
ATOM      9  N   UNL     1       3.841   5.660  18.440  0.00  0.00    +0.000 N 
ATOM     10  C   UNL     1       1.398   7.599  20.202  0.00  0.00    +0.000 A 
ATOM     11  C   UNL     1       0.446   7.370  21.351  0.00  0.00    +0.000 C 
ATOM     12  C   UNL     1       1.415   8.863  19.496  0.00  0.00    +0.000 A 
ENDROOT
BRANCH   9  13
ATOM     13  C   UNL     1       4.783   5.363  17.404  0.00  0.00    +0.000 A 
ATOM     14  C   UNL     1       6.014   6.045  17.386  0.00  0.00    +0.000 A 
ATOM     15  C   UNL     1       6.965   5.777  16.398  0.00  0.00    +0.000 A 
ATOM     16  C   UNL     1       6.700   4.830  15.416  0.00  0.00    +0.000 A 
ATOM     17  C   UNL     1       5.481   4.151  15.419  0.00  0.00    +0.000 A 
ATOM     18  C   UNL     1       4.525   4.413  16.409  0.00  0.00    +0.000 A 
ENDBRANCH   9  13
BRANCH  12  19
ATOM     19  C   UNL     1       0.502   9.985  19.889  0.00  0.00    +0.000 A 
ATOM     20  C   UNL     1       0.772  10.795  21.013  0.00  0.00    +0.000 A 
ATOM     21  C   UNL     1      -0.154  11.723  21.513  0.00  0.00    +0.000 A 
ATOM     22  C   UNL     1      -1.337  11.953  20.816  0.00  0.00    +0.000 A 
ATOM     23  C   UNL     1      -1.597  11.254  19.636  0.00  0.00    +0.000 A 
ATOM     24  C   UNL     1      -0.702  10.258  19.208  0.00  0.00    +0.000 A 
BRANCH  22  25
ATOM     25  N   UNL     1      -2.317  12.913  21.336  0.00  0.00    +0.000 N 
ATOM     26  O   UNL     1      -3.109  12.521  22.207  0.00  0.00    +0.000 OA
ATOM     27  O   UNL     1      -2.310  14.056  20.851  0.00  0.00    +0.000 OA
ENDBRANCH  22  25
ENDBRANCH  12  19
TORSDOF 3
ENDMDL
MODEL 3
REMARK VINA RESULT:      -7.5      1.588      2.103
REMARK  Name = 
REMARK  6 active torsions:
REMARK  status: ('A' for Active; 'I' for Inactive)
REMARK    1  A    between atoms: C_1  and  C_2
REMARK    2  A    between atoms: C_6  and  C_7
REMARK    3  A    between atoms: N_9  and  C_10
REMARK    4  A    between atoms: C_16  and  C_17
REMARK    5  A    between atoms: C_18  and  C_19
REMARK    6  A    between atoms: C_22  and  N_23
REMARK                            x       y       z     vdW  Elec       q    Type
REMARK                         _______ _______ _______ _____ _____    ______ ____
ROOT
ATOM      1  C   UNL     1       2.227  10.280  17.556  0.00  0.00    +0.000 C 
ATOM      2  C   UNL     1       2.138   9.051  18.425  0.00  0.00    +0.000 A 
ATOM      3  N   UNL     1       2.883   8.038  17.920  0.00  0.00    +0.000 NA
ATOM      4  C   UNL     1       2.883   6.894  18.625  0.00  0.00    +0.000 A 
ATOM      5  C   UNL     1       2.175   6.662  19.799  0.00  0.00    +0.000 A 
ATOM      6  C   UNL     1       2.534   5.326  20.157  0.00  0.00    +0.000 A 
ATOM      7  C   UNL     1       2.185   4.481  21.329  0.00  0.00    +0.000 C 
ATOM      8  N   UNL     1       3.351   4.767  19.262  0.00  0.00    +0.000 NA
ATOM      9  N   UNL     1       3.566   5.718  18.315  0.00  0.00    +0.000 N 
ATOM     10  C   UNL     1       1.347   7.714  20.297  0.00  0.00    +0.000 A 
ATOM     11  C   UNL     1       0.492   7.503  21.522  0.00  0.00    +0.000 C 
ATOM     12  C   UNL     1       1.343   8.984  19.601  0.00  0.00    +0.000 A 
ENDROOT
BRANCH   9  13
ATOM     13  C   UNL     1       4.405   5.403  17.198  0.00  0.00    +0.000 A 
ATOM     14  C   UNL     1       4.723   4.055  16.943  0.00  0.00    +0.000 A 
ATOM     15  C   UNL     1       5.529   3.705  15.859  0.00  0.00    +0.000 A 
ATOM     16  C   UNL     1       6.032   4.691  15.017  0.00  0.00    +0.000 A 
ATOM     17  C   UNL     1       5.729   6.031  15.263  0.00  0.00    +0.000 A 
ATOM     18  C   UNL     1       4.918   6.388  16.347  0.00  0.00    +0.000 A 
ENDBRANCH   9  13
BRANCH  12  19
ATOM     19  C   UNL     1       0.503  10.130  20.080  0.00  0.00    +0.000 A 
ATOM     20  C   UNL     1      -0.793  10.357  19.569  0.00  0.00    +0.000 A 
ATOM     21  C   UNL     1      -1.522  11.521  19.856  0.00  0.00    +0.000 A 
ATOM     22  C   UNL     1      -1.015  12.439  20.772  0.00  0.00    +0.000 A 
ATOM     23  C   UNL     1       0.215  12.200  21.388  0.00  0.00    +0.000 A 
ATOM     24  C   UNL     1       0.974  11.078  21.011  0.00  0.00    +0.000 A 
BRANCH  22  25
ATOM     25  N   UNL     1      -1.765  13.663  21.071  0.00  0.00    +0.000 N 
ATOM     26  O   UNL     1      -2.563  13.638  22.021  0.00  0.00    +0.000 OA
ATOM     27  O   UNL     1      -1.574  14.644  20.335  0.00  0.00    +0.000 OA
ENDBRANCH  22  25
ENDBRANCH  12  19
TORSDOF 3
ENDMDL
MODEL 4
REMARK VINA RESULT:      -7.5      1.631      2.231
REMARK  Name = 
REMARK  6 active torsions:
REMARK  status: ('A' for Active; 'I' for Inactive)
REMARK    1  A    between atoms: C_1  and  C_2
REMARK    2  A    between atoms: C_6  and  C_7
REMARK    3  A    between atoms: N_9  and  C_10
REMARK    4  A    between atoms: C_16  and  C_17
REMARK    5  A    between atoms: C_18  and  C_19
REMARK    6  A    between atoms: C_22  and  N_23
REMARK                            x       y       z     vdW  Elec       q    Type
REMARK                         _______ _______ _______ _____ _____    ______ ____
ROOT
ATOM      1  C   UNL     1       2.403  10.182  17.529  0.00  0.00    +0.000 C 
ATOM      2  C   UNL     1       2.284   8.960  18.402  0.00  0.00    +0.000 A 
ATOM      3  N   UNL     1       3.102   7.968  17.973  0.00  0.00    +0.000 NA
ATOM      4  C   UNL     1       3.081   6.831  18.690  0.00  0.00    +0.000 A 
ATOM      5  C   UNL     1       2.286   6.586  19.805  0.00  0.00    +0.000 A 
ATOM      6  C   UNL     1       2.658   5.267  20.208  0.00  0.00    +0.000 A 
ATOM      7  C   UNL     1       2.241   4.422  21.358  0.00  0.00    +0.000 C 
ATOM      8  N   UNL     1       3.565   4.728  19.391  0.00  0.00    +0.000 NA
ATOM      9  N   UNL     1       3.826   5.677  18.453  0.00  0.00    +0.000 N 
ATOM     10  C   UNL     1       1.385   7.614  20.218  0.00  0.00    +0.000 A 
ATOM     11  C   UNL     1       0.438   7.386  21.372  0.00  0.00    +0.000 C 
ATOM     12  C   UNL     1       1.396   8.877  19.509  0.00  0.00    +0.000 A 
ENDROOT
BRANCH   9  13
ATOM     13  C   UNL     1       4.765   5.379  17.414  0.00  0.00    +0.000 A 
ATOM     14  C   UNL     1       6.000   6.055  17.396  0.00  0.00    +0.000 A 
ATOM     15  C   UNL     1       6.947   5.787  16.407  0.00  0.00    +0.000 A 
ATOM     16  C   UNL     1       6.676   4.845  15.420  0.00  0.00    +0.000 A 
ATOM     17  C   UNL     1       5.453   4.172  15.423  0.00  0.00    +0.000 A 
ATOM     18  C   UNL     1       4.500   4.435  16.415  0.00  0.00    +0.000 A 
ENDBRANCH   9  13
BRANCH  12  19
ATOM     19  C   UNL     1       0.482   9.998  19.903  0.00  0.00    +0.000 A 
ATOM     20  C   UNL     1      -0.766  10.187  19.269  0.00  0.00    +0.000 A 
ATOM     21  C   UNL     1      -1.552  11.329  19.481  0.00  0.00    +0.000 A 
ATOM     22  C   UNL     1      -1.162  12.261  20.439  0.00  0.00    +0.000 A 
ATOM     23  C   UNL     1       0.010  12.058  21.171  0.00  0.00    +0.000 A 
ATOM     24  C   UNL     1       0.833  10.959  20.872  0.00  0.00    +0.000 A 
BRANCH  22  25
ATOM     25  N   UNL     1      -1.972  13.463  20.661  0.00  0.00    +0.000 N 
ATOM     26  O   UNL     1      -1.379  14.542  20.822  0.00  0.00    +0.000 OA
ATOM     27  O   UNL     1      -3.205  13.323  20.702  0.00  0.00    +0.000 OA
ENDBRANCH  22  25
ENDBRANCH  12  19
TORSDOF 3
ENDMDL
MODEL 5
REMARK VINA RESULT:      -7.5      1.458      2.129
REMARK  Name = 
REMARK  6 active torsions:
REMARK  status: ('A' for Active; 'I' for Inactive)
REMARK    1  A    between atoms: C_1  and  C_2
REMARK    2  A    between atoms: C_6  and  C_7
REMARK    3  A    between atoms: N_9  and  C_10
REMARK    4  A    between atoms: C_16  and  C_17
REMARK    5  A    between atoms: C_18  and  C_19
REMARK    6  A    between atoms: C_22  and  N_23
REMARK                            x       y       z     vdW  Elec       q    Type
REMARK                         _______ _______ _______ _____ _____    ______ ____
ROOT
ATOM      1  C   UNL     1       2.429  10.206  17.542  0.00  0.00    +0.000 C 
ATOM      2  C   UNL     1       2.303   8.977  18.404  0.00  0.00    +0.000 A 
ATOM      3  N   UNL     1       3.129   7.991  17.979  0.00  0.00    +0.000 NA
ATOM      4  C   UNL     1       3.103   6.849  18.687  0.00  0.00    +0.000 A 
ATOM      5  C   UNL     1       2.295   6.593  19.790  0.00  0.00    +0.000 A 
ATOM      6  C   UNL     1       2.666   5.272  20.188  0.00  0.00    +0.000 A 
ATOM      7  C   UNL     1       2.237   4.417  21.326  0.00  0.00    +0.000 C 
ATOM      8  N   UNL     1       3.585   4.742  19.378  0.00  0.00    +0.000 NA
ATOM      9  N   UNL     1       3.855   5.698  18.451  0.00  0.00    +0.000 N 
ATOM     10  C   UNL     1       1.385   7.615  20.200  0.00  0.00    +0.000 A 
ATOM     11  C   UNL     1       0.424   7.375  21.339  0.00  0.00    +0.000 C 
ATOM     12  C   UNL     1       1.401   8.883  19.500  0.00  0.00    +0.000 A 
ENDROOT
BRANCH   9  13
ATOM     13  C   UNL     1       4.808   5.411  17.422  0.00  0.00    +0.000 A 
ATOM     14  C   UNL     1       4.509   4.415  16.473  0.00  0.00    +0.000 A 
ATOM     15  C   UNL     1       5.407   4.112  15.448  0.00  0.00    +0.000 A 
ATOM     16  C   UNL     1       6.615   4.795  15.357  0.00  0.00    +0.000 A 
ATOM     17  C   UNL     1       6.926   5.781  16.294  0.00  0.00    +0.000 A 
ATOM     18  C   UNL     1       6.028   6.091  17.322  0.00  0.00    +0.000 A 
ENDBRANCH   9  13
BRANCH  12  19
ATOM     19  C   UNL     1       0.479   9.998  19.890  0.00  0.00    +0.000 A 
ATOM     20  C   UNL     1       0.731  10.801  21.023  0.00  0.00    +0.000 A 
ATOM     21  C   UNL     1      -0.205  11.720  21.518  0.00  0.00    +0.000 A 
ATOM     22  C   UNL     1      -1.381  11.950  20.809  0.00  0.00    +0.000 A 
ATOM     23  C   UNL     1      -1.623  11.259  19.620  0.00  0.00    +0.000 A 
ATOM     24  C   UNL     1      -0.718  10.270  19.196  0.00  0.00    +0.000 A 
BRANCH  22  25
ATOM     25  N   UNL     1      -2.371  12.902  21.324  0.00  0.00    +0.000 N 
ATOM     26  O   UNL     1      -2.386  14.044  20.837  0.00  0.00    +0.000 OA
ATOM     27  O   UNL     1      -3.116  12.515  22.237  0.00  0.00    +0.000 OA
ENDBRANCH  22  25
ENDBRANCH  12  19
TORSDOF 3
ENDMDL
MODEL 6
REMARK VINA RESULT:      -7.4      0.267      1.335
REMARK  Name = 
REMARK  6 active torsions:
REMARK  status: ('A' for Active; 'I' for Inactive)
REMARK    1  A    between atoms: C_1  and  C_2
REMARK    2  A    between atoms: C_6  and  C_7
REMARK    3  A    between atoms: N_9  and  C_10
REMARK    4  A    between atoms: C_16  and  C_17
REMARK    5  A    between atoms: C_18  and  C_19
REMARK    6  A    between atoms: C_22  and  N_23
REMARK                            x       y       z     vdW  Elec       q    Type
REMARK                         _______ _______ _______ _____ _____    ______ ____
ROOT
ATOM      1  C   UNL     1       3.068   9.182  17.591  0.00  0.00    +0.000 C 
ATOM      2  C   UNL     1       3.018   7.796  18.181  0.00  0.00    +0.000 A 
ATOM      3  N   UNL     1       3.745   6.922  17.443  0.00  0.00    +0.000 NA
ATOM      4  C   UNL     1       3.776   5.654  17.889  0.00  0.00    +0.000 A 
ATOM      5  C   UNL     1       3.117   5.170  19.014  0.00  0.00    +0.000 A 
ATOM      6  C   UNL     1       3.493   3.793  19.065  0.00  0.00    +0.000 A 
ATOM      7  C   UNL     1       3.194   2.714  20.044  0.00  0.00    +0.000 C 
ATOM      8  N   UNL     1       4.276   3.446  18.041  0.00  0.00    +0.000 NA
ATOM      9  N   UNL     1       4.449   4.579  17.310  0.00  0.00    +0.000 N 
ATOM     10  C   UNL     1       2.307   6.083  19.755  0.00  0.00    +0.000 A 
ATOM     11  C   UNL     1       1.503   5.607  20.940  0.00  0.00    +0.000 C 
ATOM     12  C   UNL     1       2.271   7.472  19.346  0.00  0.00    +0.000 A 
ENDROOT
BRANCH   9  13
ATOM     13  C   UNL     1       5.243   4.517  16.120  0.00  0.00    +0.000 A 
ATOM     14  C   UNL     1       6.566   4.996  16.157  0.00  0.00    +0.000 A 
ATOM     15  C   UNL     1       7.377   4.944  15.021  0.00  0.00    +0.000 A 
ATOM     16  C   UNL     1       6.879   4.418  13.834  0.00  0.00    +0.000 A 
ATOM     17  C   UNL     1       5.567   3.945  13.782  0.00  0.00    +0.000 A 
ATOM     18  C   UNL     1       4.750   3.992  14.919  0.00  0.00    +0.000 A 
ENDBRANCH   9  13
BRANCH  12  19
ATOM     19  C   UNL     1       1.449   8.481  20.090  0.00  0.00    +0.000 A 
ATOM     20  C   UNL     1       1.515   8.592  21.496  0.00  0.00    +0.000 A 
ATOM     21  C   UNL     1       0.625   9.389  22.231  0.00  0.00    +0.000 A 
ATOM     22  C   UNL     1      -0.285  10.200  21.557  0.00  0.00    +0.000 A 
ATOM     23  C   UNL     1      -0.312  10.206  20.161  0.00  0.00    +0.000 A 
ATOM     24  C   UNL     1       0.521   9.325  19.448  0.00  0.00    +0.000 A 
BRANCH  22  25
ATOM     25  N   UNL     1      -1.227  11.029  22.316  0.00  0.00    +0.000 N 
ATOM     26  O   UNL     1      -1.251  10.899  23.551  0.00  0.00    +0.000 OA
ATOM     27  O   UNL     1      -1.964  11.793  21.673  0.00  0.00    +0.000 OA
ENDBRANCH  22  25
ENDBRANCH  12  19
TORSDOF 3
ENDMDL
MODEL 7
REMARK VINA RESULT:      -7.4      0.265      1.126
REMARK  Name = 
REMARK  6 active torsions:
REMARK  status: ('A' for Active; 'I' for Inactive)
REMARK    1  A    between atoms: C_1  and  C_2
REMARK    2  A    between atoms: C_6  and  C_7
REMARK    3  A    between atoms: N_9  and  C_10
REMARK    4  A    between atoms: C_16  and  C_17
REMARK    5  A    between atoms: C_18  and  C_19
REMARK    6  A    between atoms: C_22  and  N_23
REMARK                            x       y       z     vdW  Elec       q    Type
REMARK                         _______ _______ _______ _____ _____    ______ ____
ROOT
ATOM      1  C   UNL     1       3.042   9.230  17.592  0.00  0.00    +0.000 C 
ATOM      2  C   UNL     1       3.003   7.850  18.197  0.00  0.00    +0.000 A 
ATOM      3  N   UNL     1       3.753   6.978  17.481  0.00  0.00    +0.000 NA
ATOM      4  C   UNL     1       3.796   5.716  17.941  0.00  0.00    +0.000 A 
ATOM      5  C   UNL     1       3.128   5.235  19.062  0.00  0.00    +0.000 A 
ATOM      6  C   UNL     1       3.522   3.864  19.134  0.00  0.00    +0.000 A 
ATOM      7  C   UNL     1       3.224   2.792  20.121  0.00  0.00    +0.000 C 
ATOM      8  N   UNL     1       4.325   3.517  18.126  0.00  0.00    +0.000 NA
ATOM      9  N   UNL     1       4.493   4.644  17.385  0.00  0.00    +0.000 N 
ATOM     10  C   UNL     1       2.293   6.144  19.780  0.00  0.00    +0.000 A 
ATOM     11  C   UNL     1       1.478   5.670  20.959  0.00  0.00    +0.000 C 
ATOM     12  C   UNL     1       2.244   7.528  19.356  0.00  0.00    +0.000 A 
ENDROOT
BRANCH   9  13
ATOM     13  C   UNL     1       5.306   4.580  16.208  0.00  0.00    +0.000 A 
ATOM     14  C   UNL     1       4.764   4.023  15.034  0.00  0.00    +0.000 A 
ATOM     15  C   UNL     1       5.520   3.951  13.862  0.00  0.00    +0.000 A 
ATOM     16  C   UNL     1       6.825   4.431  13.845  0.00  0.00    +0.000 A 
ATOM     17  C   UNL     1       7.376   4.980  15.004  0.00  0.00    +0.000 A 
ATOM     18  C   UNL     1       6.621   5.057  16.181  0.00  0.00    +0.000 A 
ENDBRANCH   9  13
BRANCH  12  19
ATOM     19  C   UNL     1       1.395   8.533  20.075  0.00  0.00    +0.000 A 
ATOM     20  C   UNL     1       1.413   8.637  21.483  0.00  0.00    +0.000 A 
ATOM     21  C   UNL     1       0.497   9.430  22.190  0.00  0.00    +0.000 A 
ATOM     22  C   UNL     1      -0.389  10.244  21.490  0.00  0.00    +0.000 A 
ATOM     23  C   UNL     1      -0.366  10.258  20.093  0.00  0.00    +0.000 A 
ATOM     24  C   UNL     1       0.491   9.381  19.406  0.00  0.00    +0.000 A 
BRANCH  22  25
ATOM     25  N   UNL     1      -1.357  11.070  22.220  0.00  0.00    +0.000 N 
ATOM     26  O   UNL     1      -1.920  11.988  21.603  0.00  0.00    +0.000 OA
ATOM     27  O   UNL     1      -1.533  10.816  23.422  0.00  0.00    +0.000 OA
ENDBRANCH  22  25
ENDBRANCH  12  19
TORSDOF 3
ENDMDL
MODEL 8
REMARK VINA RESULT:      -6.9      2.684      4.855
REMARK  Name = 
REMARK  6 active torsions:
REMARK  status: ('A' for Active; 'I' for Inactive)
REMARK    1  A    between atoms: C_1  and  C_2
REMARK    2  A    between atoms: C_6  and  C_7
REMARK    3  A    between atoms: N_9  and  C_10
REMARK    4  A    between atoms: C_16  and  C_17
REMARK    5  A    between atoms: C_18  and  C_19
REMARK    6  A    between atoms: C_22  and  N_23
REMARK                            x       y       z     vdW  Elec       q    Type
REMARK                         _______ _______ _______ _____ _____    ______ ____
ROOT
ATOM      1  C   UNL     1      -0.306   8.671  22.031  0.00  0.00    +0.000 C 
ATOM      2  C   UNL     1       0.608   8.529  20.841  0.00  0.00    +0.000 A 
ATOM      3  N   UNL     1       1.132   7.281  20.769  0.00  0.00    +0.000 NA
ATOM      4  C   UNL     1       1.956   7.043  19.735  0.00  0.00    +0.000 A 
ATOM      5  C   UNL     1       2.326   7.963  18.760  0.00  0.00    +0.000 A 
ATOM      6  C   UNL     1       3.176   7.216  17.888  0.00  0.00    +0.000 A 
ATOM      7  C   UNL     1       3.860   7.573  16.617  0.00  0.00    +0.000 C 
ATOM      8  N   UNL     1       3.353   5.963  18.310  0.00  0.00    +0.000 NA
ATOM      9  N   UNL     1       2.615   5.848  19.445  0.00  0.00    +0.000 N 
ATOM     10  C   UNL     1       1.815   9.292  18.871  0.00  0.00    +0.000 A 
ATOM     11  C   UNL     1       2.238  10.361  17.893  0.00  0.00    +0.000 C 
ATOM     12  C   UNL     1       0.887   9.594  19.942  0.00  0.00    +0.000 A 
ENDROOT
BRANCH   9  13
ATOM     13  C   UNL     1       2.618   4.600  20.147  0.00  0.00    +0.000 A 
ATOM     14  C   UNL     1       3.713   3.730  19.987  0.00  0.00    +0.000 A 
ATOM     15  C   UNL     1       3.759   2.508  20.662  0.00  0.00    +0.000 A 
ATOM     16  C   UNL     1       2.713   2.137  21.500  0.00  0.00    +0.000 A 
ATOM     17  C   UNL     1       1.619   2.987  21.662  0.00  0.00    +0.000 A 
ATOM     18  C   UNL     1       1.569   4.215  20.991  0.00  0.00    +0.000 A 
ENDBRANCH   9  13
BRANCH  12  19
ATOM     19  C   UNL     1       0.309  10.967  20.105  0.00  0.00    +0.000 A 
ATOM     20  C   UNL     1      -0.911  11.330  19.494  0.00  0.00    +0.000 A 
ATOM     21  C   UNL     1      -1.379  12.652  19.472  0.00  0.00    +0.000 A 
ATOM     22  C   UNL     1      -0.688  13.634  20.177  0.00  0.00    +0.000 A 
ATOM     23  C   UNL     1       0.465  13.300  20.890  0.00  0.00    +0.000 A 
ATOM     24  C   UNL     1       0.969  11.990  20.816  0.00  0.00    +0.000 A 
BRANCH  22  25
ATOM     25  N   UNL     1      -1.163  15.022  20.152  0.00  0.00    +0.000 N 
ATOM     26  O   UNL     1      -2.190  15.296  20.794  0.00  0.00    +0.000 OA
ATOM     27  O   UNL     1      -0.523  15.834  19.465  0.00  0.00    +0.000 OA
ENDBRANCH  22  25
ENDBRANCH  12  19
TORSDOF 3
ENDMDL
MODEL 9
REMARK VINA RESULT:      -6.8      2.523      4.784
REMARK  Name = 
REMARK  6 active torsions:
REMARK  status: ('A' for Active; 'I' for Inactive)
REMARK    1  A    between atoms: C_1  and  C_2
REMARK    2  A    between atoms: C_6  and  C_7
REMARK    3  A    between atoms: N_9  and  C_10
REMARK    4  A    between atoms: C_16  and  C_17
REMARK    5  A    between atoms: C_18  and  C_19
REMARK    6  A    between atoms: C_22  and  N_23
REMARK                            x       y       z     vdW  Elec       q    Type
REMARK                         _______ _______ _______ _____ _____    ______ ____
ROOT
ATOM      1  C   UNL     1      -0.269   8.544  21.994  0.00  0.00    +0.000 C 
ATOM      2  C   UNL     1       0.649   8.428  20.805  0.00  0.00    +0.000 A 
ATOM      3  N   UNL     1       1.218   7.199  20.742  0.00  0.00    +0.000 NA
ATOM      4  C   UNL     1       2.051   6.984  19.709  0.00  0.00    +0.000 A 
ATOM      5  C   UNL     1       2.388   7.911  18.728  0.00  0.00    +0.000 A 
ATOM      6  C   UNL     1       3.264   7.190  17.862  0.00  0.00    +0.000 A 
ATOM      7  C   UNL     1       3.936   7.563  16.588  0.00  0.00    +0.000 C 
ATOM      8  N   UNL     1       3.485   5.945  18.291  0.00  0.00    +0.000 NA
ATOM      9  N   UNL     1       2.752   5.812  19.427  0.00  0.00    +0.000 N 
ATOM     10  C   UNL     1       1.830   9.222  18.832  0.00  0.00    +0.000 A 
ATOM     11  C   UNL     1       2.215  10.299  17.847  0.00  0.00    +0.000 C 
ATOM     12  C   UNL     1       0.892   9.497  19.900  0.00  0.00    +0.000 A 
ENDROOT
BRANCH   9  13
ATOM     13  C   UNL     1       2.798   4.569  20.136  0.00  0.00    +0.000 A 
ATOM     14  C   UNL     1       3.811   3.642  19.823  0.00  0.00    +0.000 A 
ATOM     15  C   UNL     1       3.897   2.424  20.499  0.00  0.00    +0.000 A 
ATOM     16  C   UNL     1       2.975   2.111  21.491  0.00  0.00    +0.000 A 
ATOM     17  C   UNL     1       1.963   3.018  21.807  0.00  0.00    +0.000 A 
ATOM     18  C   UNL     1       1.873   4.243  21.135  0.00  0.00    +0.000 A 
ENDBRANCH   9  13
BRANCH  12  19
ATOM     19  C   UNL     1       0.264  10.850  20.055  0.00  0.00    +0.000 A 
ATOM     20  C   UNL     1       0.866  11.854  20.844  0.00  0.00    +0.000 A 
ATOM     21  C   UNL     1       0.213  13.055  21.159  0.00  0.00    +0.000 A 
ATOM     22  C   UNL     1      -1.023  13.335  20.583  0.00  0.00    +0.000 A 
ATOM     23  C   UNL     1      -1.607  12.418  19.706  0.00  0.00    +0.000 A 
ATOM     24  C   UNL     1      -0.982  11.178  19.483  0.00  0.00    +0.000 A 
BRANCH  22  25
ATOM     25  N   UNL     1      -1.718  14.583  20.914  0.00  0.00    +0.000 N 
ATOM     26  O   UNL     1      -1.437  15.597  20.256  0.00  0.00    +0.000 OA
ATOM     27  O   UNL     1      -2.528  14.555  21.854  0.00  0.00    +0.000 OA
ENDBRANCH  22  25
ENDBRANCH  12  19
TORSDOF 3
ENDMDL
