MODEL 1
REMARK VINA RESULT:      -5.6      0.000      0.000
REMARK  Name = 
REMARK  7 active torsions:
REMARK  status: ('A' for Active; 'I' for Inactive)
REMARK    1  A    between atoms: C_1  and  S_2
REMARK    2  A    between atoms: S_2  and  C_3
REMARK    3  A    between atoms: C_3  and  S_13
REMARK    4  A    between atoms: C_4  and  C_5
REMARK    5  A    between atoms: C_9  and  C_10
REMARK    6  A    between atoms: N_11  and  C_12
REMARK    7  A    between atoms: S_13  and  C_14
REMARK                            x       y       z     vdW  Elec       q    Type
REMARK                         _______ _______ _______ _____ _____    ______ ____
ROOT
ATOM      1  C   UNL     1       3.679   4.690  18.693  0.00  0.00    +0.000 A 
ATOM      2  C   UNL     1       3.095   5.952  18.826  0.00  0.00    +0.000 A 
ATOM      3  C   UNL     1       2.203   6.196  19.860  0.00  0.00    +0.000 A 
ATOM      4  C   UNL     1       1.882   5.179  20.745  0.00  0.00    +0.000 A 
ATOM      5  C   UNL     1       2.465   3.912  20.608  0.00  0.00    +0.000 A 
ATOM      6  C   UNL     1       2.055   2.839  21.590  0.00  0.00    +0.000 C 
ATOM      7  N   UNL     1       3.367   3.676  19.579  0.00  0.00    +0.000 N 
ATOM      8  C   UNL     1       4.005   2.356  19.399  0.00  0.00    +0.000 C 
ENDROOT
BRANCH   1  10
ATOM      9  C   UNL     1       5.888   4.807  17.518  0.00  0.00    +0.000 C 
ATOM     10  C   UNL     1       4.581   4.479  17.533  0.00  0.00    +0.000 C 
BRANCH   9  12
ATOM     11  C   UNL     1       7.679   6.781  18.170  0.00  0.00    +0.000 C 
ATOM     12  S   UNL     1       6.714   5.469  18.986  0.00  0.00    +0.000 S 
ENDBRANCH   9  12
BRANCH   9  13
ATOM     13  S   UNL     1       6.892   4.426  16.059  0.00  0.00    +0.000 S 
ATOM     14  C   UNL     1       5.649   4.797  14.770  0.00  0.00    +0.000 C 
ENDBRANCH   9  13
ENDBRANCH   1  10
TORSDOF 3
ENDMDL
MODEL 2
REMARK VINA RESULT:      -5.5      2.583      5.207
REMARK  Name = 
REMARK  7 active torsions:
REMARK  status: ('A' for Active; 'I' for Inactive)
REMARK    1  A    between atoms: C_1  and  S_2
REMARK    2  A    between atoms: S_2  and  C_3
REMARK    3  A    between atoms: C_3  and  S_13
REMARK    4  A    between atoms: C_4  and  C_5
REMARK    5  A    between atoms: C_9  and  C_10
REMARK    6  A    between atoms: N_11  and  C_12
REMARK    7  A    between atoms: S_13  and  C_14
REMARK                            x       y       z     vdW  Elec       q    Type
REMARK                         _______ _______ _______ _____ _____    ______ ____
ROOT
ATOM      1  C   UNL     1       4.475   4.326  17.260  0.00  0.00    +0.000 A 
ATOM      2  C   UNL     1       4.861   3.859  16.001  0.00  0.00    +0.000 A 
ATOM      3  C   UNL     1       6.149   4.097  15.541  0.00  0.00    +0.000 A 
ATOM      4  C   UNL     1       7.037   4.813  16.326  0.00  0.00    +0.000 A 
ATOM      5  C   UNL     1       6.647   5.284  17.587  0.00  0.00    +0.000 A 
ATOM      6  C   UNL     1       7.654   6.080  18.384  0.00  0.00    +0.000 C 
ATOM      7  N   UNL     1       5.361   5.034  18.049  0.00  0.00    +0.000 N 
ATOM      8  C   UNL     1       4.909   5.511  19.372  0.00  0.00    +0.000 C 
ENDROOT
BRANCH   1  10
ATOM      9  C   UNL     1       2.615   2.931  18.194  0.00  0.00    +0.000 C 
ATOM     10  C   UNL     1       3.067   4.086  17.669  0.00  0.00    +0.000 C 
BRANCH   9  12
ATOM     11  C   UNL     1       4.324   2.110  20.179  0.00  0.00    +0.000 C 
ATOM     12  S   UNL     1       3.733   1.552  18.549  0.00  0.00    +0.000 S 
ENDBRANCH   9  12
BRANCH   9  13
ATOM     13  S   UNL     1       0.887   2.799  18.718  0.00  0.00    +0.000 S 
ATOM     14  C   UNL     1       0.973   3.853  20.210  0.00  0.00    +0.000 C 
ENDBRANCH   9  13
ENDBRANCH   1  10
TORSDOF 3
ENDMDL
MODEL 3
REMARK VINA RESULT:      -5.5      2.319      5.362
REMARK  Name = 
REMARK  7 active torsions:
REMARK  status: ('A' for Active; 'I' for Inactive)
REMARK    1  A    between atoms: C_1  and  S_2
REMARK    2  A    between atoms: S_2  and  C_3
REMARK    3  A    between atoms: C_3  and  S_13
REMARK    4  A    between atoms: C_4  and  C_5
REMARK    5  A    between atoms: C_9  and  C_10
REMARK    6  A    between atoms: N_11  and  C_12
REMARK    7  A    between atoms: S_13  and  C_14
REMARK                            x       y       z     vdW  Elec       q    Type
REMARK                         _______ _______ _______ _____ _____    ______ ____
ROOT
ATOM      1  C   UNL     1       5.134   5.061  18.565  0.00  0.00    +0.000 A 
ATOM      2  C   UNL     1       6.278   5.368  19.306  0.00  0.00    +0.000 A 
ATOM      3  C   UNL     1       7.528   5.299  18.707  0.00  0.00    +0.000 A 
ATOM      4  C   UNL     1       7.634   4.908  17.383  0.00  0.00    +0.000 A 
ATOM      5  C   UNL     1       6.486   4.597  16.642  0.00  0.00    +0.000 A 
ATOM      6  C   UNL     1       6.672   4.153  15.209  0.00  0.00    +0.000 C 
ATOM      7  N   UNL     1       5.236   4.678  17.241  0.00  0.00    +0.000 N 
ATOM      8  C   UNL     1       4.000   4.360  16.497  0.00  0.00    +0.000 C 
ENDROOT
BRANCH   1  10
ATOM      9  C   UNL     1       3.275   4.044  19.902  0.00  0.00    +0.000 C 
ATOM     10  C   UNL     1       3.832   5.101  19.280  0.00  0.00    +0.000 C 
BRANCH   9  12
ATOM     11  C   UNL     1       3.359   1.648  18.566  0.00  0.00    +0.000 C 
ATOM     12  S   UNL     1       4.129   2.451  20.008  0.00  0.00    +0.000 S 
ENDBRANCH   9  12
BRANCH   9  13
ATOM     13  S   UNL     1       1.716   4.250  20.799  0.00  0.00    +0.000 S 
ATOM     14  C   UNL     1       1.663   2.623  21.631  0.00  0.00    +0.000 C 
ENDBRANCH   9  13
ENDBRANCH   1  10
TORSDOF 3
ENDMDL
MODEL 4
REMARK VINA RESULT:      -5.4      1.698      2.290
REMARK  Name = 
REMARK  7 active torsions:
REMARK  status: ('A' for Active; 'I' for Inactive)
REMARK    1  A    between atoms: C_1  and  S_2
REMARK    2  A    between atoms: S_2  and  C_3
REMARK    3  A    between atoms: C_3  and  S_13
REMARK    4  A    between atoms: C_4  and  C_5
REMARK    5  A    between atoms: C_9  and  C_10
REMARK    6  A    between atoms: N_11  and  C_12
REMARK    7  A    between atoms: S_13  and  C_14
REMARK                            x       y       z     vdW  Elec       q    Type
REMARK                         _______ _______ _______ _____ _____    ______ ____
ROOT
ATOM      1  C   UNL     1       3.737   4.128  19.465  0.00  0.00    +0.000 A 
ATOM      2  C   UNL     1       3.198   5.214  20.159  0.00  0.00    +0.000 A 
ATOM      3  C   UNL     1       1.841   5.245  20.449  0.00  0.00    +0.000 A 
ATOM      4  C   UNL     1       1.026   4.205  20.032  0.00  0.00    +0.000 A 
ATOM      5  C   UNL     1       1.567   3.119  19.332  0.00  0.00    +0.000 A 
ATOM      6  C   UNL     1       0.621   2.029  18.883  0.00  0.00    +0.000 C 
ATOM      7  N   UNL     1       2.927   3.086  19.054  0.00  0.00    +0.000 N 
ATOM      8  C   UNL     1       3.539   1.959  18.321  0.00  0.00    +0.000 C 
ENDROOT
BRANCH   1  10
ATOM      9  C   UNL     1       5.682   4.624  17.967  0.00  0.00    +0.000 C 
ATOM     10  C   UNL     1       5.185   4.183  19.138  0.00  0.00    +0.000 C 
BRANCH   9  12
ATOM     11  C   UNL     1       4.621   7.039  17.210  0.00  0.00    +0.000 C 
ATOM     12  S   UNL     1       4.607   5.297  16.676  0.00  0.00    +0.000 S 
ENDBRANCH   9  12
BRANCH   9  13
ATOM     13  S   UNL     1       7.476   4.706  17.728  0.00  0.00    +0.000 S 
ATOM     14  C   UNL     1       7.871   5.911  19.044  0.00  0.00    +0.000 C 
ENDBRANCH   9  13
ENDBRANCH   1  10
TORSDOF 3
ENDMDL
MODEL 5
REMARK VINA RESULT:      -5.4      1.612      1.768
REMARK  Name = 
REMARK  7 active torsions:
REMARK  status: ('A' for Active; 'I' for Inactive)
REMARK    1  A    between atoms: C_1  and  S_2
REMARK    2  A    between atoms: S_2  and  C_3
REMARK    3  A    between atoms: C_3  and  S_13
REMARK    4  A    between atoms: C_4  and  C_5
REMARK    5  A    between atoms: C_9  and  C_10
REMARK    6  A    between atoms: N_11  and  C_12
REMARK    7  A    between atoms: S_13  and  C_14
REMARK                            x       y       z     vdW  Elec       q    Type
REMARK                         _______ _______ _______ _____ _____    ______ ____
ROOT
ATOM      1  C   UNL     1       2.920   5.326  18.629  0.00  0.00    +0.000 A 
ATOM      2  C   UNL     1       2.580   6.029  19.788  0.00  0.00    +0.000 A 
ATOM      3  C   UNL     1       1.652   5.497  20.671  0.00  0.00    +0.000 A 
ATOM      4  C   UNL     1       1.054   4.280  20.389  0.00  0.00    +0.000 A 
ATOM      5  C   UNL     1       1.392   3.578  19.225  0.00  0.00    +0.000 A 
ATOM      6  C   UNL     1       0.685   2.268  18.962  0.00  0.00    +0.000 C 
ATOM      7  N   UNL     1       2.330   4.107  18.348  0.00  0.00    +0.000 N 
ATOM      8  C   UNL     1       2.717   3.401  17.111  0.00  0.00    +0.000 C 
ENDROOT
BRANCH   1  10
ATOM      9  C   UNL     1       5.217   5.881  17.799  0.00  0.00    +0.000 C 
ATOM     10  C   UNL     1       3.878   5.975  17.698  0.00  0.00    +0.000 C 
BRANCH   9  12
ATOM     11  C   UNL     1       7.556   5.779  19.232  0.00  0.00    +0.000 C 
ATOM     12  S   UNL     1       6.000   4.847  19.062  0.00  0.00    +0.000 S 
ENDBRANCH   9  12
BRANCH   9  13
ATOM     13  S   UNL     1       6.269   6.665  16.550  0.00  0.00    +0.000 S 
ATOM     14  C   UNL     1       6.829   5.157  15.680  0.00  0.00    +0.000 C 
ENDBRANCH   9  13
ENDBRANCH   1  10
TORSDOF 3
ENDMDL
MODEL 6
REMARK VINA RESULT:      -5.3      1.697      1.750
REMARK  Name = 
REMARK  7 active torsions:
REMARK  status: ('A' for Active; 'I' for Inactive)
REMARK    1  A    between atoms: C_1  and  S_2
REMARK    2  A    between atoms: S_2  and  C_3
REMARK    3  A    between atoms: C_3  and  S_13
REMARK    4  A    between atoms: C_4  and  C_5
REMARK    5  A    between atoms: C_9  and  C_10
REMARK    6  A    between atoms: N_11  and  C_12
REMARK    7  A    between atoms: S_13  and  C_14
REMARK                            x       y       z     vdW  Elec       q    Type
REMARK                         _______ _______ _______ _____ _____    ______ ____
ROOT
ATOM      1  C   UNL     1       3.319   3.490  18.098  0.00  0.00    +0.000 A 
ATOM      2  C   UNL     1       2.117   3.945  17.551  0.00  0.00    +0.000 A 
ATOM      3  C   UNL     1       0.960   3.928  18.316  0.00  0.00    +0.000 A 
ATOM      4  C   UNL     1       1.000   3.443  19.612  0.00  0.00    +0.000 A 
ATOM      5  C   UNL     1       2.205   2.982  20.159  0.00  0.00    +0.000 A 
ATOM      6  C   UNL     1       2.178   2.441  21.570  0.00  0.00    +0.000 C 
ATOM      7  N   UNL     1       3.365   3.012  19.394  0.00  0.00    +0.000 N 
ATOM      8  C   UNL     1       4.656   2.538  19.931  0.00  0.00    +0.000 C 
ENDROOT
BRANCH   1  10
ATOM      9  C   UNL     1       5.410   4.482  17.139  0.00  0.00    +0.000 C 
ATOM     10  C   UNL     1       4.509   3.483  17.209  0.00  0.00    +0.000 C 
BRANCH   9  12
ATOM     11  C   UNL     1       4.295   6.989  17.134  0.00  0.00    +0.000 C 
ATOM     12  S   UNL     1       5.304   5.930  18.220  0.00  0.00    +0.000 S 
ENDBRANCH   9  12
BRANCH   9  13
ATOM     13  S   UNL     1       6.857   4.310  16.063  0.00  0.00    +0.000 S 
ATOM     14  C   UNL     1       5.987   4.071  14.472  0.00  0.00    +0.000 C 
ENDBRANCH   9  13
ENDBRANCH   1  10
TORSDOF 3
ENDMDL
MODEL 7
REMARK VINA RESULT:      -5.3      1.110      2.103
REMARK  Name = 
REMARK  7 active torsions:
REMARK  status: ('A' for Active; 'I' for Inactive)
REMARK    1  A    between atoms: C_1  and  S_2
REMARK    2  A    between atoms: S_2  and  C_3
REMARK    3  A    between atoms: C_3  and  S_13
REMARK    4  A    between atoms: C_4  and  C_5
REMARK    5  A    between atoms: C_9  and  C_10
REMARK    6  A    between atoms: N_11  and  C_12
REMARK    7  A    between atoms: S_13  and  C_14
REMARK                            x       y       z     vdW  Elec       q    Type
REMARK                         _______ _______ _______ _____ _____    ______ ____
ROOT
ATOM      1  C   UNL     1       3.917   4.912  19.694  0.00  0.00    +0.000 A 
ATOM      2  C   UNL     1       3.165   6.088  19.627  0.00  0.00    +0.000 A 
ATOM      3  C   UNL     1       1.842   6.087  20.045  0.00  0.00    +0.000 A 
ATOM      4  C   UNL     1       1.269   4.915  20.510  0.00  0.00    +0.000 A 
ATOM      5  C   UNL     1       2.023   3.735  20.572  0.00  0.00    +0.000 A 
ATOM      6  C   UNL     1       1.333   2.484  21.064  0.00  0.00    +0.000 C 
ATOM      7  N   UNL     1       3.350   3.742  20.164  0.00  0.00    +0.000 N 
ATOM      8  C   UNL     1       4.181   2.522  20.214  0.00  0.00    +0.000 C 
ENDROOT
BRANCH   1  10
ATOM      9  C   UNL     1       5.671   4.615  17.930  0.00  0.00    +0.000 C 
ATOM     10  C   UNL     1       5.309   4.967  19.179  0.00  0.00    +0.000 C 
BRANCH   9  12
ATOM     11  C   UNL     1       5.477   4.321  15.209  0.00  0.00    +0.000 C 
ATOM     12  S   UNL     1       4.446   4.113  16.696  0.00  0.00    +0.000 S 
ENDBRANCH   9  12
BRANCH   9  13
ATOM     13  S   UNL     1       7.396   4.800  17.410  0.00  0.00    +0.000 S 
ATOM     14  C   UNL     1       7.783   6.351  18.298  0.00  0.00    +0.000 C 
ENDBRANCH   9  13
ENDBRANCH   1  10
TORSDOF 3
ENDMDL
MODEL 8
REMARK VINA RESULT:      -5.3      2.418      5.239
REMARK  Name = 
REMARK  7 active torsions:
REMARK  status: ('A' for Active; 'I' for Inactive)
REMARK    1  A    between atoms: C_1  and  S_2
REMARK    2  A    between atoms: S_2  and  C_3
REMARK    3  A    between atoms: C_3  and  S_13
REMARK    4  A    between atoms: C_4  and  C_5
REMARK    5  A    between atoms: C_9  and  C_10
REMARK    6  A    between atoms: N_11  and  C_12
REMARK    7  A    between atoms: S_13  and  C_14
REMARK                            x       y       z     vdW  Elec       q    Type
REMARK                         _______ _______ _______ _____ _____    ______ ____
ROOT
ATOM      1  C   UNL     1       5.012   4.079  17.408  0.00  0.00    +0.000 A 
ATOM      2  C   UNL     1       4.882   3.912  16.027  0.00  0.00    +0.000 A 
ATOM      3  C   UNL     1       5.615   4.712  15.162  0.00  0.00    +0.000 A 
ATOM      4  C   UNL     1       6.458   5.685  15.674  0.00  0.00    +0.000 A 
ATOM      5  C   UNL     1       6.584   5.855  17.059  0.00  0.00    +0.000 A 
ATOM      6  C   UNL     1       7.500   6.950  17.554  0.00  0.00    +0.000 C 
ATOM      7  N   UNL     1       5.858   5.044  17.922  0.00  0.00    +0.000 N 
ATOM      8  C   UNL     1       5.962   5.188  19.388  0.00  0.00    +0.000 C 
ENDROOT
BRANCH   1  10
ATOM      9  C   UNL     1       2.906   3.547  18.654  0.00  0.00    +0.000 C 
ATOM     10  C   UNL     1       4.159   3.229  18.277  0.00  0.00    +0.000 C 
BRANCH   9  12
ATOM     11  C   UNL     1       2.452   6.132  19.455  0.00  0.00    +0.000 C 
ATOM     12  S   UNL     1       2.084   5.040  18.044  0.00  0.00    +0.000 S 
ENDBRANCH   9  12
BRANCH   9  13
ATOM     13  S   UNL     1       1.949   2.382  19.659  0.00  0.00    +0.000 S 
ATOM     14  C   UNL     1       2.547   2.892  21.310  0.00  0.00    +0.000 C 
ENDBRANCH   9  13
ENDBRANCH   1  10
TORSDOF 3
ENDMDL
MODEL 9
REMARK VINA RESULT:      -5.3      1.202      2.335
REMARK  Name = 
REMARK  7 active torsions:
REMARK  status: ('A' for Active; 'I' for Inactive)
REMARK    1  A    between atoms: C_1  and  S_2
REMARK    2  A    between atoms: S_2  and  C_3
REMARK    3  A    between atoms: C_3  and  S_13
REMARK    4  A    between atoms: C_4  and  C_5
REMARK    5  A    between atoms: C_9  and  C_10
REMARK    6  A    between atoms: N_11  and  C_12
REMARK    7  A    between atoms: S_13  and  C_14
REMARK                            x       y       z     vdW  Elec       q    Type
REMARK                         _______ _______ _______ _____ _____    ______ ____
ROOT
ATOM      1  C   UNL     1       3.694   3.699  17.599  0.00  0.00    +0.000 A 
ATOM      2  C   UNL     1       3.636   2.329  17.865  0.00  0.00    +0.000 A 
ATOM      3  C   UNL     1       2.875   1.863  18.927  0.00  0.00    +0.000 A 
ATOM      4  C   UNL     1       2.193   2.762  19.730  0.00  0.00    +0.000 A 
ATOM      5  C   UNL     1       2.255   4.136  19.465  0.00  0.00    +0.000 A 
ATOM      6  C   UNL     1       1.509   5.067  20.393  0.00  0.00    +0.000 C 
ATOM      7  N   UNL     1       3.008   4.599  18.393  0.00  0.00    +0.000 N 
ATOM      8  C   UNL     1       3.100   6.038  18.078  0.00  0.00    +0.000 C 
ENDROOT
BRANCH   1  10
ATOM      9  C   UNL     1       5.818   4.617  16.639  0.00  0.00    +0.000 C 
ATOM     10  C   UNL     1       4.570   4.137  16.482  0.00  0.00    +0.000 C 
BRANCH   9  12
ATOM     11  C   UNL     1       7.424   6.307  18.086  0.00  0.00    +0.000 C 
ATOM     12  S   UNL     1       6.605   4.691  18.268  0.00  0.00    +0.000 S 
ENDBRANCH   9  12
BRANCH   9  13
ATOM     13  S   UNL     1       6.805   5.047  15.182  0.00  0.00    +0.000 S 
ATOM     14  C   UNL     1       6.016   3.919  13.978  0.00  0.00    +0.000 C 
ENDBRANCH   9  13
ENDBRANCH   1  10
TORSDOF 3
ENDMDL
