MODEL 1
REMARK VINA RESULT:      -8.6      0.000      0.000
REMARK  Name = 
REMARK  9 active torsions:
REMARK  status: ('A' for Active; 'I' for Inactive)
REMARK    1  A    between atoms: C_1  and  C_2
REMARK    2  A    between atoms: C_2  and  C_3
REMARK    3  A    between atoms: C_2  and  C_4
REMARK    4  A    between atoms: C_4  and  O_5
REMARK    5  A    between atoms: O_5  and  C_6
REMARK    6  A    between atoms: C_9  and  C_10
REMARK    7  A    between atoms: C_12  and  C_13
REMARK    8  A    between atoms: C_13  and  O_15
REMARK    9  A    between atoms: N_17  and  C_18
REMARK                            x       y       z     vdW  Elec       q    Type
REMARK                         _______ _______ _______ _____ _____    ______ ____
ROOT
ATOM      1  C   UNL     1       4.028   6.188  17.985  0.00  0.00    +0.000 A 
ATOM      2  C   UNL     1       5.181   6.432  17.258  0.00  0.00    +0.000 A 
ATOM      3  C   UNL     1       5.883   5.218  17.211  0.00  0.00    +0.000 A 
ATOM      4  N   UNL     1       5.231   4.245  17.870  0.00  0.00    +0.000 NA
ATOM      5  N   UNL     1       4.034   4.811  18.220  0.00  0.00    +0.000 N 
ENDROOT
BRANCH   1   9
ATOM      6  C   UNL     1       1.214   9.086  19.434  0.00  0.00    +0.000 A 
ATOM      7  C   UNL     1       1.609   8.000  20.219  0.00  0.00    +0.000 A 
ATOM      8  C   UNL     1       2.513   7.061  19.729  0.00  0.00    +0.000 A 
ATOM      9  C   UNL     1       3.025   7.165  18.435  0.00  0.00    +0.000 A 
ATOM     10  C   UNL     1       2.548   8.205  17.621  0.00  0.00    +0.000 A 
ATOM     11  C   UNL     1       1.691   9.186  18.132  0.00  0.00    +0.000 A 
BRANCH   6  12
ATOM     12  O   UNL     1       0.369  10.085  19.844  0.00  0.00    +0.000 OA
BRANCH  12  13
ATOM     13  C   UNL     1       0.672  10.616  21.134  0.00  0.00    +0.000 C 
BRANCH  13  15
ATOM     14  C   UNL     1      -0.068   9.492  23.217  0.00  0.00    +0.000 C 
ATOM     15  C   UNL     1      -0.497  10.446  22.102  0.00  0.00    +0.000 C 
ATOM     16  C   UNL     1      -0.948  11.787  22.677  0.00  0.00    +0.000 C 
ENDBRANCH  13  15
ENDBRANCH  12  13
ENDBRANCH   6  12
ENDBRANCH   1   9
BRANCH   5  17
ATOM     17  C   UNL     1       3.007   3.992  18.769  0.00  0.00    +0.000 A 
ATOM     18  C   UNL     1       3.123   3.554  20.094  0.00  0.00    +0.000 A 
ATOM     19  C   UNL     1       2.050   2.899  20.702  0.00  0.00    +0.000 A 
ATOM     20  C   UNL     1       0.878   2.651  19.986  0.00  0.00    +0.000 A 
ATOM     21  C   UNL     1       0.786   3.028  18.649  0.00  0.00    +0.000 A 
ATOM     22  C   UNL     1       1.855   3.677  18.031  0.00  0.00    +0.000 A 
ENDBRANCH   5  17
BRANCH   3  23
ATOM     23  C   UNL     1       7.178   4.954  16.570  0.00  0.00    +0.000 C 
ATOM     24  O   UNL     1       8.042   4.234  17.043  0.00  0.00    +0.000 OA
BRANCH  23  25
ATOM     25  O   UNL     1       7.316   5.608  15.391  0.00  0.00    +0.000 OA
ATOM     26  H   UNL     1       8.274   5.814  15.291  0.00  0.00    +0.000 HD
ENDBRANCH  23  25
ENDBRANCH   3  23
TORSDOF 7
ENDMDL
MODEL 2
REMARK VINA RESULT:      -8.5      1.453      2.040
REMARK  Name = 
REMARK  9 active torsions:
REMARK  status: ('A' for Active; 'I' for Inactive)
REMARK    1  A    between atoms: C_1  and  C_2
REMARK    2  A    between atoms: C_2  and  C_3
REMARK    3  A    between atoms: C_2  and  C_4
REMARK    4  A    between atoms: C_4  and  O_5
REMARK    5  A    between atoms: O_5  and  C_6
REMARK    6  A    between atoms: C_9  and  C_10
REMARK    7  A    between atoms: C_12  and  C_13
REMARK    8  A    between atoms: C_13  and  O_15
REMARK    9  A    between atoms: N_17  and  C_18
REMARK                            x       y       z     vdW  Elec       q    Type
REMARK                         _______ _______ _______ _____ _____    ______ ____
ROOT
ATOM      1  C   UNL     1       3.999   6.266  18.046  0.00  0.00    +0.000 A 
ATOM      2  C   UNL     1       5.178   6.492  17.356  0.00  0.00    +0.000 A 
ATOM      3  C   UNL     1       5.879   5.277  17.361  0.00  0.00    +0.000 A 
ATOM      4  N   UNL     1       5.202   4.320  18.018  0.00  0.00    +0.000 NA
ATOM      5  N   UNL     1       3.994   4.894  18.312  0.00  0.00    +0.000 N 
ENDROOT
BRANCH   1   9
ATOM      6  C   UNL     1       1.143   9.202  19.326  0.00  0.00    +0.000 A 
ATOM      7  C   UNL     1       1.535   8.155  20.164  0.00  0.00    +0.000 A 
ATOM      8  C   UNL     1       2.452   7.203  19.729  0.00  0.00    +0.000 A 
ATOM      9  C   UNL     1       2.983   7.254  18.438  0.00  0.00    +0.000 A 
ATOM     10  C   UNL     1       2.509   8.252  17.572  0.00  0.00    +0.000 A 
ATOM     11  C   UNL     1       1.637   9.248  18.027  0.00  0.00    +0.000 A 
BRANCH   6  12
ATOM     12  O   UNL     1       0.284  10.212  19.678  0.00  0.00    +0.000 OA
BRANCH  12  13
ATOM     13  C   UNL     1      -0.328  10.872  18.570  0.00  0.00    +0.000 C 
BRANCH  13  15
ATOM     14  C   UNL     1      -2.694  11.614  18.643  0.00  0.00    +0.000 C 
ATOM     15  C   UNL     1      -1.774  10.421  18.375  0.00  0.00    +0.000 C 
ATOM     16  C   UNL     1      -2.002   9.864  16.971  0.00  0.00    +0.000 C 
ENDBRANCH  13  15
ENDBRANCH  12  13
ENDBRANCH   6  12
ENDBRANCH   1   9
BRANCH   5  17
ATOM     17  C   UNL     1       2.947   4.088  18.842  0.00  0.00    +0.000 A 
ATOM     18  C   UNL     1       2.936   3.805  20.214  0.00  0.00    +0.000 A 
ATOM     19  C   UNL     1       1.831   3.165  20.779  0.00  0.00    +0.000 A 
ATOM     20  C   UNL     1       0.753   2.782  19.978  0.00  0.00    +0.000 A 
ATOM     21  C   UNL     1       0.791   3.005  18.605  0.00  0.00    +0.000 A 
ATOM     22  C   UNL     1       1.895   3.637  18.031  0.00  0.00    +0.000 A 
ENDBRANCH   5  17
BRANCH   3  23
ATOM     23  C   UNL     1       7.195   4.998  16.772  0.00  0.00    +0.000 C 
ATOM     24  O   UNL     1       7.591   5.480  15.724  0.00  0.00    +0.000 OA
BRANCH  23  25
ATOM     25  O   UNL     1       7.925   4.134  17.518  0.00  0.00    +0.000 OA
ATOM     26  H   UNL     1       8.345   4.664  18.235  0.00  0.00    +0.000 HD
ENDBRANCH  23  25
ENDBRANCH   3  23
TORSDOF 7
ENDMDL
MODEL 3
REMARK VINA RESULT:      -8.5      0.400      1.040
REMARK  Name = 
REMARK  9 active torsions:
REMARK  status: ('A' for Active; 'I' for Inactive)
REMARK    1  A    between atoms: C_1  and  C_2
REMARK    2  A    between atoms: C_2  and  C_3
REMARK    3  A    between atoms: C_2  and  C_4
REMARK    4  A    between atoms: C_4  and  O_5
REMARK    5  A    between atoms: O_5  and  C_6
REMARK    6  A    between atoms: C_9  and  C_10
REMARK    7  A    between atoms: C_12  and  C_13
REMARK    8  A    between atoms: C_13  and  O_15
REMARK    9  A    between atoms: N_17  and  C_18
REMARK                            x       y       z     vdW  Elec       q    Type
REMARK                         _______ _______ _______ _____ _____    ______ ____
ROOT
ATOM      1  C   UNL     1       3.880   6.327  17.789  0.00  0.00    +0.000 A 
ATOM      2  C   UNL     1       4.909   6.559  16.890  0.00  0.00    +0.000 A 
ATOM      3  C   UNL     1       5.599   5.345  16.758  0.00  0.00    +0.000 A 
ATOM      4  N   UNL     1       5.059   4.383  17.525  0.00  0.00    +0.000 NA
ATOM      5  N   UNL     1       3.927   4.954  18.043  0.00  0.00    +0.000 N 
ENDROOT
BRANCH   1   9
ATOM      6  C   UNL     1       1.062   9.161  19.351  0.00  0.00    +0.000 A 
ATOM      7  C   UNL     1       1.599   9.301  18.069  0.00  0.00    +0.000 A 
ATOM      8  C   UNL     1       2.523   8.380  17.582  0.00  0.00    +0.000 A 
ATOM      9  C   UNL     1       2.955   7.312  18.370  0.00  0.00    +0.000 A 
ATOM     10  C   UNL     1       2.484   7.235  19.690  0.00  0.00    +0.000 A 
ATOM     11  C   UNL     1       1.508   8.121  20.160  0.00  0.00    +0.000 A 
BRANCH   6  12
ATOM     12  O   UNL     1       0.114   9.986  19.901  0.00  0.00    +0.000 OA
BRANCH  12  13
ATOM     13  C   UNL     1       0.501  10.573  21.144  0.00  0.00    +0.000 C 
BRANCH  13  15
ATOM     14  C   UNL     1      -0.018   9.488  23.313  0.00  0.00    +0.000 C 
ATOM     15  C   UNL     1      -0.576  10.390  22.211  0.00  0.00    +0.000 C 
ATOM     16  C   UNL     1      -1.029  11.732  22.785  0.00  0.00    +0.000 C 
ENDBRANCH  13  15
ENDBRANCH  12  13
ENDBRANCH   6  12
ENDBRANCH   1   9
BRANCH   5  17
ATOM     17  C   UNL     1       2.997   4.144  18.756  0.00  0.00    +0.000 A 
ATOM     18  C   UNL     1       3.307   3.745  20.062  0.00  0.00    +0.000 A 
ATOM     19  C   UNL     1       2.340   3.099  20.835  0.00  0.00    +0.000 A 
ATOM     20  C   UNL     1       1.079   2.824  20.301  0.00  0.00    +0.000 A 
ATOM     21  C   UNL     1       0.792   3.162  18.982  0.00  0.00    +0.000 A 
ATOM     22  C   UNL     1       1.756   3.801  18.200  0.00  0.00    +0.000 A 
ENDBRANCH   5  17
BRANCH   3  23
ATOM     23  C   UNL     1       6.782   5.071  15.931  0.00  0.00    +0.000 C 
ATOM     24  O   UNL     1       7.787   4.513  16.339  0.00  0.00    +0.000 OA
BRANCH  23  25
ATOM     25  O   UNL     1       6.640   5.515  14.659  0.00  0.00    +0.000 OA
ATOM     26  H   UNL     1       7.440   5.219  14.164  0.00  0.00    +0.000 HD
ENDBRANCH  23  25
ENDBRANCH   3  23
TORSDOF 7
ENDMDL
MODEL 4
REMARK VINA RESULT:      -8.4      1.504      2.193
REMARK  Name = 
REMARK  9 active torsions:
REMARK  status: ('A' for Active; 'I' for Inactive)
REMARK    1  A    between atoms: C_1  and  C_2
REMARK    2  A    between atoms: C_2  and  C_3
REMARK    3  A    between atoms: C_2  and  C_4
REMARK    4  A    between atoms: C_4  and  O_5
REMARK    5  A    between atoms: O_5  and  C_6
REMARK    6  A    between atoms: C_9  and  C_10
REMARK    7  A    between atoms: C_12  and  C_13
REMARK    8  A    between atoms: C_13  and  O_15
REMARK    9  A    between atoms: N_17  and  C_18
REMARK                            x       y       z     vdW  Elec       q    Type
REMARK                         _______ _______ _______ _____ _____    ______ ____
ROOT
ATOM      1  C   UNL     1       3.917   6.323  17.909  0.00  0.00    +0.000 A 
ATOM      2  C   UNL     1       4.992   6.531  17.061  0.00  0.00    +0.000 A 
ATOM      3  C   UNL     1       5.683   5.312  16.992  0.00  0.00    +0.000 A 
ATOM      4  N   UNL     1       5.099   4.370  17.752  0.00  0.00    +0.000 NA
ATOM      5  N   UNL     1       3.944   4.956  18.197  0.00  0.00    +0.000 N 
ENDROOT
BRANCH   1   9
ATOM      6  C   UNL     1       1.030   9.197  19.260  0.00  0.00    +0.000 A 
ATOM      7  C   UNL     1       1.600   9.282  17.988  0.00  0.00    +0.000 A 
ATOM      8  C   UNL     1       2.546   8.349  17.569  0.00  0.00    +0.000 A 
ATOM      9  C   UNL     1       2.967   7.324  18.418  0.00  0.00    +0.000 A 
ATOM     10  C   UNL     1       2.461   7.305  19.728  0.00  0.00    +0.000 A 
ATOM     11  C   UNL     1       1.464   8.201  20.129  0.00  0.00    +0.000 A 
BRANCH   6  12
ATOM     12  O   UNL     1       0.060  10.037  19.745  0.00  0.00    +0.000 OA
BRANCH  12  13
ATOM     13  C   UNL     1      -0.524  10.886  18.757  0.00  0.00    +0.000 C 
BRANCH  13  15
ATOM     14  C   UNL     1      -2.898  11.573  18.545  0.00  0.00    +0.000 C 
ATOM     15  C   UNL     1      -1.921  10.411  18.361  0.00  0.00    +0.000 C 
ATOM     16  C   UNL     1      -1.951   9.899  16.922  0.00  0.00    +0.000 C 
ENDBRANCH  13  15
ENDBRANCH  12  13
ENDBRANCH   6  12
ENDBRANCH   1   9
BRANCH   5  17
ATOM     17  C   UNL     1       2.976   4.166  18.879  0.00  0.00    +0.000 A 
ATOM     18  C   UNL     1       3.172   3.871  20.234  0.00  0.00    +0.000 A 
ATOM     19  C   UNL     1       2.156   3.248  20.961  0.00  0.00    +0.000 A 
ATOM     20  C   UNL     1       0.960   2.891  20.335  0.00  0.00    +0.000 A 
ATOM     21  C   UNL     1       0.788   3.125  18.973  0.00  0.00    +0.000 A 
ATOM     22  C   UNL     1       1.802   3.740  18.239  0.00  0.00    +0.000 A 
ENDBRANCH   5  17
BRANCH   3  23
ATOM     23  C   UNL     1       6.906   5.015  16.235  0.00  0.00    +0.000 C 
ATOM     24  O   UNL     1       7.857   4.398  16.686  0.00  0.00    +0.000 OA
BRANCH  23  25
ATOM     25  O   UNL     1       6.869   5.511  14.975  0.00  0.00    +0.000 OA
ATOM     26  H   UNL     1       6.584   6.451  15.047  0.00  0.00    +0.000 HD
ENDBRANCH  23  25
ENDBRANCH   3  23
TORSDOF 7
ENDMDL
MODEL 5
REMARK VINA RESULT:      -8.4      0.491      1.016
REMARK  Name = 
REMARK  9 active torsions:
REMARK  status: ('A' for Active; 'I' for Inactive)
REMARK    1  A    between atoms: C_1  and  C_2
REMARK    2  A    between atoms: C_2  and  C_3
REMARK    3  A    between atoms: C_2  and  C_4
REMARK    4  A    between atoms: C_4  and  O_5
REMARK    5  A    between atoms: O_5  and  C_6
REMARK    6  A    between atoms: C_9  and  C_10
REMARK    7  A    between atoms: C_12  and  C_13
REMARK    8  A    between atoms: C_13  and  O_15
REMARK    9  A    between atoms: N_17  and  C_18
REMARK                            x       y       z     vdW  Elec       q    Type
REMARK                         _______ _______ _______ _____ _____    ______ ____
ROOT
ATOM      1  C   UNL     1       4.008   6.233  17.851  0.00  0.00    +0.000 A 
ATOM      2  C   UNL     1       5.121   6.485  17.066  0.00  0.00    +0.000 A 
ATOM      3  C   UNL     1       5.821   5.272  16.973  0.00  0.00    +0.000 A 
ATOM      4  N   UNL     1       5.207   4.294  17.659  0.00  0.00    +0.000 NA
ATOM      5  N   UNL     1       4.029   4.854  18.076  0.00  0.00    +0.000 N 
ENDROOT
BRANCH   1   9
ATOM      6  C   UNL     1       1.269   9.112  19.471  0.00  0.00    +0.000 A 
ATOM      7  C   UNL     1       1.684   8.004  20.215  0.00  0.00    +0.000 A 
ATOM      8  C   UNL     1       2.563   7.072  19.670  0.00  0.00    +0.000 A 
ATOM      9  C   UNL     1       3.029   7.205  18.361  0.00  0.00    +0.000 A 
ATOM     10  C   UNL     1       2.531   8.268  17.590  0.00  0.00    +0.000 A 
ATOM     11  C   UNL     1       1.699   9.241  18.155  0.00  0.00    +0.000 A 
BRANCH   6  12
ATOM     12  O   UNL     1       0.446  10.106  19.935  0.00  0.00    +0.000 OA
BRANCH  12  13
ATOM     13  C   UNL     1       0.836  10.647  21.198  0.00  0.00    +0.000 C 
BRANCH  13  15
ATOM     14  C   UNL     1      -1.375  11.711  20.835  0.00  0.00    +0.000 C 
ATOM     15  C   UNL     1      -0.327  11.355  21.891  0.00  0.00    +0.000 C 
ATOM     16  C   UNL     1      -0.936  10.486  22.989  0.00  0.00    +0.000 C 
ENDBRANCH  13  15
ENDBRANCH  12  13
ENDBRANCH   6  12
ENDBRANCH   1   9
BRANCH   5  17
ATOM     17  C   UNL     1       3.034   4.029  18.673  0.00  0.00    +0.000 A 
ATOM     18  C   UNL     1       3.221   3.583  19.987  0.00  0.00    +0.000 A 
ATOM     19  C   UNL     1       2.183   2.921  20.646  0.00  0.00    +0.000 A 
ATOM     20  C   UNL     1       0.975   2.676  19.991  0.00  0.00    +0.000 A 
ATOM     21  C   UNL     1       0.811   3.062  18.664  0.00  0.00    +0.000 A 
ATOM     22  C   UNL     1       1.846   3.717  17.995  0.00  0.00    +0.000 A 
ENDBRANCH   5  17
BRANCH   3  23
ATOM     23  C   UNL     1       7.081   5.016  16.262  0.00  0.00    +0.000 C 
ATOM     24  O   UNL     1       7.376   5.519  15.191  0.00  0.00    +0.000 OA
BRANCH  23  25
ATOM     25  O   UNL     1       7.883   4.147  16.924  0.00  0.00    +0.000 OA
ATOM     26  H   UNL     1       7.387   3.854  17.723  0.00  0.00    +0.000 HD
ENDBRANCH  23  25
ENDBRANCH   3  23
TORSDOF 7
ENDMDL
MODEL 6
REMARK VINA RESULT:      -8.4      0.647      1.161
REMARK  Name = 
REMARK  9 active torsions:
REMARK  status: ('A' for Active; 'I' for Inactive)
REMARK    1  A    between atoms: C_1  and  C_2
REMARK    2  A    between atoms: C_2  and  C_3
REMARK    3  A    between atoms: C_2  and  C_4
REMARK    4  A    between atoms: C_4  and  O_5
REMARK    5  A    between atoms: O_5  and  C_6
REMARK    6  A    between atoms: C_9  and  C_10
REMARK    7  A    between atoms: C_12  and  C_13
REMARK    8  A    between atoms: C_13  and  O_15
REMARK    9  A    between atoms: N_17  and  C_18
REMARK                            x       y       z     vdW  Elec       q    Type
REMARK                         _______ _______ _______ _____ _____    ______ ____
ROOT
ATOM      1  C   UNL     1       3.639   6.480  17.812  0.00  0.00    +0.000 A 
ATOM      2  C   UNL     1       4.668   6.701  16.911  0.00  0.00    +0.000 A 
ATOM      3  C   UNL     1       5.381   5.496  16.823  0.00  0.00    +0.000 A 
ATOM      4  N   UNL     1       4.855   4.551  17.620  0.00  0.00    +0.000 NA
ATOM      5  N   UNL     1       3.710   5.118  18.113  0.00  0.00    +0.000 N 
ENDROOT
BRANCH   1   9
ATOM      6  C   UNL     1       1.004   9.405  19.520  0.00  0.00    +0.000 A 
ATOM      7  C   UNL     1       1.479   8.327  20.272  0.00  0.00    +0.000 A 
ATOM      8  C   UNL     1       2.323   7.379  19.699  0.00  0.00    +0.000 A 
ATOM      9  C   UNL     1       2.693   7.466  18.355  0.00  0.00    +0.000 A 
ATOM     10  C   UNL     1       2.132   8.497  17.585  0.00  0.00    +0.000 A 
ATOM     11  C   UNL     1       1.337   9.487  18.173  0.00  0.00    +0.000 A 
BRANCH   6  12
ATOM     12  O   UNL     1       0.209  10.411  20.006  0.00  0.00    +0.000 OA
BRANCH  12  13
ATOM     13  C   UNL     1       0.517  10.806  21.343  0.00  0.00    +0.000 C 
BRANCH  13  15
ATOM     14  C   UNL     1      -0.123   9.546  23.382  0.00  0.00    +0.000 C 
ATOM     15  C   UNL     1      -0.634  10.500  22.300  0.00  0.00    +0.000 C 
ATOM     16  C   UNL     1      -1.199  11.775  22.922  0.00  0.00    +0.000 C 
ENDBRANCH  13  15
ENDBRANCH  12  13
ENDBRANCH   6  12
ENDBRANCH   1   9
BRANCH   5  17
ATOM     17  C   UNL     1       2.793   4.315  18.850  0.00  0.00    +0.000 A 
ATOM     18  C   UNL     1       1.654   3.819  18.203  0.00  0.00    +0.000 A 
ATOM     19  C   UNL     1       0.837   2.893  18.854  0.00  0.00    +0.000 A 
ATOM     20  C   UNL     1       1.133   2.485  20.156  0.00  0.00    +0.000 A 
ATOM     21  C   UNL     1       2.229   3.027  20.824  0.00  0.00    +0.000 A 
ATOM     22  C   UNL     1       3.046   3.958  20.182  0.00  0.00    +0.000 A 
ENDBRANCH   5  17
BRANCH   3  23
ATOM     23  C   UNL     1       6.573   5.217  16.010  0.00  0.00    +0.000 C 
ATOM     24  O   UNL     1       6.701   4.234  15.300  0.00  0.00    +0.000 OA
BRANCH  23  25
ATOM     25  O   UNL     1       7.526   6.171  16.142  0.00  0.00    +0.000 OA
ATOM     26  H   UNL     1       8.372   5.771  15.834  0.00  0.00    +0.000 HD
ENDBRANCH  23  25
ENDBRANCH   3  23
TORSDOF 7
ENDMDL
MODEL 7
REMARK VINA RESULT:      -8.4      0.616      1.448
REMARK  Name = 
REMARK  9 active torsions:
REMARK  status: ('A' for Active; 'I' for Inactive)
REMARK    1  A    between atoms: C_1  and  C_2
REMARK    2  A    between atoms: C_2  and  C_3
REMARK    3  A    between atoms: C_2  and  C_4
REMARK    4  A    between atoms: C_4  and  O_5
REMARK    5  A    between atoms: O_5  and  C_6
REMARK    6  A    between atoms: C_9  and  C_10
REMARK    7  A    between atoms: C_12  and  C_13
REMARK    8  A    between atoms: C_13  and  O_15
REMARK    9  A    between atoms: N_17  and  C_18
REMARK                            x       y       z     vdW  Elec       q    Type
REMARK                         _______ _______ _______ _____ _____    ______ ____
ROOT
ATOM      1  C   UNL     1       3.928   6.034  17.792  0.00  0.00    +0.000 A 
ATOM      2  C   UNL     1       4.928   6.155  16.842  0.00  0.00    +0.000 A 
ATOM      3  C   UNL     1       5.569   4.907  16.781  0.00  0.00    +0.000 A 
ATOM      4  N   UNL     1       5.025   4.031  17.642  0.00  0.00    +0.000 NA
ATOM      5  N   UNL     1       3.935   4.684  18.154  0.00  0.00    +0.000 N 
ENDROOT
BRANCH   1   9
ATOM      6  C   UNL     1       1.284   9.100  19.215  0.00  0.00    +0.000 A 
ATOM      7  C   UNL     1       1.863   9.170  17.945  0.00  0.00    +0.000 A 
ATOM      8  C   UNL     1       2.730   8.174  17.504  0.00  0.00    +0.000 A 
ATOM      9  C   UNL     1       3.062   7.096  18.326  0.00  0.00    +0.000 A 
ATOM     10  C   UNL     1       2.552   7.085  19.634  0.00  0.00    +0.000 A 
ATOM     11  C   UNL     1       1.631   8.049  20.057  0.00  0.00    +0.000 A 
BRANCH   6  12
ATOM     12  O   UNL     1       0.385  10.004  19.720  0.00  0.00    +0.000 OA
BRANCH  12  13
ATOM     13  C   UNL     1      -0.345   9.533  20.853  0.00  0.00    +0.000 C 
BRANCH  13  15
ATOM     14  C   UNL     1      -1.102  11.456  22.224  0.00  0.00    +0.000 C 
ATOM     15  C   UNL     1      -0.042  10.360  22.101  0.00  0.00    +0.000 C 
ATOM     16  C   UNL     1      -0.013   9.489  23.356  0.00  0.00    +0.000 C 
ENDBRANCH  13  15
ENDBRANCH  12  13
ENDBRANCH   6  12
ENDBRANCH   1   9
BRANCH   5  17
ATOM     17  C   UNL     1       3.006   3.969  18.962  0.00  0.00    +0.000 A 
ATOM     18  C   UNL     1       3.364   3.637  20.275  0.00  0.00    +0.000 A 
ATOM     19  C   UNL     1       2.409   3.091  21.135  0.00  0.00    +0.000 A 
ATOM     20  C   UNL     1       1.110   2.849  20.682  0.00  0.00    +0.000 A 
ATOM     21  C   UNL     1       0.771   3.118  19.359  0.00  0.00    +0.000 A 
ATOM     22  C   UNL     1       1.722   3.656  18.491  0.00  0.00    +0.000 A 
ENDBRANCH   5  17
BRANCH   3  23
ATOM     23  C   UNL     1       6.708   4.524  15.936  0.00  0.00    +0.000 C 
ATOM     24  O   UNL     1       6.628   4.309  14.738  0.00  0.00    +0.000 OA
BRANCH  23  25
ATOM     25  O   UNL     1       7.863   4.425  16.636  0.00  0.00    +0.000 OA
ATOM     26  H   UNL     1       8.574   4.799  16.066  0.00  0.00    +0.000 HD
ENDBRANCH  23  25
ENDBRANCH   3  23
TORSDOF 7
ENDMDL
MODEL 8
REMARK VINA RESULT:      -8.3      0.725      1.446
REMARK  Name = 
REMARK  9 active torsions:
REMARK  status: ('A' for Active; 'I' for Inactive)
REMARK    1  A    between atoms: C_1  and  C_2
REMARK    2  A    between atoms: C_2  and  C_3
REMARK    3  A    between atoms: C_2  and  C_4
REMARK    4  A    between atoms: C_4  and  O_5
REMARK    5  A    between atoms: O_5  and  C_6
REMARK    6  A    between atoms: C_9  and  C_10
REMARK    7  A    between atoms: C_12  and  C_13
REMARK    8  A    between atoms: C_13  and  O_15
REMARK    9  A    between atoms: N_17  and  C_18
REMARK                            x       y       z     vdW  Elec       q    Type
REMARK                         _______ _______ _______ _____ _____    ______ ____
ROOT
ATOM      1  C   UNL     1       3.601   6.468  17.826  0.00  0.00    +0.000 A 
ATOM      2  C   UNL     1       4.592   6.632  16.873  0.00  0.00    +0.000 A 
ATOM      3  C   UNL     1       5.275   5.407  16.799  0.00  0.00    +0.000 A 
ATOM      4  N   UNL     1       4.764   4.506  17.654  0.00  0.00    +0.000 NA
ATOM      5  N   UNL     1       3.655   5.117  18.176  0.00  0.00    +0.000 N 
ENDROOT
BRANCH   1   9
ATOM      6  C   UNL     1       1.101   9.502  19.548  0.00  0.00    +0.000 A 
ATOM      7  C   UNL     1       1.484   8.374  20.278  0.00  0.00    +0.000 A 
ATOM      8  C   UNL     1       2.284   7.392  19.701  0.00  0.00    +0.000 A 
ATOM      9  C   UNL     1       2.701   7.496  18.372  0.00  0.00    +0.000 A 
ATOM     10  C   UNL     1       2.231   8.583  17.619  0.00  0.00    +0.000 A 
ATOM     11  C   UNL     1       1.481   9.603  18.214  0.00  0.00    +0.000 A 
BRANCH   6  12
ATOM     12  O   UNL     1       0.356  10.542  20.042  0.00  0.00    +0.000 OA
BRANCH  12  13
ATOM     13  C   UNL     1      -0.641  10.151  20.986  0.00  0.00    +0.000 C 
BRANCH  13  15
ATOM     14  C   UNL     1      -1.486  11.539  22.859  0.00  0.00    +0.000 C 
ATOM     15  C   UNL     1      -0.323  10.666  22.388  0.00  0.00    +0.000 C 
ATOM     16  C   UNL     1      -0.076   9.517  23.363  0.00  0.00    +0.000 C 
ENDBRANCH  13  15
ENDBRANCH  12  13
ENDBRANCH   6  12
ENDBRANCH   1   9
BRANCH   5  17
ATOM     17  C   UNL     1       2.754   4.364  18.981  0.00  0.00    +0.000 A 
ATOM     18  C   UNL     1       1.619   3.800  18.385  0.00  0.00    +0.000 A 
ATOM     19  C   UNL     1       0.820   2.919  19.116  0.00  0.00    +0.000 A 
ATOM     20  C   UNL     1       1.130   2.623  20.445  0.00  0.00    +0.000 A 
ATOM     21  C   UNL     1       2.221   3.233  21.058  0.00  0.00    +0.000 A 
ATOM     22  C   UNL     1       3.020   4.120  20.337  0.00  0.00    +0.000 A 
ENDBRANCH   5  17
BRANCH   3  23
ATOM     23  C   UNL     1       6.423   5.070  15.947  0.00  0.00    +0.000 C 
ATOM     24  O   UNL     1       7.396   5.790  15.795  0.00  0.00    +0.000 OA
BRANCH  23  25
ATOM     25  O   UNL     1       6.280   3.870  15.335  0.00  0.00    +0.000 OA
ATOM     26  H   UNL     1       6.052   4.055  14.395  0.00  0.00    +0.000 HD
ENDBRANCH  23  25
ENDBRANCH   3  23
TORSDOF 7
ENDMDL
MODEL 9
REMARK VINA RESULT:      -8.3      0.788      1.759
REMARK  Name = 
REMARK  9 active torsions:
REMARK  status: ('A' for Active; 'I' for Inactive)
REMARK    1  A    between atoms: C_1  and  C_2
REMARK    2  A    between atoms: C_2  and  C_3
REMARK    3  A    between atoms: C_2  and  C_4
REMARK    4  A    between atoms: C_4  and  O_5
REMARK    5  A    between atoms: O_5  and  C_6
REMARK    6  A    between atoms: C_9  and  C_10
REMARK    7  A    between atoms: C_12  and  C_13
REMARK    8  A    between atoms: C_13  and  O_15
REMARK    9  A    between atoms: N_17  and  C_18
REMARK                            x       y       z     vdW  Elec       q    Type
REMARK                         _______ _______ _______ _____ _____    ______ ____
ROOT
ATOM      1  C   UNL     1       3.724   6.116  17.847  0.00  0.00    +0.000 A 
ATOM      2  C   UNL     1       4.679   6.160  16.845  0.00  0.00    +0.000 A 
ATOM      3  C   UNL     1       5.283   4.894  16.819  0.00  0.00    +0.000 A 
ATOM      4  N   UNL     1       4.760   4.078  17.749  0.00  0.00    +0.000 NA
ATOM      5  N   UNL     1       3.714   4.786  18.278  0.00  0.00    +0.000 N 
ENDROOT
BRANCH   1   9
ATOM      6  C   UNL     1       1.237   9.328  19.228  0.00  0.00    +0.000 A 
ATOM      7  C   UNL     1       1.799   9.342  17.950  0.00  0.00    +0.000 A 
ATOM      8  C   UNL     1       2.615   8.298  17.521  0.00  0.00    +0.000 A 
ATOM      9  C   UNL     1       2.913   7.227  18.366  0.00  0.00    +0.000 A 
ATOM     10  C   UNL     1       2.423   7.271  19.681  0.00  0.00    +0.000 A 
ATOM     11  C   UNL     1       1.551   8.285  20.093  0.00  0.00    +0.000 A 
BRANCH   6  12
ATOM     12  O   UNL     1       0.386  10.284  19.723  0.00  0.00    +0.000 OA
BRANCH  12  13
ATOM     13  C   UNL     1      -0.455   9.825  20.782  0.00  0.00    +0.000 C 
BRANCH  13  15
ATOM     14  C   UNL     1      -1.178  11.619  22.336  0.00  0.00    +0.000 C 
ATOM     15  C   UNL     1      -0.133  10.527  22.100  0.00  0.00    +0.000 C 
ATOM     16  C   UNL     1      -0.105   9.541  23.266  0.00  0.00    +0.000 C 
ENDBRANCH  13  15
ENDBRANCH  12  13
ENDBRANCH   6  12
ENDBRANCH   1   9
BRANCH   5  17
ATOM     17  C   UNL     1       2.809   4.140  19.166  0.00  0.00    +0.000 A 
ATOM     18  C   UNL     1       1.576   3.695  18.673  0.00  0.00    +0.000 A 
ATOM     19  C   UNL     1       0.751   2.909  19.481  0.00  0.00    +0.000 A 
ATOM     20  C   UNL     1       1.136   2.594  20.785  0.00  0.00    +0.000 A 
ATOM     21  C   UNL     1       2.332   3.090  21.298  0.00  0.00    +0.000 A 
ATOM     22  C   UNL     1       3.158   3.881  20.500  0.00  0.00    +0.000 A 
ENDBRANCH   5  17
BRANCH   3  23
ATOM     23  C   UNL     1       6.369   4.436  15.941  0.00  0.00    +0.000 C 
ATOM     24  O   UNL     1       7.338   5.114  15.642  0.00  0.00    +0.000 OA
BRANCH  23  25
ATOM     25  O   UNL     1       6.174   3.174  15.489  0.00  0.00    +0.000 OA
ATOM     26  H   UNL     1       6.972   2.934  14.963  0.00  0.00    +0.000 HD
ENDBRANCH  23  25
ENDBRANCH   3  23
TORSDOF 7
ENDMDL
