MODEL 1
REMARK VINA RESULT:      -8.2      0.000      0.000
REMARK  Name = 
REMARK  7 active torsions:
REMARK  status: ('A' for Active; 'I' for Inactive)
REMARK    1  A    between atoms: C_1  and  O_2
REMARK    2  A    between atoms: O_2  and  C_3
REMARK    3  A    between atoms: C_6  and  N_7
REMARK    4  A    between atoms: C_12  and  C_13
REMARK    5  A    between atoms: N_22  and  C_23
REMARK    6  A    between atoms: C_25  and  O_26
REMARK    7  A    between atoms: O_26  and  C_27
REMARK                            x       y       z     vdW  Elec       q    Type
REMARK                         _______ _______ _______ _____ _____    ______ ____
ROOT
ATOM      1  N   UNL     1       4.172   3.611  17.395  0.00  0.00    +0.000 N 
ATOM      2  C   UNL     1       3.512   4.477  18.246  0.00  0.00    +0.000 A 
ATOM      3  N   UNL     1       3.219   5.682  17.814  0.00  0.00    +0.000 NA
ATOM      4  C   UNL     1       2.570   6.524  18.712  0.00  0.00    +0.000 A 
ATOM      5  C   UNL     1       2.218   7.865  18.433  0.00  0.00    +0.000 A 
ATOM      6  C   UNL     1       1.614   8.453  19.528  0.00  0.00    +0.000 A 
ATOM      7  S   UNL     1       1.486   7.351  20.848  0.00  0.00    +0.000 S 
ATOM      8  C   UNL     1       2.232   6.124  19.963  0.00  0.00    +0.000 A 
ATOM      9  C   UNL     1       2.494   4.811  20.460  0.00  0.00    +0.000 A 
ATOM     10  O   UNL     1       2.176   4.421  21.582  0.00  0.00    +0.000 OA
ATOM     11  N   UNL     1       3.171   4.009  19.532  0.00  0.00    +0.000 N 
ATOM     12  C   UNL     1       3.544   2.678  19.986  0.00  0.00    +0.000 C 
ATOM     13  H   UNL     1       4.328   2.664  17.710  0.00  0.00    +0.000 HD
ENDROOT
BRANCH   1  17
ATOM     14  C   UNL     1       7.084   5.041  14.690  0.00  0.00    +0.000 A 
ATOM     15  C   UNL     1       6.257   3.970  14.325  0.00  0.00    +0.000 A 
ATOM     16  C   UNL     1       5.314   3.459  15.215  0.00  0.00    +0.000 A 
ATOM     17  C   UNL     1       5.199   3.984  16.501  0.00  0.00    +0.000 A 
ATOM     18  C   UNL     1       6.126   4.951  16.904  0.00  0.00    +0.000 A 
ATOM     19  C   UNL     1       7.071   5.491  16.018  0.00  0.00    +0.000 A 
BRANCH  14  21
ATOM     20  C   UNL     1       7.745   5.137  12.432  0.00  0.00    +0.000 C 
ATOM     21  O   UNL     1       7.895   5.641  13.763  0.00  0.00    +0.000 OA
ENDBRANCH  14  21
BRANCH  19  22
ATOM     22  O   UNL     1       7.843   6.448  16.618  0.00  0.00    +0.000 OA
ATOM     23  C   UNL     1       7.222   7.422  17.441  0.00  0.00    +0.000 C 
ENDBRANCH  19  22
ENDBRANCH   1  17
BRANCH   6  24
ATOM     24  C   UNL     1       1.118   9.869  19.607  0.00  0.00    +0.000 A 
ATOM     25  C   UNL     1       1.265  10.838  18.565  0.00  0.00    +0.000 A 
ATOM     26  C   UNL     1       0.729  12.061  18.900  0.00  0.00    +0.000 A 
ATOM     27  S   UNL     1       0.045  12.050  20.465  0.00  0.00    +0.000 S 
ATOM     28  C   UNL     1       0.462  10.402  20.698  0.00  0.00    +0.000 A 
ENDBRANCH   6  24
TORSDOF 4
ENDMDL
MODEL 2
REMARK VINA RESULT:      -7.9      1.014      1.161
REMARK  Name = 
REMARK  7 active torsions:
REMARK  status: ('A' for Active; 'I' for Inactive)
REMARK    1  A    between atoms: C_1  and  O_2
REMARK    2  A    between atoms: O_2  and  C_3
REMARK    3  A    between atoms: C_6  and  N_7
REMARK    4  A    between atoms: C_12  and  C_13
REMARK    5  A    between atoms: N_22  and  C_23
REMARK    6  A    between atoms: C_25  and  O_26
REMARK    7  A    between atoms: O_26  and  C_27
REMARK                            x       y       z     vdW  Elec       q    Type
REMARK                         _______ _______ _______ _____ _____    ______ ____
ROOT
ATOM      1  N   UNL     1       3.867   4.325  17.463  0.00  0.00    +0.000 N 
ATOM      2  C   UNL     1       3.221   5.338  18.146  0.00  0.00    +0.000 A 
ATOM      3  N   UNL     1       3.089   6.506  17.562  0.00  0.00    +0.000 NA
ATOM      4  C   UNL     1       2.449   7.500  18.295  0.00  0.00    +0.000 A 
ATOM      5  C   UNL     1       2.258   8.826  17.842  0.00  0.00    +0.000 A 
ATOM      6  C   UNL     1       1.619   9.587  18.803  0.00  0.00    +0.000 A 
ATOM      7  S   UNL     1       1.264   8.660  20.212  0.00  0.00    +0.000 S 
ATOM      8  C   UNL     1       1.961   7.279  19.542  0.00  0.00    +0.000 A 
ATOM      9  C   UNL     1       2.046   6.013  20.199  0.00  0.00    +0.000 A 
ATOM     10  O   UNL     1       1.591   5.785  21.318  0.00  0.00    +0.000 OA
ATOM     11  N   UNL     1       2.722   5.053  19.434  0.00  0.00    +0.000 N 
ATOM     12  C   UNL     1       2.918   3.755  20.061  0.00  0.00    +0.000 C 
ATOM     13  H   UNL     1       3.899   3.410  17.891  0.00  0.00    +0.000 HD
ENDROOT
BRANCH   1  17
ATOM     14  C   UNL     1       7.126   5.161  14.909  0.00  0.00    +0.000 A 
ATOM     15  C   UNL     1       6.279   4.080  14.630  0.00  0.00    +0.000 A 
ATOM     16  C   UNL     1       5.219   3.765  15.478  0.00  0.00    +0.000 A 
ATOM     17  C   UNL     1       5.002   4.500  16.642  0.00  0.00    +0.000 A 
ATOM     18  C   UNL     1       5.938   5.482  16.987  0.00  0.00    +0.000 A 
ATOM     19  C   UNL     1       7.001   5.826  16.137  0.00  0.00    +0.000 A 
BRANCH  14  21
ATOM     20  C   UNL     1       7.795   5.151  12.652  0.00  0.00    +0.000 C 
ATOM     21  O   UNL     1       8.064   5.563  13.995  0.00  0.00    +0.000 OA
ENDBRANCH  14  21
BRANCH  19  22
ATOM     22  O   UNL     1       7.763   6.837  16.659  0.00  0.00    +0.000 OA
ATOM     23  C   UNL     1       7.771   7.042  18.062  0.00  0.00    +0.000 C 
ENDBRANCH  19  22
ENDBRANCH   1  17
BRANCH   6  24
ATOM     24  C   UNL     1       1.260  11.041  18.680  0.00  0.00    +0.000 A 
ATOM     25  C   UNL     1       2.194  12.084  18.389  0.00  0.00    +0.000 A 
ATOM     26  C   UNL     1       1.603  13.327  18.343  0.00  0.00    +0.000 A 
ATOM     27  S   UNL     1      -0.076  13.246  18.647  0.00  0.00    +0.000 S 
ATOM     28  C   UNL     1      -0.016  11.541  18.837  0.00  0.00    +0.000 A 
ENDBRANCH   6  24
TORSDOF 4
ENDMDL
MODEL 3
REMARK VINA RESULT:      -7.7      3.488      7.914
REMARK  Name = 
REMARK  7 active torsions:
REMARK  status: ('A' for Active; 'I' for Inactive)
REMARK    1  A    between atoms: C_1  and  O_2
REMARK    2  A    between atoms: O_2  and  C_3
REMARK    3  A    between atoms: C_6  and  N_7
REMARK    4  A    between atoms: C_12  and  C_13
REMARK    5  A    between atoms: N_22  and  C_23
REMARK    6  A    between atoms: C_25  and  O_26
REMARK    7  A    between atoms: O_26  and  C_27
REMARK                            x       y       z     vdW  Elec       q    Type
REMARK                         _______ _______ _______ _____ _____    ______ ____
ROOT
ATOM      1  N   UNL     1       2.158   6.783  20.617  0.00  0.00    +0.000 N 
ATOM      2  C   UNL     1       2.675   5.882  19.706  0.00  0.00    +0.000 A 
ATOM      3  N   UNL     1       3.458   6.332  18.751  0.00  0.00    +0.000 NA
ATOM      4  C   UNL     1       3.941   5.391  17.847  0.00  0.00    +0.000 A 
ATOM      5  C   UNL     1       4.758   5.701  16.736  0.00  0.00    +0.000 A 
ATOM      6  C   UNL     1       5.050   4.563  16.008  0.00  0.00    +0.000 A 
ATOM      7  S   UNL     1       4.333   3.161  16.709  0.00  0.00    +0.000 S 
ATOM      8  C   UNL     1       3.645   4.071  17.950  0.00  0.00    +0.000 A 
ATOM      9  C   UNL     1       2.832   3.533  18.995  0.00  0.00    +0.000 A 
ATOM     10  O   UNL     1       2.571   2.338  19.120  0.00  0.00    +0.000 OA
ATOM     11  N   UNL     1       2.348   4.520  19.864  0.00  0.00    +0.000 N 
ATOM     12  C   UNL     1       1.450   4.065  20.914  0.00  0.00    +0.000 C 
ATOM     13  H   UNL     1       1.618   6.419  21.389  0.00  0.00    +0.000 HD
ENDROOT
BRANCH   1  17
ATOM     14  C   UNL     1       0.484  10.564  19.752  0.00  0.00    +0.000 A 
ATOM     15  C   UNL     1       1.067   9.806  18.727  0.00  0.00    +0.000 A 
ATOM     16  C   UNL     1       1.656   8.572  18.996  0.00  0.00    +0.000 A 
ATOM     17  C   UNL     1       1.708   8.084  20.300  0.00  0.00    +0.000 A 
ATOM     18  C   UNL     1       1.256   8.911  21.334  0.00  0.00    +0.000 A 
ATOM     19  C   UNL     1       0.643  10.148  21.082  0.00  0.00    +0.000 A 
BRANCH  14  21
ATOM     20  C   UNL     1      -1.637  11.482  19.299  0.00  0.00    +0.000 C 
ATOM     21  O   UNL     1      -0.231  11.695  19.460  0.00  0.00    +0.000 OA
ENDBRANCH  14  21
BRANCH  19  22
ATOM     22  O   UNL     1       0.245  10.764  22.238  0.00  0.00    +0.000 OA
ATOM     23  C   UNL     1      -0.627  10.079  23.121  0.00  0.00    +0.000 C 
ENDBRANCH  19  22
ENDBRANCH   1  17
BRANCH   6  24
ATOM     24  C   UNL     1       5.881   4.506  14.757  0.00  0.00    +0.000 A 
ATOM     25  C   UNL     1       5.564   3.715  13.609  0.00  0.00    +0.000 A 
ATOM     26  C   UNL     1       6.499   3.839  12.605  0.00  0.00    +0.000 A 
ATOM     27  S   UNL     1       7.759   4.909  13.037  0.00  0.00    +0.000 S 
ATOM     28  C   UNL     1       7.053   5.212  14.571  0.00  0.00    +0.000 A 
ENDBRANCH   6  24
TORSDOF 4
ENDMDL
MODEL 4
REMARK VINA RESULT:      -7.1      0.873      1.944
REMARK  Name = 
REMARK  7 active torsions:
REMARK  status: ('A' for Active; 'I' for Inactive)
REMARK    1  A    between atoms: C_1  and  O_2
REMARK    2  A    between atoms: O_2  and  C_3
REMARK    3  A    between atoms: C_6  and  N_7
REMARK    4  A    between atoms: C_12  and  C_13
REMARK    5  A    between atoms: N_22  and  C_23
REMARK    6  A    between atoms: C_25  and  O_26
REMARK    7  A    between atoms: O_26  and  C_27
REMARK                            x       y       z     vdW  Elec       q    Type
REMARK                         _______ _______ _______ _____ _____    ______ ____
ROOT
ATOM      1  N   UNL     1       4.200   3.935  17.106  0.00  0.00    +0.000 N 
ATOM      2  C   UNL     1       3.541   4.722  18.031  0.00  0.00    +0.000 A 
ATOM      3  N   UNL     1       3.189   5.939  17.684  0.00  0.00    +0.000 NA
ATOM      4  C   UNL     1       2.544   6.700  18.653  0.00  0.00    +0.000 A 
ATOM      5  C   UNL     1       2.133   8.041  18.469  0.00  0.00    +0.000 A 
ATOM      6  C   UNL     1       1.549   8.538  19.620  0.00  0.00    +0.000 A 
ATOM      7  S   UNL     1       1.511   7.355  20.873  0.00  0.00    +0.000 S 
ATOM      8  C   UNL     1       2.266   6.213  19.889  0.00  0.00    +0.000 A 
ATOM      9  C   UNL     1       2.595   4.883  20.295  0.00  0.00    +0.000 A 
ATOM     10  O   UNL     1       2.332   4.416  21.401  0.00  0.00    +0.000 OA
ATOM     11  N   UNL     1       3.265   4.165  19.296  0.00  0.00    +0.000 N 
ATOM     12  C   UNL     1       3.702   2.825  19.655  0.00  0.00    +0.000 C 
ATOM     13  H   UNL     1       4.401   2.977  17.357  0.00  0.00    +0.000 HD
ENDROOT
BRANCH   1  17
ATOM     14  C   UNL     1       7.292   5.012  14.438  0.00  0.00    +0.000 A 
ATOM     15  C   UNL     1       7.142   5.702  15.649  0.00  0.00    +0.000 A 
ATOM     16  C   UNL     1       6.107   5.386  16.528  0.00  0.00    +0.000 A 
ATOM     17  C   UNL     1       5.179   4.400  16.201  0.00  0.00    +0.000 A 
ATOM     18  C   UNL     1       5.251   3.821  14.929  0.00  0.00    +0.000 A 
ATOM     19  C   UNL     1       6.295   4.112  14.038  0.00  0.00    +0.000 A 
BRANCH  14  21
ATOM     20  C   UNL     1       8.133   5.891  12.421  0.00  0.00    +0.000 C 
ATOM     21  O   UNL     1       8.398   5.216  13.655  0.00  0.00    +0.000 OA
ENDBRANCH  14  21
BRANCH  19  22
ATOM     22  O   UNL     1       6.183   3.402  12.873  0.00  0.00    +0.000 OA
ATOM     23  C   UNL     1       4.939   3.382  12.193  0.00  0.00    +0.000 C 
ENDBRANCH  19  22
ENDBRANCH   1  17
BRANCH   6  24
ATOM     24  C   UNL     1       1.006   9.927  19.802  0.00  0.00    +0.000 A 
ATOM     25  C   UNL     1       1.007  10.937  18.789  0.00  0.00    +0.000 A 
ATOM     26  C   UNL     1       0.458  12.123  19.223  0.00  0.00    +0.000 A 
ATOM     27  S   UNL     1      -0.065  12.027  20.846  0.00  0.00    +0.000 S 
ATOM     28  C   UNL     1       0.441  10.392  20.972  0.00  0.00    +0.000 A 
ENDBRANCH   6  24
TORSDOF 4
ENDMDL
MODEL 5
REMARK VINA RESULT:      -6.7      3.476      7.585
REMARK  Name = 
REMARK  7 active torsions:
REMARK  status: ('A' for Active; 'I' for Inactive)
REMARK    1  A    between atoms: C_1  and  O_2
REMARK    2  A    between atoms: O_2  and  C_3
REMARK    3  A    between atoms: C_6  and  N_7
REMARK    4  A    between atoms: C_12  and  C_13
REMARK    5  A    between atoms: N_22  and  C_23
REMARK    6  A    between atoms: C_25  and  O_26
REMARK    7  A    between atoms: O_26  and  C_27
REMARK                            x       y       z     vdW  Elec       q    Type
REMARK                         _______ _______ _______ _____ _____    ______ ____
ROOT
ATOM      1  N   UNL     1       2.123   6.642  20.819  0.00  0.00    +0.000 N 
ATOM      2  C   UNL     1       2.735   5.755  19.954  0.00  0.00    +0.000 A 
ATOM      3  N   UNL     1       3.358   6.231  18.901  0.00  0.00    +0.000 NA
ATOM      4  C   UNL     1       3.944   5.299  18.050  0.00  0.00    +0.000 A 
ATOM      5  C   UNL     1       4.617   5.628  16.851  0.00  0.00    +0.000 A 
ATOM      6  C   UNL     1       5.063   4.488  16.208  0.00  0.00    +0.000 A 
ATOM      7  S   UNL     1       4.659   3.064  17.092  0.00  0.00    +0.000 S 
ATOM      8  C   UNL     1       3.900   3.965  18.298  0.00  0.00    +0.000 A 
ATOM      9  C   UNL     1       3.268   3.407  19.451  0.00  0.00    +0.000 A 
ATOM     10  O   UNL     1       3.237   2.204  19.706  0.00  0.00    +0.000 OA
ATOM     11  N   UNL     1       2.671   4.380  20.263  0.00  0.00    +0.000 N 
ATOM     12  C   UNL     1       1.941   3.889  21.421  0.00  0.00    +0.000 C 
ATOM     13  H   UNL     1       1.709   6.272  21.663  0.00  0.00    +0.000 HD
ENDROOT
BRANCH   1  17
ATOM     14  C   UNL     1       0.325  10.302  19.716  0.00  0.00    +0.000 A 
ATOM     15  C   UNL     1      -0.179   9.575  20.803  0.00  0.00    +0.000 A 
ATOM     16  C   UNL     1       0.376   8.348  21.162  0.00  0.00    +0.000 A 
ATOM     17  C   UNL     1       1.424   7.804  20.423  0.00  0.00    +0.000 A 
ATOM     18  C   UNL     1       1.822   8.465  19.255  0.00  0.00    +0.000 A 
ATOM     19  C   UNL     1       1.288   9.709  18.887  0.00  0.00    +0.000 A 
BRANCH  14  21
ATOM     20  C   UNL     1      -1.370  11.640  18.778  0.00  0.00    +0.000 C 
ATOM     21  O   UNL     1      -0.117  11.574  19.465  0.00  0.00    +0.000 OA
ENDBRANCH  14  21
BRANCH  19  22
ATOM     22  O   UNL     1       1.853  10.184  17.734  0.00  0.00    +0.000 OA
ATOM     23  C   UNL     1       2.574  11.404  17.770  0.00  0.00    +0.000 C 
ENDBRANCH  19  22
ENDBRANCH   1  17
BRANCH   6  24
ATOM     24  C   UNL     1       5.807   4.446  14.904  0.00  0.00    +0.000 A 
ATOM     25  C   UNL     1       7.055   5.102  14.661  0.00  0.00    +0.000 A 
ATOM     26  C   UNL     1       7.514   4.909  13.377  0.00  0.00    +0.000 A 
ATOM     27  S   UNL     1       6.449   3.939  12.459  0.00  0.00    +0.000 S 
ATOM     28  C   UNL     1       5.370   3.771  13.783  0.00  0.00    +0.000 A 
ENDBRANCH   6  24
TORSDOF 4
ENDMDL
MODEL 6
REMARK VINA RESULT:      -6.5      3.547      7.550
REMARK  Name = 
REMARK  7 active torsions:
REMARK  status: ('A' for Active; 'I' for Inactive)
REMARK    1  A    between atoms: C_1  and  O_2
REMARK    2  A    between atoms: O_2  and  C_3
REMARK    3  A    between atoms: C_6  and  N_7
REMARK    4  A    between atoms: C_12  and  C_13
REMARK    5  A    between atoms: N_22  and  C_23
REMARK    6  A    between atoms: C_25  and  O_26
REMARK    7  A    between atoms: O_26  and  C_27
REMARK                            x       y       z     vdW  Elec       q    Type
REMARK                         _______ _______ _______ _____ _____    ______ ____
ROOT
ATOM      1  N   UNL     1       1.871   6.217  21.117  0.00  0.00    +0.000 N 
ATOM      2  C   UNL     1       2.469   5.396  20.180  0.00  0.00    +0.000 A 
ATOM      3  N   UNL     1       3.187   5.946  19.229  0.00  0.00    +0.000 NA
ATOM      4  C   UNL     1       3.756   5.081  18.298  0.00  0.00    +0.000 A 
ATOM      5  C   UNL     1       4.522   5.500  17.186  0.00  0.00    +0.000 A 
ATOM      6  C   UNL     1       4.923   4.415  16.429  0.00  0.00    +0.000 A 
ATOM      7  S   UNL     1       4.367   2.930  17.105  0.00  0.00    +0.000 S 
ATOM      8  C   UNL     1       3.603   3.735  18.374  0.00  0.00    +0.000 A 
ATOM      9  C   UNL     1       2.864   3.092  19.415  0.00  0.00    +0.000 A 
ATOM     10  O   UNL     1       2.733   1.874  19.515  0.00  0.00    +0.000 OA
ATOM     11  N   UNL     1       2.290   4.003  20.311  0.00  0.00    +0.000 N 
ATOM     12  C   UNL     1       1.458   3.433  21.360  0.00  0.00    +0.000 C 
ATOM     13  H   UNL     1       1.382   5.781  21.886  0.00  0.00    +0.000 HD
ENDROOT
BRANCH   1  17
ATOM     14  C   UNL     1       0.427  10.107  20.329  0.00  0.00    +0.000 A 
ATOM     15  C   UNL     1      -0.051   9.396  21.438  0.00  0.00    +0.000 A 
ATOM     16  C   UNL     1       0.386   8.098  21.697  0.00  0.00    +0.000 A 
ATOM     17  C   UNL     1       1.281   7.469  20.834  0.00  0.00    +0.000 A 
ATOM     18  C   UNL     1       1.637   8.131  19.654  0.00  0.00    +0.000 A 
ATOM     19  C   UNL     1       1.223   9.444  19.385  0.00  0.00    +0.000 A 
BRANCH  14  21
ATOM     20  C   UNL     1       1.068  12.335  20.742  0.00  0.00    +0.000 C 
ATOM     21  O   UNL     1       0.118  11.433  20.168  0.00  0.00    +0.000 OA
ENDBRANCH  14  21
BRANCH  19  22
ATOM     22  O   UNL     1       1.724   9.902  18.196  0.00  0.00    +0.000 OA
ATOM     23  C   UNL     1       2.598   9.072  17.449  0.00  0.00    +0.000 C 
ENDBRANCH  19  22
ENDBRANCH   1  17
BRANCH   6  24
ATOM     24  C   UNL     1       5.740   4.474  15.170  0.00  0.00    +0.000 A 
ATOM     25  C   UNL     1       5.409   3.791  13.957  0.00  0.00    +0.000 A 
ATOM     26  C   UNL     1       6.333   4.007  12.958  0.00  0.00    +0.000 A 
ATOM     27  S   UNL     1       7.597   5.034  13.471  0.00  0.00    +0.000 S 
ATOM     28  C   UNL     1       6.909   5.195  15.035  0.00  0.00    +0.000 A 
ENDBRANCH   6  24
TORSDOF 4
ENDMDL
MODEL 7
REMARK VINA RESULT:      -6.5      5.446      8.678
REMARK  Name = 
REMARK  7 active torsions:
REMARK  status: ('A' for Active; 'I' for Inactive)
REMARK    1  A    between atoms: C_1  and  O_2
REMARK    2  A    between atoms: O_2  and  C_3
REMARK    3  A    between atoms: C_6  and  N_7
REMARK    4  A    between atoms: C_12  and  C_13
REMARK    5  A    between atoms: N_22  and  C_23
REMARK    6  A    between atoms: C_25  and  O_26
REMARK    7  A    between atoms: O_26  and  C_27
REMARK                            x       y       z     vdW  Elec       q    Type
REMARK                         _______ _______ _______ _____ _____    ______ ____
ROOT
ATOM      1  N   UNL     1       0.413  11.554  18.403  0.00  0.00    +0.000 N 
ATOM      2  C   UNL     1       1.140  12.716  18.575  0.00  0.00    +0.000 A 
ATOM      3  N   UNL     1       2.414  12.714  18.255  0.00  0.00    +0.000 NA
ATOM      4  C   UNL     1       3.110  13.902  18.462  0.00  0.00    +0.000 A 
ATOM      5  C   UNL     1       4.492  14.068  18.215  0.00  0.00    +0.000 A 
ATOM      6  C   UNL     1       4.900  15.346  18.546  0.00  0.00    +0.000 A 
ATOM      7  S   UNL     1       3.588  16.299  19.131  0.00  0.00    +0.000 S 
ATOM      8  C   UNL     1       2.508  15.017  18.948  0.00  0.00    +0.000 A 
ATOM      9  C   UNL     1       1.117  15.075  19.271  0.00  0.00    +0.000 A 
ATOM     10  O   UNL     1       0.549  16.081  19.690  0.00  0.00    +0.000 OA
ATOM     11  N   UNL     1       0.466  13.851  19.071  0.00  0.00    +0.000 N 
ATOM     12  C   UNL     1      -0.939  13.803  19.447  0.00  0.00    +0.000 C 
ATOM     13  H   UNL     1      -0.581  11.586  18.583  0.00  0.00    +0.000 HD
ENDROOT
BRANCH   1  17
ATOM     14  C   UNL     1       2.120   7.812  19.365  0.00  0.00    +0.000 A 
ATOM     15  C   UNL     1       2.087   8.244  18.031  0.00  0.00    +0.000 A 
ATOM     16  C   UNL     1       1.497   9.458  17.687  0.00  0.00    +0.000 A 
ATOM     17  C   UNL     1       0.896  10.253  18.662  0.00  0.00    +0.000 A 
ATOM     18  C   UNL     1       0.804   9.746  19.963  0.00  0.00    +0.000 A 
ATOM     19  C   UNL     1       1.408   8.534  20.332  0.00  0.00    +0.000 A 
BRANCH  14  21
ATOM     20  C   UNL     1       2.520   5.527  18.961  0.00  0.00    +0.000 C 
ATOM     21  O   UNL     1       2.837   6.699  19.718  0.00  0.00    +0.000 OA
ENDBRANCH  14  21
BRANCH  19  22
ATOM     22  O   UNL     1       1.224   8.258  21.660  0.00  0.00    +0.000 OA
ATOM     23  C   UNL     1       0.761   9.285  22.522  0.00  0.00    +0.000 C 
ENDBRANCH  19  22
ENDBRANCH   1  17
BRANCH   6  24
ATOM     24  C   UNL     1       6.299  15.883  18.429  0.00  0.00    +0.000 A 
ATOM     25  C   UNL     1       7.395  15.168  17.851  0.00  0.00    +0.000 A 
ATOM     26  C   UNL     1       8.569  15.886  17.880  0.00  0.00    +0.000 A 
ATOM     27  S   UNL     1       8.360  17.422  18.596  0.00  0.00    +0.000 S 
ATOM     28  C   UNL     1       6.691  17.130  18.869  0.00  0.00    +0.000 A 
ENDBRANCH   6  24
TORSDOF 4
ENDMDL
MODEL 8
REMARK VINA RESULT:      -6.3      6.402     11.911
REMARK  Name = 
REMARK  7 active torsions:
REMARK  status: ('A' for Active; 'I' for Inactive)
REMARK    1  A    between atoms: C_1  and  O_2
REMARK    2  A    between atoms: O_2  and  C_3
REMARK    3  A    between atoms: C_6  and  N_7
REMARK    4  A    between atoms: C_12  and  C_13
REMARK    5  A    between atoms: N_22  and  C_23
REMARK    6  A    between atoms: C_25  and  O_26
REMARK    7  A    between atoms: O_26  and  C_27
REMARK                            x       y       z     vdW  Elec       q    Type
REMARK                         _______ _______ _______ _____ _____    ______ ____
ROOT
ATOM      1  N   UNL     1      -3.077  13.837  20.081  0.00  0.00    +0.000 N 
ATOM      2  C   UNL     1      -1.852  13.293  19.746  0.00  0.00    +0.000 A 
ATOM      3  N   UNL     1      -1.734  11.986  19.709  0.00  0.00    +0.000 NA
ATOM      4  C   UNL     1      -0.477  11.483  19.383  0.00  0.00    +0.000 A 
ATOM      5  C   UNL     1      -0.158  10.106  19.338  0.00  0.00    +0.000 A 
ATOM      6  C   UNL     1       1.173   9.921  19.016  0.00  0.00    +0.000 A 
ATOM      7  S   UNL     1       1.980  11.424  18.767  0.00  0.00    +0.000 S 
ATOM      8  C   UNL     1       0.572  12.293  19.094  0.00  0.00    +0.000 A 
ATOM      9  C   UNL     1       0.478  13.719  19.083  0.00  0.00    +0.000 A 
ATOM     10  O   UNL     1       1.410  14.469  18.802  0.00  0.00    +0.000 OA
ATOM     11  N   UNL     1      -0.796  14.177  19.442  0.00  0.00    +0.000 N 
ATOM     12  C   UNL     1      -0.958  15.620  19.527  0.00  0.00    +0.000 C 
ATOM     13  H   UNL     1      -3.178  14.842  20.036  0.00  0.00    +0.000 HD
ENDROOT
BRANCH   1  17
ATOM     14  C   UNL     1      -5.891  12.575  22.968  0.00  0.00    +0.000 A 
ATOM     15  C   UNL     1      -4.597  12.941  23.365  0.00  0.00    +0.000 A 
ATOM     16  C   UNL     1      -3.643  13.327  22.426  0.00  0.00    +0.000 A 
ATOM     17  C   UNL     1      -3.948  13.322  21.066  0.00  0.00    +0.000 A 
ATOM     18  C   UNL     1      -5.190  12.815  20.670  0.00  0.00    +0.000 A 
ATOM     19  C   UNL     1      -6.171  12.439  21.601  0.00  0.00    +0.000 A 
BRANCH  14  21
ATOM     20  C   UNL     1      -7.634  13.509  24.245  0.00  0.00    +0.000 C 
ATOM     21  O   UNL     1      -6.868  12.350  23.901  0.00  0.00    +0.000 OA
ENDBRANCH  14  21
BRANCH  19  22
ATOM     22  O   UNL     1      -7.318  12.014  20.987  0.00  0.00    +0.000 OA
ATOM     23  C   UNL     1      -7.361  10.710  20.430  0.00  0.00    +0.000 C 
ENDBRANCH  19  22
ENDBRANCH   1  17
BRANCH   6  24
ATOM     24  C   UNL     1       1.873   8.598  18.888  0.00  0.00    +0.000 A 
ATOM     25  C   UNL     1       2.574   8.161  17.721  0.00  0.00    +0.000 A 
ATOM     26  C   UNL     1       3.115   6.903  17.867  0.00  0.00    +0.000 A 
ATOM     27  S   UNL     1       2.786   6.244  19.408  0.00  0.00    +0.000 S 
ATOM     28  C   UNL     1       1.919   7.645  19.886  0.00  0.00    +0.000 A 
ENDBRANCH   6  24
TORSDOF 4
ENDMDL
MODEL 9
REMARK VINA RESULT:      -6.3      4.455      7.330
REMARK  Name = 
REMARK  7 active torsions:
REMARK  status: ('A' for Active; 'I' for Inactive)
REMARK    1  A    between atoms: C_1  and  O_2
REMARK    2  A    between atoms: O_2  and  C_3
REMARK    3  A    between atoms: C_6  and  N_7
REMARK    4  A    between atoms: C_12  and  C_13
REMARK    5  A    between atoms: N_22  and  C_23
REMARK    6  A    between atoms: C_25  and  O_26
REMARK    7  A    between atoms: O_26  and  C_27
REMARK                            x       y       z     vdW  Elec       q    Type
REMARK                         _______ _______ _______ _____ _____    ______ ____
ROOT
ATOM      1  N   UNL     1       0.348   9.807  17.905  0.00  0.00    +0.000 N 
ATOM      2  C   UNL     1      -0.543  10.626  18.574  0.00  0.00    +0.000 A 
ATOM      3  N   UNL     1      -0.178  11.147  19.723  0.00  0.00    +0.000 NA
ATOM      4  C   UNL     1      -1.114  11.950  20.367  0.00  0.00    +0.000 A 
ATOM      5  C   UNL     1      -0.909  12.556  21.628  0.00  0.00    +0.000 A 
ATOM      6  C   UNL     1      -2.028  13.265  22.020  0.00  0.00    +0.000 A 
ATOM      7  S   UNL     1      -3.279  13.180  20.837  0.00  0.00    +0.000 S 
ATOM      8  C   UNL     1      -2.335  12.207  19.834  0.00  0.00    +0.000 A 
ATOM      9  C   UNL     1      -2.758  11.695  18.569  0.00  0.00    +0.000 A 
ATOM     10  O   UNL     1      -3.850  11.935  18.059  0.00  0.00    +0.000 OA
ATOM     11  N   UNL     1      -1.794  10.872  17.972  0.00  0.00    +0.000 N 
ATOM     12  C   UNL     1      -2.174  10.249  16.714  0.00  0.00    +0.000 C 
ATOM     13  H   UNL     1       0.086   9.471  16.989  0.00  0.00    +0.000 HD
ENDROOT
BRANCH   1  17
ATOM     14  C   UNL     1       2.722   6.748  19.593  0.00  0.00    +0.000 A 
ATOM     15  C   UNL     1       1.928   7.554  20.420  0.00  0.00    +0.000 A 
ATOM     16  C   UNL     1       1.164   8.591  19.889  0.00  0.00    +0.000 A 
ATOM     17  C   UNL     1       1.204   8.870  18.524  0.00  0.00    +0.000 A 
ATOM     18  C   UNL     1       2.109   8.157  17.730  0.00  0.00    +0.000 A 
ATOM     19  C   UNL     1       2.873   7.097  18.243  0.00  0.00    +0.000 A 
BRANCH  14  21
ATOM     20  C   UNL     1       2.457   4.669  20.667  0.00  0.00    +0.000 C 
ATOM     21  O   UNL     1       3.344   5.635  20.095  0.00  0.00    +0.000 OA
ENDBRANCH  14  21
BRANCH  19  22
ATOM     22  O   UNL     1       3.656   6.521  17.280  0.00  0.00    +0.000 OA
ATOM     23  C   UNL     1       5.018   6.901  17.178  0.00  0.00    +0.000 C 
ENDBRANCH  19  22
ENDBRANCH   1  17
BRANCH   6  24
ATOM     24  C   UNL     1      -2.183  14.028  23.305  0.00  0.00    +0.000 A 
ATOM     25  C   UNL     1      -3.426  14.231  23.983  0.00  0.00    +0.000 A 
ATOM     26  C   UNL     1      -3.286  14.974  25.134  0.00  0.00    +0.000 A 
ATOM     27  S   UNL     1      -1.663  15.428  25.407  0.00  0.00    +0.000 S 
ATOM     28  C   UNL     1      -1.140  14.626  23.983  0.00  0.00    +0.000 A 
ENDBRANCH   6  24
TORSDOF 4
ENDMDL
