MODEL 1
REMARK VINA RESULT:      -7.5      0.000      0.000
REMARK  Name = 
REMARK  5 active torsions:
REMARK  status: ('A' for Active; 'I' for Inactive)
REMARK    1  A    between atoms: C_4  and  C_5
REMARK    2  A    between atoms: C_7  and  N_8
REMARK    3  A    between atoms: C_13  and  O_14
REMARK    4  A    between atoms: N_18  and  C_19
REMARK    5  A    between atoms: C_19  and  C_20
REMARK                            x       y       z     vdW  Elec       q    Type
REMARK                         _______ _______ _______ _____ _____    ______ ____
ROOT
ATOM      1  O   UNL     1       2.408   8.062  17.687  0.00  0.00    +0.000 OA
ATOM      2  C   UNL     1       2.014   8.215  18.838  0.00  0.00    +0.000 C 
ATOM      3  C   UNL     1       2.177   7.211  19.929  0.00  0.00    +0.000 C 
ATOM      4  C   UNL     1       2.790   6.020  19.850  0.00  0.00    +0.000 C 
ATOM      5  S   UNL     1       1.412   7.778  21.362  0.00  0.00    +0.000 S 
ATOM      6  C   UNL     1       0.810   9.234  20.577  0.00  0.00    +0.000 C 
ATOM      7  S   UNL     1      -0.232  10.274  21.362  0.00  0.00    +0.000 S 
ATOM      8  N   UNL     1       1.299   9.312  19.289  0.00  0.00    +0.000 N 
ENDROOT
BRANCH   4   9
ATOM      9  C   UNL     1       3.420   5.520  18.627  0.00  0.00    +0.000 A 
ATOM     10  C   UNL     1       4.736   5.900  18.338  0.00  0.00    +0.000 A 
ATOM     11  C   UNL     1       5.387   5.338  17.233  0.00  0.00    +0.000 A 
ATOM     12  C   UNL     1       4.732   4.411  16.409  0.00  0.00    +0.000 A 
ATOM     13  C   UNL     1       3.412   4.049  16.689  0.00  0.00    +0.000 A 
ATOM     14  C   UNL     1       2.766   4.602  17.795  0.00  0.00    +0.000 A 
BRANCH  11  15
ATOM     15  N   UNL     1       6.779   5.712  16.944  0.00  0.00    +0.000 N 
ATOM     16  O   UNL     1       7.025   6.913  16.760  0.00  0.00    +0.000 OA
ATOM     17  O   UNL     1       7.619   4.805  16.892  0.00  0.00    +0.000 OA
ENDBRANCH  11  15
BRANCH  14  18
ATOM     18  O   UNL     1       1.481   4.236  18.096  0.00  0.00    +0.000 OA
ATOM     19  H   UNL     1       0.958   5.033  18.276  0.00  0.00    +0.000 HD
ENDBRANCH  14  18
ENDBRANCH   4   9
BRANCH   8  20
ATOM     20  C   UNL     1       1.037  10.405  18.350  0.00  0.00    +0.000 C 
BRANCH  20  21
ATOM     21  C   UNL     1      -0.442  10.595  18.070  0.00  0.00    +0.000 A 
ATOM     22  C   UNL     1      -1.186   9.592  17.426  0.00  0.00    +0.000 A 
ATOM     23  C   UNL     1      -2.535   9.795  17.116  0.00  0.00    +0.000 A 
ATOM     24  C   UNL     1      -3.148  11.003  17.441  0.00  0.00    +0.000 A 
ATOM     25 CL   UNL     1      -4.788  11.281  17.002  0.00  0.00    +0.000 Cl
ATOM     26  C   UNL     1      -2.436  11.992  18.111  0.00  0.00    +0.000 A 
ATOM     27  C   UNL     1      -1.091  11.786  18.430  0.00  0.00    +0.000 A 
ENDBRANCH  20  21
ENDBRANCH   8  20
TORSDOF 5
ENDMDL
MODEL 2
REMARK VINA RESULT:      -7.5      0.468      1.055
REMARK  Name = 
REMARK  5 active torsions:
REMARK  status: ('A' for Active; 'I' for Inactive)
REMARK    1  A    between atoms: C_4  and  C_5
REMARK    2  A    between atoms: C_7  and  N_8
REMARK    3  A    between atoms: C_13  and  O_14
REMARK    4  A    between atoms: N_18  and  C_19
REMARK    5  A    between atoms: C_19  and  C_20
REMARK                            x       y       z     vdW  Elec       q    Type
REMARK                         _______ _______ _______ _____ _____    ______ ____
ROOT
ATOM      1  O   UNL     1       2.631   7.900  17.802  0.00  0.00    +0.000 OA
ATOM      2  C   UNL     1       2.149   8.034  18.921  0.00  0.00    +0.000 C 
ATOM      3  C   UNL     1       2.188   6.994  19.990  0.00  0.00    +0.000 C 
ATOM      4  C   UNL     1       2.765   5.785  19.924  0.00  0.00    +0.000 C 
ATOM      5  S   UNL     1       1.326   7.547  21.373  0.00  0.00    +0.000 S 
ATOM      6  C   UNL     1       0.839   9.045  20.588  0.00  0.00    +0.000 C 
ATOM      7  S   UNL     1      -0.229  10.099  21.318  0.00  0.00    +0.000 S 
ATOM      8  N   UNL     1       1.435   9.142  19.347  0.00  0.00    +0.000 N 
ENDROOT
BRANCH   4   9
ATOM      9  C   UNL     1       3.477   5.298  18.742  0.00  0.00    +0.000 A 
ATOM     10  C   UNL     1       4.857   5.512  18.645  0.00  0.00    +0.000 A 
ATOM     11  C   UNL     1       5.567   4.951  17.575  0.00  0.00    +0.000 A 
ATOM     12  C   UNL     1       4.910   4.192  16.597  0.00  0.00    +0.000 A 
ATOM     13  C   UNL     1       3.528   3.996  16.686  0.00  0.00    +0.000 A 
ATOM     14  C   UNL     1       2.822   4.547  17.756  0.00  0.00    +0.000 A 
BRANCH  11  15
ATOM     15  N   UNL     1       7.020   5.149  17.487  0.00  0.00    +0.000 N 
ATOM     16  O   UNL     1       7.437   6.009  16.696  0.00  0.00    +0.000 OA
ATOM     17  O   UNL     1       7.742   4.440  18.201  0.00  0.00    +0.000 OA
ENDBRANCH  11  15
BRANCH  14  18
ATOM     18  O   UNL     1       1.473   4.341  17.869  0.00  0.00    +0.000 OA
ATOM     19  H   UNL     1       1.314   3.422  18.136  0.00  0.00    +0.000 HD
ENDBRANCH  14  18
ENDBRANCH   4   9
BRANCH   8  20
ATOM     20  C   UNL     1       1.288  10.270  18.425  0.00  0.00    +0.000 C 
BRANCH  20  21
ATOM     21  C   UNL     1      -0.162  10.582  18.106  0.00  0.00    +0.000 A 
ATOM     22  C   UNL     1      -0.718  11.829  18.434  0.00  0.00    +0.000 A 
ATOM     23  C   UNL     1      -2.071  12.091  18.192  0.00  0.00    +0.000 A 
ATOM     24  C   UNL     1      -2.879  11.107  17.627  0.00  0.00    +0.000 A 
ATOM     25 CL   UNL     1      -4.557  11.402  17.390  0.00  0.00    +0.000 Cl
ATOM     26  C   UNL     1      -2.336   9.878  17.264  0.00  0.00    +0.000 A 
ATOM     27  C   UNL     1      -0.982   9.620  17.496  0.00  0.00    +0.000 A 
ENDBRANCH  20  21
ENDBRANCH   8  20
TORSDOF 5
ENDMDL
MODEL 3
REMARK VINA RESULT:      -7.4      0.888      1.321
REMARK  Name = 
REMARK  5 active torsions:
REMARK  status: ('A' for Active; 'I' for Inactive)
REMARK    1  A    between atoms: C_4  and  C_5
REMARK    2  A    between atoms: C_7  and  N_8
REMARK    3  A    between atoms: C_13  and  O_14
REMARK    4  A    between atoms: N_18  and  C_19
REMARK    5  A    between atoms: C_19  and  C_20
REMARK                            x       y       z     vdW  Elec       q    Type
REMARK                         _______ _______ _______ _____ _____    ______ ____
ROOT
ATOM      1  O   UNL     1       1.767   8.253  17.868  0.00  0.00    +0.000 OA
ATOM      2  C   UNL     1       1.560   8.567  19.035  0.00  0.00    +0.000 C 
ATOM      3  C   UNL     1       1.853   7.697  20.211  0.00  0.00    +0.000 C 
ATOM      4  C   UNL     1       2.403   6.474  20.197  0.00  0.00    +0.000 C 
ATOM      5  S   UNL     1       1.337   8.476  21.655  0.00  0.00    +0.000 S 
ATOM      6  C   UNL     1       0.674   9.856  20.787  0.00  0.00    +0.000 C 
ATOM      7  S   UNL     1      -0.198  11.039  21.576  0.00  0.00    +0.000 S 
ATOM      8  N   UNL     1       0.962   9.748  19.441  0.00  0.00    +0.000 N 
ENDROOT
BRANCH   4   9
ATOM      9  C   UNL     1       2.820   5.794  18.969  0.00  0.00    +0.000 A 
ATOM     10  C   UNL     1       3.925   6.285  18.264  0.00  0.00    +0.000 A 
ATOM     11  C   UNL     1       4.402   5.577  17.154  0.00  0.00    +0.000 A 
ATOM     12  C   UNL     1       3.779   4.392  16.735  0.00  0.00    +0.000 A 
ATOM     13  C   UNL     1       2.664   3.915  17.430  0.00  0.00    +0.000 A 
ATOM     14  C   UNL     1       2.194   4.615  18.542  0.00  0.00    +0.000 A 
BRANCH  11  15
ATOM     15  N   UNL     1       5.580   6.074  16.429  0.00  0.00    +0.000 N 
ATOM     16  O   UNL     1       5.384   6.736  15.399  0.00  0.00    +0.000 OA
ATOM     17  O   UNL     1       6.696   5.793  16.884  0.00  0.00    +0.000 OA
ENDBRANCH  11  15
BRANCH  14  18
ATOM     18  O   UNL     1       1.119   4.145  19.247  0.00  0.00    +0.000 OA
ATOM     19  H   UNL     1       0.462   3.791  18.626  0.00  0.00    +0.000 HD
ENDBRANCH  14  18
ENDBRANCH   4   9
BRANCH   8  20
ATOM     20  C   UNL     1       0.598  10.731  18.418  0.00  0.00    +0.000 C 
BRANCH  20  21
ATOM     21  C   UNL     1      -0.899  10.804  18.181  0.00  0.00    +0.000 A 
ATOM     22  C   UNL     1      -1.653  11.882  18.673  0.00  0.00    +0.000 A 
ATOM     23  C   UNL     1      -3.041  11.916  18.503  0.00  0.00    +0.000 A 
ATOM     24  C   UNL     1      -3.686  10.870  17.847  0.00  0.00    +0.000 A 
ATOM     25 CL   UNL     1      -5.400  10.876  17.696  0.00  0.00    +0.000 Cl
ATOM     26  C   UNL     1      -2.951   9.812  17.324  0.00  0.00    +0.000 A 
ATOM     27  C   UNL     1      -1.563   9.783  17.484  0.00  0.00    +0.000 A 
ENDBRANCH  20  21
ENDBRANCH   8  20
TORSDOF 5
ENDMDL
MODEL 4
REMARK VINA RESULT:      -7.3      0.915      1.068
REMARK  Name = 
REMARK  5 active torsions:
REMARK  status: ('A' for Active; 'I' for Inactive)
REMARK    1  A    between atoms: C_4  and  C_5
REMARK    2  A    between atoms: C_7  and  N_8
REMARK    3  A    between atoms: C_13  and  O_14
REMARK    4  A    between atoms: N_18  and  C_19
REMARK    5  A    between atoms: C_19  and  C_20
REMARK                            x       y       z     vdW  Elec       q    Type
REMARK                         _______ _______ _______ _____ _____    ______ ____
ROOT
ATOM      1  O   UNL     1       1.721   8.278  17.928  0.00  0.00    +0.000 OA
ATOM      2  C   UNL     1       1.533   8.596  19.097  0.00  0.00    +0.000 C 
ATOM      3  C   UNL     1       1.850   7.733  20.272  0.00  0.00    +0.000 C 
ATOM      4  C   UNL     1       2.404   6.512  20.254  0.00  0.00    +0.000 C 
ATOM      5  S   UNL     1       1.356   8.517  21.722  0.00  0.00    +0.000 S 
ATOM      6  C   UNL     1       0.673   9.890  20.858  0.00  0.00    +0.000 C 
ATOM      7  S   UNL     1      -0.190  11.074  21.657  0.00  0.00    +0.000 S 
ATOM      8  N   UNL     1       0.937   9.777  19.508  0.00  0.00    +0.000 N 
ENDROOT
BRANCH   4   9
ATOM      9  C   UNL     1       2.803   5.827  19.023  0.00  0.00    +0.000 A 
ATOM     10  C   UNL     1       3.898   6.315  18.301  0.00  0.00    +0.000 A 
ATOM     11  C   UNL     1       4.358   5.602  17.185  0.00  0.00    +0.000 A 
ATOM     12  C   UNL     1       3.727   4.417  16.780  0.00  0.00    +0.000 A 
ATOM     13  C   UNL     1       2.621   3.944  17.492  0.00  0.00    +0.000 A 
ATOM     14  C   UNL     1       2.168   4.649  18.608  0.00  0.00    +0.000 A 
BRANCH  11  15
ATOM     15  N   UNL     1       5.526   6.095  16.442  0.00  0.00    +0.000 N 
ATOM     16  O   UNL     1       6.647   5.895  16.935  0.00  0.00    +0.000 OA
ATOM     17  O   UNL     1       5.321   6.688  15.376  0.00  0.00    +0.000 OA
ENDBRANCH  11  15
BRANCH  14  18
ATOM     18  O   UNL     1       1.102   4.183  19.330  0.00  0.00    +0.000 OA
ATOM     19  H   UNL     1       0.680   3.459  18.841  0.00  0.00    +0.000 HD
ENDBRANCH  14  18
ENDBRANCH   4   9
BRANCH   8  20
ATOM     20  C   UNL     1       0.552  10.753  18.487  0.00  0.00    +0.000 C 
BRANCH  20  21
ATOM     21  C   UNL     1      -0.946  10.793  18.249  0.00  0.00    +0.000 A 
ATOM     22  C   UNL     1      -1.570   9.835  17.433  0.00  0.00    +0.000 A 
ATOM     23  C   UNL     1      -2.942   9.910  17.169  0.00  0.00    +0.000 A 
ATOM     24  C   UNL     1      -3.698  10.945  17.713  0.00  0.00    +0.000 A 
ATOM     25 CL   UNL     1      -5.371  11.078  17.336  0.00  0.00    +0.000 Cl
ATOM     26  C   UNL     1      -3.103  11.882  18.552  0.00  0.00    +0.000 A 
ATOM     27  C   UNL     1      -1.735  11.801  18.824  0.00  0.00    +0.000 A 
ENDBRANCH  20  21
ENDBRANCH   8  20
TORSDOF 5
ENDMDL
MODEL 5
REMARK VINA RESULT:      -7.0      2.284      2.928
REMARK  Name = 
REMARK  5 active torsions:
REMARK  status: ('A' for Active; 'I' for Inactive)
REMARK    1  A    between atoms: C_4  and  C_5
REMARK    2  A    between atoms: C_7  and  N_8
REMARK    3  A    between atoms: C_13  and  O_14
REMARK    4  A    between atoms: N_18  and  C_19
REMARK    5  A    between atoms: C_19  and  C_20
REMARK                            x       y       z     vdW  Elec       q    Type
REMARK                         _______ _______ _______ _____ _____    ______ ____
ROOT
ATOM      1  O   UNL     1       2.135   8.186  17.541  0.00  0.00    +0.000 OA
ATOM      2  C   UNL     1       1.796   8.389  18.702  0.00  0.00    +0.000 C 
ATOM      3  C   UNL     1       2.148   7.508  19.853  0.00  0.00    +0.000 C 
ATOM      4  C   UNL     1       2.897   6.396  19.824  0.00  0.00    +0.000 C 
ATOM      5  S   UNL     1       1.408   8.102  21.289  0.00  0.00    +0.000 S 
ATOM      6  C   UNL     1       0.584   9.404  20.438  0.00  0.00    +0.000 C 
ATOM      7  S   UNL     1      -0.529  10.377  21.212  0.00  0.00    +0.000 S 
ATOM      8  N   UNL     1       0.980   9.429  19.116  0.00  0.00    +0.000 N 
ENDROOT
BRANCH   4   9
ATOM      9  C   UNL     1       3.508   5.870  18.601  0.00  0.00    +0.000 A 
ATOM     10  C   UNL     1       4.720   6.415  18.162  0.00  0.00    +0.000 A 
ATOM     11  C   UNL     1       5.371   5.844  17.060  0.00  0.00    +0.000 A 
ATOM     12  C   UNL     1       4.816   4.746  16.388  0.00  0.00    +0.000 A 
ATOM     13  C   UNL     1       3.595   4.217  16.818  0.00  0.00    +0.000 A 
ATOM     14  C   UNL     1       2.951   4.779  17.921  0.00  0.00    +0.000 A 
BRANCH  11  15
ATOM     15  N   UNL     1       6.659   6.394  16.615  0.00  0.00    +0.000 N 
ATOM     16  O   UNL     1       6.977   7.520  17.027  0.00  0.00    +0.000 OA
ATOM     17  O   UNL     1       7.344   5.706  15.848  0.00  0.00    +0.000 OA
ENDBRANCH  11  15
BRANCH  14  18
ATOM     18  O   UNL     1       1.768   4.255  18.368  0.00  0.00    +0.000 OA
ATOM     19  H   UNL     1       1.204   4.976  18.692  0.00  0.00    +0.000 HD
ENDBRANCH  14  18
ENDBRANCH   4   9
BRANCH   8  20
ATOM     20  C   UNL     1       0.529  10.399  18.117  0.00  0.00    +0.000 C 
BRANCH  20  21
ATOM     21  C   UNL     1       1.090  11.789  18.354  0.00  0.00    +0.000 A 
ATOM     22  C   UNL     1       0.249  12.848  18.732  0.00  0.00    +0.000 A 
ATOM     23  C   UNL     1       0.761  14.141  18.893  0.00  0.00    +0.000 A 
ATOM     24  C   UNL     1       2.114  14.385  18.669  0.00  0.00    +0.000 A 
ATOM     25 CL   UNL     1       2.733  15.984  18.800  0.00  0.00    +0.000 Cl
ATOM     26  C   UNL     1       2.967  13.340  18.328  0.00  0.00    +0.000 A 
ATOM     27  C   UNL     1       2.458  12.047  18.178  0.00  0.00    +0.000 A 
ENDBRANCH  20  21
ENDBRANCH   8  20
TORSDOF 5
ENDMDL
MODEL 6
REMARK VINA RESULT:      -6.9      2.250      2.917
REMARK  Name = 
REMARK  5 active torsions:
REMARK  status: ('A' for Active; 'I' for Inactive)
REMARK    1  A    between atoms: C_4  and  C_5
REMARK    2  A    between atoms: C_7  and  N_8
REMARK    3  A    between atoms: C_13  and  O_14
REMARK    4  A    between atoms: N_18  and  C_19
REMARK    5  A    between atoms: C_19  and  C_20
REMARK                            x       y       z     vdW  Elec       q    Type
REMARK                         _______ _______ _______ _____ _____    ______ ____
ROOT
ATOM      1  O   UNL     1       2.085   8.060  17.599  0.00  0.00    +0.000 OA
ATOM      2  C   UNL     1       1.769   8.314  18.756  0.00  0.00    +0.000 C 
ATOM      3  C   UNL     1       2.120   7.470  19.936  0.00  0.00    +0.000 C 
ATOM      4  C   UNL     1       2.845   6.341  19.938  0.00  0.00    +0.000 C 
ATOM      5  S   UNL     1       1.416   8.134  21.358  0.00  0.00    +0.000 S 
ATOM      6  C   UNL     1       0.607   9.421  20.470  0.00  0.00    +0.000 C 
ATOM      7  S   UNL     1      -0.473  10.447  21.222  0.00  0.00    +0.000 S 
ATOM      8  N   UNL     1       0.982   9.386  19.142  0.00  0.00    +0.000 N 
ENDROOT
BRANCH   4   9
ATOM      9  C   UNL     1       3.426   5.757  18.728  0.00  0.00    +0.000 A 
ATOM     10  C   UNL     1       4.709   6.152  18.332  0.00  0.00    +0.000 A 
ATOM     11  C   UNL     1       5.319   5.516  17.243  0.00  0.00    +0.000 A 
ATOM     12  C   UNL     1       4.655   4.501  16.540  0.00  0.00    +0.000 A 
ATOM     13  C   UNL     1       3.366   4.122  16.926  0.00  0.00    +0.000 A 
ATOM     14  C   UNL     1       2.761   4.749  18.016  0.00  0.00    +0.000 A 
BRANCH  11  15
ATOM     15  N   UNL     1       6.678   5.908  16.844  0.00  0.00    +0.000 N 
ATOM     16  O   UNL     1       7.531   5.012  16.750  0.00  0.00    +0.000 OA
ATOM     17  O   UNL     1       6.893   7.109  16.636  0.00  0.00    +0.000 OA
ENDBRANCH  11  15
BRANCH  14  18
ATOM     18  O   UNL     1       1.509   4.370  18.420  0.00  0.00    +0.000 OA
ATOM     19  H   UNL     1       1.587   3.785  19.190  0.00  0.00    +0.000 HD
ENDBRANCH  14  18
ENDBRANCH   4   9
BRANCH   8  20
ATOM     20  C   UNL     1       0.536  10.327  18.113  0.00  0.00    +0.000 C 
BRANCH  20  21
ATOM     21  C   UNL     1       1.105  11.721  18.307  0.00  0.00    +0.000 A 
ATOM     22  C   UNL     1       2.476  11.968  18.129  0.00  0.00    +0.000 A 
ATOM     23  C   UNL     1       3.006  13.242  18.366  0.00  0.00    +0.000 A 
ATOM     24  C   UNL     1       2.170  14.274  18.788  0.00  0.00    +0.000 A 
ATOM     25 CL   UNL     1       2.829  15.822  19.145  0.00  0.00    +0.000 Cl
ATOM     26  C   UNL     1       0.804  14.054  18.934  0.00  0.00    +0.000 A 
ATOM     27  C   UNL     1       0.274  12.785  18.688  0.00  0.00    +0.000 A 
ENDBRANCH  20  21
ENDBRANCH   8  20
TORSDOF 5
ENDMDL
MODEL 7
REMARK VINA RESULT:      -6.8      2.613      3.285
REMARK  Name = 
REMARK  5 active torsions:
REMARK  status: ('A' for Active; 'I' for Inactive)
REMARK    1  A    between atoms: C_4  and  C_5
REMARK    2  A    between atoms: C_7  and  N_8
REMARK    3  A    between atoms: C_13  and  O_14
REMARK    4  A    between atoms: N_18  and  C_19
REMARK    5  A    between atoms: C_19  and  C_20
REMARK                            x       y       z     vdW  Elec       q    Type
REMARK                         _______ _______ _______ _____ _____    ______ ____
ROOT
ATOM      1  O   UNL     1       1.468   8.598  18.092  0.00  0.00    +0.000 OA
ATOM      2  C   UNL     1       1.260   8.918  19.258  0.00  0.00    +0.000 C 
ATOM      3  C   UNL     1       1.640   8.094  20.443  0.00  0.00    +0.000 C 
ATOM      4  C   UNL     1       2.280   6.915  20.439  0.00  0.00    +0.000 C 
ATOM      5  S   UNL     1       1.094   8.860  21.883  0.00  0.00    +0.000 S 
ATOM      6  C   UNL     1       0.314  10.169  21.004  0.00  0.00    +0.000 C 
ATOM      7  S   UNL     1      -0.630  11.299  21.790  0.00  0.00    +0.000 S 
ATOM      8  N   UNL     1       0.583  10.058  19.655  0.00  0.00    +0.000 N 
ENDROOT
BRANCH   4   9
ATOM      9  C   UNL     1       2.723   6.245  19.215  0.00  0.00    +0.000 A 
ATOM     10  C   UNL     1       3.765   6.812  18.471  0.00  0.00    +0.000 A 
ATOM     11  C   UNL     1       4.274   6.121  17.364  0.00  0.00    +0.000 A 
ATOM     12  C   UNL     1       3.743   4.879  16.986  0.00  0.00    +0.000 A 
ATOM     13  C   UNL     1       2.690   4.325  17.720  0.00  0.00    +0.000 A 
ATOM     14  C   UNL     1       2.189   5.008  18.829  0.00  0.00    +0.000 A 
BRANCH  11  15
ATOM     15  N   UNL     1       5.387   6.699  16.598  0.00  0.00    +0.000 N 
ATOM     16  O   UNL     1       5.281   6.731  15.363  0.00  0.00    +0.000 OA
ATOM     17  O   UNL     1       6.368   7.110  17.231  0.00  0.00    +0.000 OA
ENDBRANCH  11  15
BRANCH  14  18
ATOM     18  O   UNL     1       1.175   4.465  19.571  0.00  0.00    +0.000 OA
ATOM     19  H   UNL     1       0.351   4.506  19.060  0.00  0.00    +0.000 HD
ENDBRANCH  14  18
ENDBRANCH   4   9
BRANCH   8  20
ATOM     20  C   UNL     1       0.128  10.991  18.623  0.00  0.00    +0.000 C 
BRANCH  20  21
ATOM     21  C   UNL     1       0.897  12.300  18.635  0.00  0.00    +0.000 A 
ATOM     22  C   UNL     1       0.241  13.516  18.889  0.00  0.00    +0.000 A 
ATOM     23  C   UNL     1       0.942  14.726  18.841  0.00  0.00    +0.000 A 
ATOM     24  C   UNL     1       2.301  14.730  18.532  0.00  0.00    +0.000 A 
ATOM     25 CL   UNL     1       3.150  16.220  18.406  0.00  0.00    +0.000 Cl
ATOM     26  C   UNL     1       2.972  13.531  18.313  0.00  0.00    +0.000 A 
ATOM     27  C   UNL     1       2.275  12.322  18.371  0.00  0.00    +0.000 A 
ENDBRANCH  20  21
ENDBRANCH   8  20
TORSDOF 5
ENDMDL
MODEL 8
REMARK VINA RESULT:      -6.4      7.730     10.732
REMARK  Name = 
REMARK  5 active torsions:
REMARK  status: ('A' for Active; 'I' for Inactive)
REMARK    1  A    between atoms: C_4  and  C_5
REMARK    2  A    between atoms: C_7  and  N_8
REMARK    3  A    between atoms: C_13  and  O_14
REMARK    4  A    between atoms: N_18  and  C_19
REMARK    5  A    between atoms: C_19  and  C_20
REMARK                            x       y       z     vdW  Elec       q    Type
REMARK                         _______ _______ _______ _____ _____    ______ ____
ROOT
ATOM      1  O   UNL     1      -4.084  13.442  20.356  0.00  0.00    +0.000 OA
ATOM      2  C   UNL     1      -4.299  13.607  21.551  0.00  0.00    +0.000 C 
ATOM      3  C   UNL     1      -5.652  13.581  22.180  0.00  0.00    +0.000 C 
ATOM      4  C   UNL     1      -6.825  13.349  21.571  0.00  0.00    +0.000 C 
ATOM      5  S   UNL     1      -5.523  13.940  23.857  0.00  0.00    +0.000 S 
ATOM      6  C   UNL     1      -3.786  14.210  23.762  0.00  0.00    +0.000 C 
ATOM      7  S   UNL     1      -2.926  14.791  25.068  0.00  0.00    +0.000 S 
ATOM      8  N   UNL     1      -3.331  13.909  22.494  0.00  0.00    +0.000 N 
ENDROOT
BRANCH   4   9
ATOM      9  C   UNL     1      -6.945  13.068  20.139  0.00  0.00    +0.000 A 
ATOM     10  C   UNL     1      -6.997  14.140  19.240  0.00  0.00    +0.000 A 
ATOM     11  C   UNL     1      -6.996  13.882  17.863  0.00  0.00    +0.000 A 
ATOM     12  C   UNL     1      -6.958  12.567  17.378  0.00  0.00    +0.000 A 
ATOM     13  C   UNL     1      -6.927  11.498  18.279  0.00  0.00    +0.000 A 
ATOM     14  C   UNL     1      -6.918  11.755  19.651  0.00  0.00    +0.000 A 
BRANCH  11  15
ATOM     15  N   UNL     1      -7.020  15.006  16.916  0.00  0.00    +0.000 N 
ATOM     16  O   UNL     1      -7.157  14.740  15.712  0.00  0.00    +0.000 OA
ATOM     17  O   UNL     1      -6.891  16.148  17.375  0.00  0.00    +0.000 OA
ENDBRANCH  11  15
BRANCH  14  18
ATOM     18  O   UNL     1      -6.861  10.718  20.544  0.00  0.00    +0.000 OA
ATOM     19  H   UNL     1      -7.526  10.860  21.236  0.00  0.00    +0.000 HD
ENDBRANCH  14  18
ENDBRANCH   4   9
BRANCH   8  20
ATOM     20  C   UNL     1      -1.935  13.982  22.058  0.00  0.00    +0.000 C 
BRANCH  20  21
ATOM     21  C   UNL     1      -1.282  12.616  21.952  0.00  0.00    +0.000 A 
ATOM     22  C   UNL     1      -0.593  12.237  20.788  0.00  0.00    +0.000 A 
ATOM     23  C   UNL     1      -0.043  10.956  20.672  0.00  0.00    +0.000 A 
ATOM     24  C   UNL     1      -0.183  10.043  21.715  0.00  0.00    +0.000 A 
ATOM     25 CL   UNL     1       0.433   8.446  21.549  0.00  0.00    +0.000 Cl
ATOM     26  C   UNL     1      -0.832  10.414  22.889  0.00  0.00    +0.000 A 
ATOM     27  C   UNL     1      -1.372  11.697  23.009  0.00  0.00    +0.000 A 
ENDBRANCH  20  21
ENDBRANCH   8  20
TORSDOF 5
ENDMDL
MODEL 9
REMARK VINA RESULT:      -6.3      6.640      8.884
REMARK  Name = 
REMARK  5 active torsions:
REMARK  status: ('A' for Active; 'I' for Inactive)
REMARK    1  A    between atoms: C_4  and  C_5
REMARK    2  A    between atoms: C_7  and  N_8
REMARK    3  A    between atoms: C_13  and  O_14
REMARK    4  A    between atoms: N_18  and  C_19
REMARK    5  A    between atoms: C_19  and  C_20
REMARK                            x       y       z     vdW  Elec       q    Type
REMARK                         _______ _______ _______ _____ _____    ______ ____
ROOT
ATOM      1  O   UNL     1      -4.236  12.109  21.486  0.00  0.00    +0.000 OA
ATOM      2  C   UNL     1      -4.709  12.988  22.199  0.00  0.00    +0.000 C 
ATOM      3  C   UNL     1      -3.904  13.909  23.054  0.00  0.00    +0.000 C 
ATOM      4  C   UNL     1      -2.568  13.955  23.164  0.00  0.00    +0.000 C 
ATOM      5  S   UNL     1      -4.954  14.931  23.957  0.00  0.00    +0.000 S 
ATOM      6  C   UNL     1      -6.403  14.151  23.334  0.00  0.00    +0.000 C 
ATOM      7  S   UNL     1      -7.916  14.533  23.927  0.00  0.00    +0.000 S 
ATOM      8  N   UNL     1      -6.062  13.219  22.375  0.00  0.00    +0.000 N 
ENDROOT
BRANCH   4   9
ATOM      9  C   UNL     1      -1.670  13.071  22.418  0.00  0.00    +0.000 A 
ATOM     10  C   UNL     1      -1.316  11.837  22.976  0.00  0.00    +0.000 A 
ATOM     11  C   UNL     1      -0.551  10.936  22.223  0.00  0.00    +0.000 A 
ATOM     12  C   UNL     1      -0.128  11.262  20.927  0.00  0.00    +0.000 A 
ATOM     13  C   UNL     1      -0.466  12.504  20.380  0.00  0.00    +0.000 A 
ATOM     14  C   UNL     1      -1.236  13.397  21.126  0.00  0.00    +0.000 A 
BRANCH  11  15
ATOM     15  N   UNL     1      -0.203   9.628  22.794  0.00  0.00    +0.000 N 
ATOM     16  O   UNL     1      -0.551   8.615  22.167  0.00  0.00    +0.000 OA
ATOM     17  O   UNL     1       0.407   9.614  23.871  0.00  0.00    +0.000 OA
ENDBRANCH  11  15
BRANCH  14  18
ATOM     18  O   UNL     1      -1.596  14.606  20.593  0.00  0.00    +0.000 OA
ATOM     19  H   UNL     1      -2.564  14.681  20.603  0.00  0.00    +0.000 HD
ENDBRANCH  14  18
ENDBRANCH   4   9
BRANCH   8  20
ATOM     20  C   UNL     1      -7.011  12.403  21.614  0.00  0.00    +0.000 C 
BRANCH  20  21
ATOM     21  C   UNL     1      -7.246  12.931  20.211  0.00  0.00    +0.000 A 
ATOM     22  C   UNL     1      -7.095  12.093  19.094  0.00  0.00    +0.000 A 
ATOM     23  C   UNL     1      -7.254  12.599  17.799  0.00  0.00    +0.000 A 
ATOM     24  C   UNL     1      -7.559  13.945  17.611  0.00  0.00    +0.000 A 
ATOM     25 CL   UNL     1      -7.689  14.584  16.020  0.00  0.00    +0.000 Cl
ATOM     26  C   UNL     1      -7.747  14.780  18.708  0.00  0.00    +0.000 A 
ATOM     27  C   UNL     1      -7.597  14.273  20.002  0.00  0.00    +0.000 A 
ENDBRANCH  20  21
ENDBRANCH   8  20
TORSDOF 5
ENDMDL
