MODEL 1
REMARK VINA RESULT:      -8.0      0.000      0.000
REMARK  Name = 
REMARK  6 active torsions:
REMARK  status: ('A' for Active; 'I' for Inactive)
REMARK    1  A    between atoms: C_1  and  C_2
REMARK    2  A    between atoms: C_2  and  N_3
REMARK    3  A    between atoms: C_2  and  C_22
REMARK    4  A    between atoms: N_6  and  C_7
REMARK    5  A    between atoms: C_11  and  C_12
REMARK    6  A    between atoms: N_17  and  C_18
REMARK                            x       y       z     vdW  Elec       q    Type
REMARK                         _______ _______ _______ _____ _____    ______ ____
ROOT
ATOM      1  N   UNL     1       2.446   7.400  18.940  0.00  0.00    +0.000 N 
ATOM      2  C   UNL     1       1.921   8.536  18.365  0.00  0.00    +0.000 C 
ATOM      3  O   UNL     1       2.017   8.747  17.161  0.00  0.00    +0.000 OA
ATOM      4  N   UNL     1       1.347   9.385  19.294  0.00  0.00    +0.000 N 
ATOM      5  H   UNL     1       1.968   7.059  19.756  0.00  0.00    +0.000 HD
ATOM      6  H   UNL     1       1.652   9.267  20.250  0.00  0.00    +0.000 HD
ENDROOT
BRANCH   4   7
ATOM      7  C   UNL     1       0.697  10.602  18.963  0.00  0.00    +0.000 A 
ATOM      8  C   UNL     1       1.405  11.801  18.836  0.00  0.00    +0.000 A 
ATOM      9  C   UNL     1       0.750  13.010  18.619  0.00  0.00    +0.000 A 
ATOM     10  C   UNL     1      -0.629  13.027  18.491  0.00  0.00    +0.000 A 
ATOM     11  C   UNL     1      -1.343  11.825  18.483  0.00  0.00    +0.000 A 
ATOM     12  C   UNL     1      -0.687  10.610  18.753  0.00  0.00    +0.000 A 
BRANCH  11  13
ATOM     13  C   UNL     1      -2.814  11.838  18.254  0.00  0.00    +0.000 C 
ATOM     14  O   UNL     1      -3.224  11.610  17.122  0.00  0.00    +0.000 OA
ATOM     15  N   UNL     1      -3.665  12.081  19.347  0.00  0.00    +0.000 N 
ATOM     16  C   UNL     1      -5.106  11.990  19.084  0.00  0.00    +0.000 C 
ATOM     17  C   UNL     1      -5.944  11.853  20.372  0.00  0.00    +0.000 C 
ATOM     18  N   UNL     1      -5.625  12.825  21.440  0.00  0.00    +0.000 NA
ATOM     19  C   UNL     1      -6.076  14.173  21.098  0.00  0.00    +0.000 C 
ATOM     20  C   UNL     1      -4.173  12.793  21.694  0.00  0.00    +0.000 C 
ATOM     21  C   UNL     1      -3.305  12.999  20.439  0.00  0.00    +0.000 C 
ENDBRANCH  11  13
ENDBRANCH   4   7
BRANCH   1  23
ATOM     22  C   UNL     1       4.597   6.504  18.165  0.00  0.00    +0.000 C 
ATOM     23  C   UNL     1       3.077   6.411  18.070  0.00  0.00    +0.000 C 
BRANCH  23  24
ATOM     24  C   UNL     1       2.558   5.007  18.352  0.00  0.00    +0.000 A 
ATOM     25  C   UNL     1       1.836   4.754  19.534  0.00  0.00    +0.000 A 
ATOM     26  C   UNL     1       1.382   3.467  19.834  0.00  0.00    +0.000 A 
ATOM     27  C   UNL     1       1.650   2.427  18.955  0.00  0.00    +0.000 A 
ATOM     28  F   UNL     1       1.233   1.189  19.250  0.00  0.00    +0.000 F 
ATOM     29  C   UNL     1       2.349   2.651  17.776  0.00  0.00    +0.000 A 
ATOM     30  C   UNL     1       2.799   3.939  17.472  0.00  0.00    +0.000 A 
ENDBRANCH  23  24
ENDBRANCH   1  23
TORSDOF 4
ENDMDL
MODEL 2
REMARK VINA RESULT:      -8.0      8.062     10.990
REMARK  Name = 
REMARK  6 active torsions:
REMARK  status: ('A' for Active; 'I' for Inactive)
REMARK    1  A    between atoms: C_1  and  C_2
REMARK    2  A    between atoms: C_2  and  N_3
REMARK    3  A    between atoms: C_2  and  C_22
REMARK    4  A    between atoms: N_6  and  C_7
REMARK    5  A    between atoms: C_11  and  C_12
REMARK    6  A    between atoms: N_17  and  C_18
REMARK                            x       y       z     vdW  Elec       q    Type
REMARK                         _______ _______ _______ _____ _____    ______ ____
ROOT
ATOM      1  N   UNL     1       8.833  10.993  17.647  0.00  0.00    +0.000 N 
ATOM      2  C   UNL     1       8.656   9.766  18.247  0.00  0.00    +0.000 C 
ATOM      3  O   UNL     1       9.156   9.508  19.336  0.00  0.00    +0.000 OA
ATOM      4  N   UNL     1       7.920   8.894  17.465  0.00  0.00    +0.000 N 
ATOM      5  H   UNL     1       8.082  11.306  17.055  0.00  0.00    +0.000 HD
ATOM      6  H   UNL     1       7.887   9.103  16.477  0.00  0.00    +0.000 HD
ENDROOT
BRANCH   4   7
ATOM      7  C   UNL     1       7.557   7.582  17.865  0.00  0.00    +0.000 A 
ATOM      8  C   UNL     1       8.289   6.881  18.828  0.00  0.00    +0.000 A 
ATOM      9  C   UNL     1       7.995   5.555  19.138  0.00  0.00    +0.000 A 
ATOM     10  C   UNL     1       6.936   4.924  18.506  0.00  0.00    +0.000 A 
ATOM     11  C   UNL     1       6.112   5.646  17.639  0.00  0.00    +0.000 A 
ATOM     12  C   UNL     1       6.439   6.969  17.288  0.00  0.00    +0.000 A 
BRANCH  11  13
ATOM     13  C   UNL     1       4.920   4.992  17.031  0.00  0.00    +0.000 C 
ATOM     14  O   UNL     1       4.706   5.175  15.839  0.00  0.00    +0.000 OA
ATOM     15  N   UNL     1       4.114   4.173  17.842  0.00  0.00    +0.000 N 
ATOM     16  C   UNL     1       3.008   3.480  17.171  0.00  0.00    +0.000 C 
ATOM     17  C   UNL     1       2.442   2.308  18.000  0.00  0.00    +0.000 C 
ATOM     18  N   UNL     1       2.137   2.623  19.413  0.00  0.00    +0.000 NA
ATOM     19  C   UNL     1       0.964   3.487  19.534  0.00  0.00    +0.000 C 
ATOM     20  C   UNL     1       3.324   3.242  20.030  0.00  0.00    +0.000 C 
ATOM     21  C   UNL     1       3.875   4.461  19.265  0.00  0.00    +0.000 C 
ENDBRANCH  11  13
ENDBRANCH   4   7
BRANCH   1  23
ATOM     22  C   UNL     1      11.006  12.123  17.817  0.00  0.00    +0.000 C 
ATOM     23  C   UNL     1       9.587  12.015  18.368  0.00  0.00    +0.000 C 
BRANCH  23  24
ATOM     24  C   UNL     1       8.857  13.351  18.371  0.00  0.00    +0.000 A 
ATOM     25  C   UNL     1       7.629  13.477  17.693  0.00  0.00    +0.000 A 
ATOM     26  C   UNL     1       6.958  14.702  17.650  0.00  0.00    +0.000 A 
ATOM     27  C   UNL     1       7.513  15.807  18.279  0.00  0.00    +0.000 A 
ATOM     28  F   UNL     1       6.881  16.987  18.222  0.00  0.00    +0.000 F 
ATOM     29  C   UNL     1       8.717  15.707  18.966  0.00  0.00    +0.000 A 
ATOM     30  C   UNL     1       9.386  14.481  19.016  0.00  0.00    +0.000 A 
ENDBRANCH  23  24
ENDBRANCH   1  23
TORSDOF 4
ENDMDL
MODEL 3
REMARK VINA RESULT:      -8.0      1.498      1.985
REMARK  Name = 
REMARK  6 active torsions:
REMARK  status: ('A' for Active; 'I' for Inactive)
REMARK    1  A    between atoms: C_1  and  C_2
REMARK    2  A    between atoms: C_2  and  N_3
REMARK    3  A    between atoms: C_2  and  C_22
REMARK    4  A    between atoms: N_6  and  C_7
REMARK    5  A    between atoms: C_11  and  C_12
REMARK    6  A    between atoms: N_17  and  C_18
REMARK                            x       y       z     vdW  Elec       q    Type
REMARK                         _______ _______ _______ _____ _____    ______ ____
ROOT
ATOM      1  N   UNL     1       2.254   7.991  19.060  0.00  0.00    +0.000 N 
ATOM      2  C   UNL     1       1.508   9.067  18.635  0.00  0.00    +0.000 C 
ATOM      3  O   UNL     1       1.084   9.138  17.487  0.00  0.00    +0.000 OA
ATOM      4  N   UNL     1       1.359  10.031  19.616  0.00  0.00    +0.000 N 
ATOM      5  H   UNL     1       2.173   7.757  20.035  0.00  0.00    +0.000 HD
ATOM      6  H   UNL     1       2.040  10.014  20.362  0.00  0.00    +0.000 HD
ENDROOT
BRANCH   4   7
ATOM      7  C   UNL     1       0.600  11.218  19.454  0.00  0.00    +0.000 A 
ATOM      8  C   UNL     1       1.094  12.311  18.735  0.00  0.00    +0.000 A 
ATOM      9  C   UNL     1       0.392  13.513  18.670  0.00  0.00    +0.000 A 
ATOM     10  C   UNL     1      -0.836  13.622  19.301  0.00  0.00    +0.000 A 
ATOM     11  C   UNL     1      -1.407  12.503  19.913  0.00  0.00    +0.000 A 
ATOM     12  C   UNL     1      -0.676  11.305  20.022  0.00  0.00    +0.000 A 
BRANCH  11  13
ATOM     13  C   UNL     1      -2.767  12.598  20.511  0.00  0.00    +0.000 C 
ATOM     14  O   UNL     1      -2.855  12.815  21.713  0.00  0.00    +0.000 OA
ATOM     15  N   UNL     1      -3.885  12.464  19.669  0.00  0.00    +0.000 N 
ATOM     16  C   UNL     1      -5.199  12.658  20.294  0.00  0.00    +0.000 C 
ATOM     17  C   UNL     1      -6.322  12.910  19.267  0.00  0.00    +0.000 C 
ATOM     18  N   UNL     1      -6.370  11.956  18.137  0.00  0.00    +0.000 NA
ATOM     19  C   UNL     1      -6.834  10.636  18.561  0.00  0.00    +0.000 C 
ATOM     20  C   UNL     1      -5.034  11.882  17.519  0.00  0.00    +0.000 C 
ATOM     21  C   UNL     1      -3.895  11.562  18.506  0.00  0.00    +0.000 C 
ENDBRANCH  11  13
ENDBRANCH   4   7
BRANCH   1  23
ATOM     22  C   UNL     1       3.913   6.933  17.591  0.00  0.00    +0.000 C 
ATOM     23  C   UNL     1       2.485   6.894  18.124  0.00  0.00    +0.000 C 
BRANCH  23  24
ATOM     24  C   UNL     1       2.128   5.548  18.742  0.00  0.00    +0.000 A 
ATOM     25  C   UNL     1       2.081   5.414  20.143  0.00  0.00    +0.000 A 
ATOM     26  C   UNL     1       1.793   4.181  20.734  0.00  0.00    +0.000 A 
ATOM     27  C   UNL     1       1.555   3.076  19.928  0.00  0.00    +0.000 A 
ATOM     28  F   UNL     1       1.298   1.889  20.493  0.00  0.00    +0.000 F 
ATOM     29  C   UNL     1       1.582   3.184  18.543  0.00  0.00    +0.000 A 
ATOM     30  C   UNL     1       1.864   4.418  17.950  0.00  0.00    +0.000 A 
ENDBRANCH  23  24
ENDBRANCH   1  23
TORSDOF 4
ENDMDL
MODEL 4
REMARK VINA RESULT:      -7.9      7.457     10.232
REMARK  Name = 
REMARK  6 active torsions:
REMARK  status: ('A' for Active; 'I' for Inactive)
REMARK    1  A    between atoms: C_1  and  C_2
REMARK    2  A    between atoms: C_2  and  N_3
REMARK    3  A    between atoms: C_2  and  C_22
REMARK    4  A    between atoms: N_6  and  C_7
REMARK    5  A    between atoms: C_11  and  C_12
REMARK    6  A    between atoms: N_17  and  C_18
REMARK                            x       y       z     vdW  Elec       q    Type
REMARK                         _______ _______ _______ _____ _____    ______ ____
ROOT
ATOM      1  N   UNL     1       8.741  10.216  17.949  0.00  0.00    +0.000 N 
ATOM      2  C   UNL     1       8.371   8.904  18.145  0.00  0.00    +0.000 C 
ATOM      3  O   UNL     1       8.955   8.188  18.949  0.00  0.00    +0.000 OA
ATOM      4  N   UNL     1       7.338   8.514  17.312  0.00  0.00    +0.000 N 
ATOM      5  H   UNL     1       8.004  10.845  17.675  0.00  0.00    +0.000 HD
ATOM      6  H   UNL     1       7.205   9.070  16.479  0.00  0.00    +0.000 HD
ENDROOT
BRANCH   4   7
ATOM      7  C   UNL     1       6.739   7.228  17.338  0.00  0.00    +0.000 A 
ATOM      8  C   UNL     1       7.460   6.076  17.007  0.00  0.00    +0.000 A 
ATOM      9  C   UNL     1       6.841   4.831  16.929  0.00  0.00    +0.000 A 
ATOM     10  C   UNL     1       5.490   4.720  17.218  0.00  0.00    +0.000 A 
ATOM     11  C   UNL     1       4.782   5.833  17.678  0.00  0.00    +0.000 A 
ATOM     12  C   UNL     1       5.395   7.100  17.707  0.00  0.00    +0.000 A 
BRANCH  11  13
ATOM     13  C   UNL     1       3.354   5.692  18.074  0.00  0.00    +0.000 C 
ATOM     14  O   UNL     1       2.592   6.619  17.829  0.00  0.00    +0.000 OA
ATOM     15  N   UNL     1       2.939   4.495  18.684  0.00  0.00    +0.000 N 
ATOM     16  C   UNL     1       1.505   4.372  18.969  0.00  0.00    +0.000 C 
ATOM     17  C   UNL     1       1.068   2.917  19.239  0.00  0.00    +0.000 C 
ATOM     18  N   UNL     1       1.902   2.177  20.210  0.00  0.00    +0.000 NA
ATOM     19  C   UNL     1       1.702   2.659  21.576  0.00  0.00    +0.000 C 
ATOM     20  C   UNL     1       3.315   2.285  19.805  0.00  0.00    +0.000 C 
ATOM     21  C   UNL     1       3.806   3.730  19.596  0.00  0.00    +0.000 C 
ENDBRANCH  11  13
ENDBRANCH   4   7
BRANCH   1  23
ATOM     22  C   UNL     1      10.837  11.494  17.901  0.00  0.00    +0.000 C 
ATOM     23  C   UNL     1       9.818  10.763  18.770  0.00  0.00    +0.000 C 
BRANCH  23  24
ATOM     24  C   UNL     1       9.276  11.634  19.895  0.00  0.00    +0.000 A 
ATOM     25  C   UNL     1       8.959  12.983  19.643  0.00  0.00    +0.000 A 
ATOM     26  C   UNL     1       8.496  13.812  20.667  0.00  0.00    +0.000 A 
ATOM     27  C   UNL     1       8.350  13.299  21.949  0.00  0.00    +0.000 A 
ATOM     28  F   UNL     1       7.925  14.098  22.936  0.00  0.00    +0.000 F 
ATOM     29  C   UNL     1       8.643  11.969  22.222  0.00  0.00    +0.000 A 
ATOM     30  C   UNL     1       9.101  11.136  21.197  0.00  0.00    +0.000 A 
ENDBRANCH  23  24
ENDBRANCH   1  23
TORSDOF 4
ENDMDL
MODEL 5
REMARK VINA RESULT:      -7.9      8.992     10.830
REMARK  Name = 
REMARK  6 active torsions:
REMARK  status: ('A' for Active; 'I' for Inactive)
REMARK    1  A    between atoms: C_1  and  C_2
REMARK    2  A    between atoms: C_2  and  N_3
REMARK    3  A    between atoms: C_2  and  C_22
REMARK    4  A    between atoms: N_6  and  C_7
REMARK    5  A    between atoms: C_11  and  C_12
REMARK    6  A    between atoms: N_17  and  C_18
REMARK                            x       y       z     vdW  Elec       q    Type
REMARK                         _______ _______ _______ _____ _____    ______ ____
ROOT
ATOM      1  N   UNL     1       7.121   7.374  17.071  0.00  0.00    +0.000 N 
ATOM      2  C   UNL     1       7.980   7.997  17.949  0.00  0.00    +0.000 C 
ATOM      3  O   UNL     1       8.516   7.382  18.864  0.00  0.00    +0.000 OA
ATOM      4  N   UNL     1       8.104   9.352  17.701  0.00  0.00    +0.000 N 
ATOM      5  H   UNL     1       7.093   7.755  16.140  0.00  0.00    +0.000 HD
ATOM      6  H   UNL     1       7.356   9.777  17.171  0.00  0.00    +0.000 HD
ENDROOT
BRANCH   4   7
ATOM      7  C   UNL     1       8.958  10.218  18.430  0.00  0.00    +0.000 A 
ATOM      8  C   UNL     1       9.133  10.083  19.811  0.00  0.00    +0.000 A 
ATOM      9  C   UNL     1       9.885  11.001  20.540  0.00  0.00    +0.000 A 
ATOM     10  C   UNL     1      10.504  12.052  19.883  0.00  0.00    +0.000 A 
ATOM     11  C   UNL     1      10.451  12.130  18.488  0.00  0.00    +0.000 A 
ATOM     12  C   UNL     1       9.650  11.233  17.759  0.00  0.00    +0.000 A 
BRANCH  11  13
ATOM     13  C   UNL     1      11.192  13.208  17.777  0.00  0.00    +0.000 C 
ATOM     14  O   UNL     1      12.218  12.906  17.180  0.00  0.00    +0.000 OA
ATOM     15  N   UNL     1      10.670  14.513  17.799  0.00  0.00    +0.000 N 
ATOM     16  C   UNL     1      11.389  15.517  17.005  0.00  0.00    +0.000 C 
ATOM     17  C   UNL     1      10.553  16.785  16.739  0.00  0.00    +0.000 C 
ATOM     18  N   UNL     1       9.896  17.370  17.928  0.00  0.00    +0.000 NA
ATOM     19  C   UNL     1      10.863  18.002  18.825  0.00  0.00    +0.000 C 
ATOM     20  C   UNL     1       9.133  16.315  18.619  0.00  0.00    +0.000 C 
ATOM     21  C   UNL     1       9.957  15.060  18.965  0.00  0.00    +0.000 C 
ENDBRANCH  11  13
ENDBRANCH   4   7
BRANCH   1  23
ATOM     22  C   UNL     1       5.810   5.661  18.243  0.00  0.00    +0.000 C 
ATOM     23  C   UNL     1       6.903   5.938  17.215  0.00  0.00    +0.000 C 
BRANCH  23  24
ATOM     24  C   UNL     1       6.623   5.278  15.871  0.00  0.00    +0.000 A 
ATOM     25  C   UNL     1       5.429   4.555  15.684  0.00  0.00    +0.000 A 
ATOM     26  C   UNL     1       5.166   3.909  14.473  0.00  0.00    +0.000 A 
ATOM     27  C   UNL     1       6.096   3.979  13.446  0.00  0.00    +0.000 A 
ATOM     28  F   UNL     1       5.855   3.344  12.291  0.00  0.00    +0.000 F 
ATOM     29  C   UNL     1       7.276   4.696  13.600  0.00  0.00    +0.000 A 
ATOM     30  C   UNL     1       7.538   5.348  14.808  0.00  0.00    +0.000 A 
ENDBRANCH  23  24
ENDBRANCH   1  23
TORSDOF 4
ENDMDL
MODEL 6
REMARK VINA RESULT:      -7.8      1.155      1.302
REMARK  Name = 
REMARK  6 active torsions:
REMARK  status: ('A' for Active; 'I' for Inactive)
REMARK    1  A    between atoms: C_1  and  C_2
REMARK    2  A    between atoms: C_2  and  N_3
REMARK    3  A    between atoms: C_2  and  C_22
REMARK    4  A    between atoms: N_6  and  C_7
REMARK    5  A    between atoms: C_11  and  C_12
REMARK    6  A    between atoms: N_17  and  C_18
REMARK                            x       y       z     vdW  Elec       q    Type
REMARK                         _______ _______ _______ _____ _____    ______ ____
ROOT
ATOM      1  N   UNL     1       2.547   7.468  18.676  0.00  0.00    +0.000 N 
ATOM      2  C   UNL     1       1.934   8.610  18.211  0.00  0.00    +0.000 C 
ATOM      3  O   UNL     1       2.089   8.996  17.058  0.00  0.00    +0.000 OA
ATOM      4  N   UNL     1       1.202   9.256  19.191  0.00  0.00    +0.000 N 
ATOM      5  H   UNL     1       2.056   6.967  19.397  0.00  0.00    +0.000 HD
ATOM      6  H   UNL     1       1.450   9.039  20.146  0.00  0.00    +0.000 HD
ENDROOT
BRANCH   4   7
ATOM      7  C   UNL     1       0.438  10.431  18.967  0.00  0.00    +0.000 A 
ATOM      8  C   UNL     1       0.888  11.688  19.383  0.00  0.00    +0.000 A 
ATOM      9  C   UNL     1       0.089  12.821  19.259  0.00  0.00    +0.000 A 
ATOM     10  C   UNL     1      -1.166  12.713  18.682  0.00  0.00    +0.000 A 
ATOM     11  C   UNL     1      -1.581  11.493  18.142  0.00  0.00    +0.000 A 
ATOM     12  C   UNL     1      -0.796  10.338  18.313  0.00  0.00    +0.000 A 
BRANCH  11  13
ATOM     13  C   UNL     1      -2.892  11.400  17.441  0.00  0.00    +0.000 C 
ATOM     14  O   UNL     1      -2.888  11.204  16.232  0.00  0.00    +0.000 OA
ATOM     15  N   UNL     1      -4.071  11.511  18.199  0.00  0.00    +0.000 N 
ATOM     16  C   UNL     1      -5.332  11.319  17.473  0.00  0.00    +0.000 C 
ATOM     17  C   UNL     1      -6.528  11.042  18.408  0.00  0.00    +0.000 C 
ATOM     18  N   UNL     1      -6.667  11.975  19.548  0.00  0.00    +0.000 NA
ATOM     19  C   UNL     1      -7.108  13.299  19.113  0.00  0.00    +0.000 C 
ATOM     20  C   UNL     1      -5.382  12.046  20.266  0.00  0.00    +0.000 C 
ATOM     21  C   UNL     1      -4.176  12.392  19.373  0.00  0.00    +0.000 C 
ENDBRANCH  11  13
ENDBRANCH   4   7
BRANCH   1  23
ATOM     22  C   UNL     1       4.818   7.085  17.824  0.00  0.00    +0.000 C 
ATOM     23  C   UNL     1       3.349   6.682  17.742  0.00  0.00    +0.000 C 
BRANCH  23  24
ATOM     24  C   UNL     1       3.140   5.188  17.946  0.00  0.00    +0.000 A 
ATOM     25  C   UNL     1       1.833   4.665  17.988  0.00  0.00    +0.000 A 
ATOM     26  C   UNL     1       1.614   3.303  18.211  0.00  0.00    +0.000 A 
ATOM     27  C   UNL     1       2.699   2.458  18.398  0.00  0.00    +0.000 A 
ATOM     28  F   UNL     1       2.491   1.156  18.632  0.00  0.00    +0.000 F 
ATOM     29  C   UNL     1       3.999   2.946  18.349  0.00  0.00    +0.000 A 
ATOM     30  C   UNL     1       4.220   4.307  18.119  0.00  0.00    +0.000 A 
ENDBRANCH  23  24
ENDBRANCH   1  23
TORSDOF 4
ENDMDL
MODEL 7
REMARK VINA RESULT:      -7.8      2.622      3.421
REMARK  Name = 
REMARK  6 active torsions:
REMARK  status: ('A' for Active; 'I' for Inactive)
REMARK    1  A    between atoms: C_1  and  C_2
REMARK    2  A    between atoms: C_2  and  N_3
REMARK    3  A    between atoms: C_2  and  C_22
REMARK    4  A    between atoms: N_6  and  C_7
REMARK    5  A    between atoms: C_11  and  C_12
REMARK    6  A    between atoms: N_17  and  C_18
REMARK                            x       y       z     vdW  Elec       q    Type
REMARK                         _______ _______ _______ _____ _____    ______ ____
ROOT
ATOM      1  N   UNL     1       2.310   6.879  17.916  0.00  0.00    +0.000 N 
ATOM      2  C   UNL     1       2.065   7.906  18.801  0.00  0.00    +0.000 C 
ATOM      3  O   UNL     1       2.075   7.723  20.012  0.00  0.00    +0.000 OA
ATOM      4  N   UNL     1       1.768   9.097  18.163  0.00  0.00    +0.000 N 
ATOM      5  H   UNL     1       2.737   7.143  17.044  0.00  0.00    +0.000 HD
ATOM      6  H   UNL     1       1.446   9.021  17.208  0.00  0.00    +0.000 HD
ENDROOT
BRANCH   4   7
ATOM      7  C   UNL     1       1.518  10.319  18.839  0.00  0.00    +0.000 A 
ATOM      8  C   UNL     1       2.079  11.524  18.406  0.00  0.00    +0.000 A 
ATOM      9  C   UNL     1       1.919  12.701  19.134  0.00  0.00    +0.000 A 
ATOM     10  C   UNL     1       1.162  12.690  20.294  0.00  0.00    +0.000 A 
ATOM     11  C   UNL     1       0.485  11.527  20.672  0.00  0.00    +0.000 A 
ATOM     12  C   UNL     1       0.688  10.327  19.966  0.00  0.00    +0.000 A 
BRANCH  11  13
ATOM     13  C   UNL     1      -0.402  11.542  21.869  0.00  0.00    +0.000 C 
ATOM     14  O   UNL     1      -0.066  10.880  22.844  0.00  0.00    +0.000 OA
ATOM     15  N   UNL     1      -1.564  12.332  21.837  0.00  0.00    +0.000 N 
ATOM     16  C   UNL     1      -2.351  12.383  23.075  0.00  0.00    +0.000 C 
ATOM     17  C   UNL     1      -3.346  13.561  23.106  0.00  0.00    +0.000 C 
ATOM     18  N   UNL     1      -4.184  13.714  21.897  0.00  0.00    +0.000 NA
ATOM     19  C   UNL     1      -5.190  12.658  21.799  0.00  0.00    +0.000 C 
ATOM     20  C   UNL     1      -3.309  13.733  20.711  0.00  0.00    +0.000 C 
ATOM     21  C   UNL     1      -2.351  12.532  20.610  0.00  0.00    +0.000 C 
ENDBRANCH  11  13
ENDBRANCH   4   7
BRANCH   1  23
ATOM     22  C   UNL     1       1.672   4.509  17.940  0.00  0.00    +0.000 C 
ATOM     23  C   UNL     1       2.644   5.564  18.456  0.00  0.00    +0.000 C 
BRANCH  23  24
ATOM     24  C   UNL     1       4.098   5.202  18.185  0.00  0.00    +0.000 A 
ATOM     25  C   UNL     1       5.073   5.441  19.173  0.00  0.00    +0.000 A 
ATOM     26  C   UNL     1       6.419   5.152  18.934  0.00  0.00    +0.000 A 
ATOM     27  C   UNL     1       6.798   4.627  17.706  0.00  0.00    +0.000 A 
ATOM     28  F   UNL     1       8.090   4.368  17.468  0.00  0.00    +0.000 F 
ATOM     29  C   UNL     1       5.855   4.371  16.719  0.00  0.00    +0.000 A 
ATOM     30  C   UNL     1       4.507   4.653  16.958  0.00  0.00    +0.000 A 
ENDBRANCH  23  24
ENDBRANCH   1  23
TORSDOF 4
ENDMDL
MODEL 8
REMARK VINA RESULT:      -7.7      2.672      3.574
REMARK  Name = 
REMARK  6 active torsions:
REMARK  status: ('A' for Active; 'I' for Inactive)
REMARK    1  A    between atoms: C_1  and  C_2
REMARK    2  A    between atoms: C_2  and  N_3
REMARK    3  A    between atoms: C_2  and  C_22
REMARK    4  A    between atoms: N_6  and  C_7
REMARK    5  A    between atoms: C_11  and  C_12
REMARK    6  A    between atoms: N_17  and  C_18
REMARK                            x       y       z     vdW  Elec       q    Type
REMARK                         _______ _______ _______ _____ _____    ______ ____
ROOT
ATOM      1  N   UNL     1       2.136   6.946  17.722  0.00  0.00    +0.000 N 
ATOM      2  C   UNL     1       2.040   7.951  18.660  0.00  0.00    +0.000 C 
ATOM      3  O   UNL     1       2.398   7.779  19.819  0.00  0.00    +0.000 OA
ATOM      4  N   UNL     1       1.463   9.100  18.150  0.00  0.00    +0.000 N 
ATOM      5  H   UNL     1       2.281   7.244  16.772  0.00  0.00    +0.000 HD
ATOM      6  H   UNL     1       0.902   8.983  17.317  0.00  0.00    +0.000 HD
ENDROOT
BRANCH   4   7
ATOM      7  C   UNL     1       1.286  10.296  18.892  0.00  0.00    +0.000 A 
ATOM      8  C   UNL     1       1.928  11.484  18.531  0.00  0.00    +0.000 A 
ATOM      9  C   UNL     1       1.837  12.626  19.323  0.00  0.00    +0.000 A 
ATOM     10  C   UNL     1       1.069  12.600  20.476  0.00  0.00    +0.000 A 
ATOM     11  C   UNL     1       0.315  11.464  20.785  0.00  0.00    +0.000 A 
ATOM     12  C   UNL     1       0.447  10.295  20.013  0.00  0.00    +0.000 A 
BRANCH  11  13
ATOM     13  C   UNL     1      -0.580  11.469  21.974  0.00  0.00    +0.000 C 
ATOM     14  O   UNL     1      -0.264  10.782  22.938  0.00  0.00    +0.000 OA
ATOM     15  N   UNL     1      -1.728  12.282  21.951  0.00  0.00    +0.000 N 
ATOM     16  C   UNL     1      -2.524  12.320  23.183  0.00  0.00    +0.000 C 
ATOM     17  C   UNL     1      -3.498  13.516  23.233  0.00  0.00    +0.000 C 
ATOM     18  N   UNL     1      -4.323  13.709  22.021  0.00  0.00    +0.000 NA
ATOM     19  C   UNL     1      -5.347  12.674  21.893  0.00  0.00    +0.000 C 
ATOM     20  C   UNL     1      -3.439  13.737  20.842  0.00  0.00    +0.000 C 
ATOM     21  C   UNL     1      -2.502  12.521  20.722  0.00  0.00    +0.000 C 
ENDBRANCH  11  13
ENDBRANCH   4   7
BRANCH   1  23
ATOM     22  C   UNL     1       1.723   4.541  17.995  0.00  0.00    +0.000 C 
ATOM     23  C   UNL     1       2.734   5.677  18.125  0.00  0.00    +0.000 C 
BRANCH  23  24
ATOM     24  C   UNL     1       4.024   5.401  17.365  0.00  0.00    +0.000 A 
ATOM     25  C   UNL     1       4.237   4.134  16.787  0.00  0.00    +0.000 A 
ATOM     26  C   UNL     1       5.428   3.844  16.117  0.00  0.00    +0.000 A 
ATOM     27  C   UNL     1       6.414   4.817  16.023  0.00  0.00    +0.000 A 
ATOM     28  F   UNL     1       7.564   4.535  15.398  0.00  0.00    +0.000 F 
ATOM     29  C   UNL     1       6.224   6.079  16.573  0.00  0.00    +0.000 A 
ATOM     30  C   UNL     1       5.030   6.373  17.239  0.00  0.00    +0.000 A 
ENDBRANCH  23  24
ENDBRANCH   1  23
TORSDOF 4
ENDMDL
MODEL 9
REMARK VINA RESULT:      -7.7      1.425      1.947
REMARK  Name = 
REMARK  6 active torsions:
REMARK  status: ('A' for Active; 'I' for Inactive)
REMARK    1  A    between atoms: C_1  and  C_2
REMARK    2  A    between atoms: C_2  and  N_3
REMARK    3  A    between atoms: C_2  and  C_22
REMARK    4  A    between atoms: N_6  and  C_7
REMARK    5  A    between atoms: C_11  and  C_12
REMARK    6  A    between atoms: N_17  and  C_18
REMARK                            x       y       z     vdW  Elec       q    Type
REMARK                         _______ _______ _______ _____ _____    ______ ____
ROOT
ATOM      1  N   UNL     1       2.492   7.472  18.708  0.00  0.00    +0.000 N 
ATOM      2  C   UNL     1       1.973   8.692  18.335  0.00  0.00    +0.000 C 
ATOM      3  O   UNL     1       2.054   9.095  17.180  0.00  0.00    +0.000 OA
ATOM      4  N   UNL     1       1.426   9.385  19.399  0.00  0.00    +0.000 N 
ATOM      5  H   UNL     1       2.021   7.008  19.467  0.00  0.00    +0.000 HD
ATOM      6  H   UNL     1       1.743   9.110  20.319  0.00  0.00    +0.000 HD
ENDROOT
BRANCH   4   7
ATOM      7  C   UNL     1       0.787  10.646  19.282  0.00  0.00    +0.000 A 
ATOM      8  C   UNL     1       1.391  11.714  18.611  0.00  0.00    +0.000 A 
ATOM      9  C   UNL     1       0.810  12.980  18.592  0.00  0.00    +0.000 A 
ATOM     10  C   UNL     1      -0.408  13.182  19.219  0.00  0.00    +0.000 A 
ATOM     11  C   UNL     1      -1.091  12.100  19.781  0.00  0.00    +0.000 A 
ATOM     12  C   UNL     1      -0.481  10.834  19.845  0.00  0.00    +0.000 A 
BRANCH  11  13
ATOM     13  C   UNL     1      -2.441  12.302  20.374  0.00  0.00    +0.000 C 
ATOM     14  O   UNL     1      -2.519  12.492  21.582  0.00  0.00    +0.000 OA
ATOM     15  N   UNL     1      -3.560  12.295  19.522  0.00  0.00    +0.000 N 
ATOM     16  C   UNL     1      -4.855  12.591  20.146  0.00  0.00    +0.000 C 
ATOM     17  C   UNL     1      -5.943  12.973  19.120  0.00  0.00    +0.000 C 
ATOM     18  N   UNL     1      -6.068  12.060  17.963  0.00  0.00    +0.000 NA
ATOM     19  C   UNL     1      -6.654  10.777  18.347  0.00  0.00    +0.000 C 
ATOM     20  C   UNL     1      -4.739  11.881  17.351  0.00  0.00    +0.000 C 
ATOM     21  C   UNL     1      -3.643  11.430  18.334  0.00  0.00    +0.000 C 
ENDBRANCH  11  13
ENDBRANCH   4   7
BRANCH   1  23
ATOM     22  C   UNL     1       4.565   6.991  17.485  0.00  0.00    +0.000 C 
ATOM     23  C   UNL     1       3.096   6.631  17.679  0.00  0.00    +0.000 C 
BRANCH  23  24
ATOM     24  C   UNL     1       2.890   5.151  17.975  0.00  0.00    +0.000 A 
ATOM     25  C   UNL     1       1.585   4.629  18.052  0.00  0.00    +0.000 A 
ATOM     26  C   UNL     1       1.369   3.283  18.359  0.00  0.00    +0.000 A 
ATOM     27  C   UNL     1       2.457   2.454  18.595  0.00  0.00    +0.000 A 
ATOM     28  F   UNL     1       2.252   1.168  18.909  0.00  0.00    +0.000 F 
ATOM     29  C   UNL     1       3.756   2.941  18.514  0.00  0.00    +0.000 A 
ATOM     30  C   UNL     1       3.973   4.285  18.200  0.00  0.00    +0.000 A 
ENDBRANCH  23  24
ENDBRANCH   1  23
TORSDOF 4
ENDMDL
