MODEL 1
REMARK VINA RESULT:      -8.0      0.000      0.000
REMARK  Name = 
REMARK  9 active torsions:
REMARK  status: ('A' for Active; 'I' for Inactive)
REMARK    1  A    between atoms: C_1  and  O_2
REMARK    2  A    between atoms: O_2  and  C_3
REMARK    3  A    between atoms: C_6  and  C_7
REMARK    4  A    between atoms: C_13  and  C_14
REMARK    5  A    between atoms: C_18  and  C_19
REMARK    6  A    between atoms: C_19  and  C_20
REMARK    7  A    between atoms: C_19  and  C_21
REMARK    8  A    between atoms: C_19  and  C_22
REMARK    9  A    between atoms: C_26  and  O_27
REMARK                            x       y       z     vdW  Elec       q    Type
REMARK                         _______ _______ _______ _____ _____    ______ ____
ROOT
ATOM      1  C   UNL     1       3.105   6.032  19.004  0.00  0.00    +0.000 C 
ATOM      2  CA  UNL     1       2.364   7.133  19.207  0.00  0.00    +0.000 A 
ATOM      3  N   UNL     1       2.272   8.123  18.264  0.00  0.00    +0.000 N 
ATOM      4  C   UNL     1       1.628   9.314  18.410  0.00  0.00    +0.000 A 
ATOM      5  O   UNL     1       1.778  10.174  17.551  0.00  0.00    +0.000 OA
ATOM      6  CA  UNL     1       0.818   9.462  19.682  0.00  0.00    +0.000 A 
ATOM      7  C   UNL     1       0.052  10.546  19.904  0.00  0.00    +0.000 C 
ATOM      8  N   UNL     1       0.908   8.463  20.633  0.00  0.00    +0.000 N 
ATOM      9  C   UNL     1       1.650   7.316  20.518  0.00  0.00    +0.000 A 
ATOM     10  O   UNL     1       1.734   6.512  21.439  0.00  0.00    +0.000 OA
ATOM     11  H   UNL     1       2.767   8.035  17.385  0.00  0.00    +0.000 HD
ATOM     12  H   UNL     1       0.423   8.570  21.516  0.00  0.00    +0.000 HD
ENDROOT
BRANCH   1  16
ATOM     13  C   UNL     1       5.609   5.393  15.586  0.00  0.00    +0.000 A 
ATOM     14  C   UNL     1       5.521   6.652  16.188  0.00  0.00    +0.000 A 
ATOM     15  C   UNL     1       4.665   6.865  17.274  0.00  0.00    +0.000 A 
ATOM     16  C   UNL     1       3.879   5.819  17.772  0.00  0.00    +0.000 A 
ATOM     17  C   UNL     1       3.965   4.565  17.150  0.00  0.00    +0.000 A 
ATOM     18  C   UNL     1       4.820   4.351  16.067  0.00  0.00    +0.000 A 
BRANCH  13  20
ATOM     19  C   UNL     1       6.437   4.121  13.762  0.00  0.00    +0.000 C 
ATOM     20  O   UNL     1       6.503   5.304  14.552  0.00  0.00    +0.000 OA
ENDBRANCH  13  20
BRANCH  17  21
ATOM     21  O   UNL     1       3.257   3.473  17.570  0.00  0.00    +0.000 OA
ATOM     22  H   UNL     1       2.594   3.246  16.899  0.00  0.00    +0.000 HD
ENDBRANCH  17  21
ENDBRANCH   1  16
BRANCH   7  23
ATOM     23  C   UNL     1      -0.081  11.650  19.026  0.00  0.00    +0.000 A 
ATOM     24  N   UNL     1       0.838  12.662  19.075  0.00  0.00    +0.000 NA
ATOM     25  C   UNL     1       0.347  13.591  18.288  0.00  0.00    +0.000 A 
ATOM     26  N   UNL     1      -0.811  13.182  17.693  0.00  0.00    +0.000 N 
ATOM     27  C   UNL     1      -1.102  11.902  18.125  0.00  0.00    +0.000 A 
ATOM     28  H   UNL     1      -1.373  13.749  17.075  0.00  0.00    +0.000 HD
BRANCH  27  29
ATOM     29  C   UNL     1      -2.313  11.111  17.663  0.00  0.00    +0.000 C 
ATOM     30  C   UNL     1      -2.082   9.594  17.824  0.00  0.00    +0.000 C 
ATOM     31  C   UNL     1      -3.536  11.516  18.508  0.00  0.00    +0.000 C 
ATOM     32  C   UNL     1      -2.638  11.368  16.179  0.00  0.00    +0.000 C 
ENDBRANCH  27  29
ENDBRANCH   7  23
TORSDOF 5
ENDMDL
MODEL 2
REMARK VINA RESULT:      -7.9      0.543      1.028
REMARK  Name = 
REMARK  9 active torsions:
REMARK  status: ('A' for Active; 'I' for Inactive)
REMARK    1  A    between atoms: C_1  and  O_2
REMARK    2  A    between atoms: O_2  and  C_3
REMARK    3  A    between atoms: C_6  and  C_7
REMARK    4  A    between atoms: C_13  and  C_14
REMARK    5  A    between atoms: C_18  and  C_19
REMARK    6  A    between atoms: C_19  and  C_20
REMARK    7  A    between atoms: C_19  and  C_21
REMARK    8  A    between atoms: C_19  and  C_22
REMARK    9  A    between atoms: C_26  and  O_27
REMARK                            x       y       z     vdW  Elec       q    Type
REMARK                         _______ _______ _______ _____ _____    ______ ____
ROOT
ATOM      1  C   UNL     1       3.357   5.968  19.064  0.00  0.00    +0.000 C 
ATOM      2  CA  UNL     1       2.531   7.014  19.227  0.00  0.00    +0.000 A 
ATOM      3  N   UNL     1       2.475   8.034  18.313  0.00  0.00    +0.000 N 
ATOM      4  C   UNL     1       1.745   9.179  18.431  0.00  0.00    +0.000 A 
ATOM      5  O   UNL     1       1.929  10.079  17.622  0.00  0.00    +0.000 OA
ATOM      6  CA  UNL     1       0.803   9.227  19.616  0.00  0.00    +0.000 A 
ATOM      7  C   UNL     1      -0.049  10.255  19.793  0.00  0.00    +0.000 C 
ATOM      8  N   UNL     1       0.856   8.198  20.537  0.00  0.00    +0.000 N 
ATOM      9  C   UNL     1       1.678   7.102  20.460  0.00  0.00    +0.000 A 
ATOM     10  O   UNL     1       1.717   6.268  21.358  0.00  0.00    +0.000 OA
ATOM     11  H   UNL     1       3.061   8.011  17.487  0.00  0.00    +0.000 HD
ATOM     12  H   UNL     1       0.279   8.241  21.367  0.00  0.00    +0.000 HD
ENDROOT
BRANCH   1  16
ATOM     13  C   UNL     1       6.208   5.507  15.899  0.00  0.00    +0.000 A 
ATOM     14  C   UNL     1       6.294   6.577  16.794  0.00  0.00    +0.000 A 
ATOM     15  C   UNL     1       5.332   6.749  17.796  0.00  0.00    +0.000 A 
ATOM     16  C   UNL     1       4.265   5.850  17.914  0.00  0.00    +0.000 A 
ATOM     17  C   UNL     1       4.181   4.789  17.000  0.00  0.00    +0.000 A 
ATOM     18  C   UNL     1       5.142   4.616  16.002  0.00  0.00    +0.000 A 
BRANCH  13  20
ATOM     19  C   UNL     1       6.963   4.662  13.814  0.00  0.00    +0.000 C 
ATOM     20  O   UNL     1       7.224   5.431  14.984  0.00  0.00    +0.000 OA
ENDBRANCH  13  20
BRANCH  17  21
ATOM     21  O   UNL     1       3.193   3.845  17.041  0.00  0.00    +0.000 OA
ATOM     22  H   UNL     1       2.330   4.287  17.012  0.00  0.00    +0.000 HD
ENDBRANCH  17  21
ENDBRANCH   1  16
BRANCH   7  23
ATOM     23  C   UNL     1      -0.160  11.384  18.943  0.00  0.00    +0.000 A 
ATOM     24  N   UNL     1       0.663  12.457  19.142  0.00  0.00    +0.000 NA
ATOM     25  C   UNL     1       0.201  13.381  18.332  0.00  0.00    +0.000 A 
ATOM     26  N   UNL     1      -0.840  12.914  17.583  0.00  0.00    +0.000 N 
ATOM     27  C   UNL     1      -1.080  11.598  17.932  0.00  0.00    +0.000 A 
ATOM     28  H   UNL     1      -1.366  13.465  16.920  0.00  0.00    +0.000 HD
BRANCH  27  29
ATOM     29  C   UNL     1      -2.160  10.741  17.294  0.00  0.00    +0.000 C 
ATOM     30  C   UNL     1      -2.771  11.441  16.062  0.00  0.00    +0.000 C 
ATOM     31  C   UNL     1      -1.544   9.401  16.845  0.00  0.00    +0.000 C 
ATOM     32  C   UNL     1      -3.313  10.446  18.271  0.00  0.00    +0.000 C 
ENDBRANCH  27  29
ENDBRANCH   7  23
TORSDOF 5
ENDMDL
MODEL 3
REMARK VINA RESULT:      -7.2      1.428      1.588
REMARK  Name = 
REMARK  9 active torsions:
REMARK  status: ('A' for Active; 'I' for Inactive)
REMARK    1  A    between atoms: C_1  and  O_2
REMARK    2  A    between atoms: O_2  and  C_3
REMARK    3  A    between atoms: C_6  and  C_7
REMARK    4  A    between atoms: C_13  and  C_14
REMARK    5  A    between atoms: C_18  and  C_19
REMARK    6  A    between atoms: C_19  and  C_20
REMARK    7  A    between atoms: C_19  and  C_21
REMARK    8  A    between atoms: C_19  and  C_22
REMARK    9  A    between atoms: C_26  and  O_27
REMARK                            x       y       z     vdW  Elec       q    Type
REMARK                         _______ _______ _______ _____ _____    ______ ____
ROOT
ATOM      1  C   UNL     1       3.721   5.172  19.223  0.00  0.00    +0.000 C 
ATOM      2  CA  UNL     1       2.916   6.229  19.414  0.00  0.00    +0.000 A 
ATOM      3  N   UNL     1       2.991   7.342  18.619  0.00  0.00    +0.000 N 
ATOM      4  C   UNL     1       2.289   8.499  18.787  0.00  0.00    +0.000 A 
ATOM      5  O   UNL     1       2.588   9.472  18.107  0.00  0.00    +0.000 OA
ATOM      6  CA  UNL     1       1.226   8.460  19.865  0.00  0.00    +0.000 A 
ATOM      7  C   UNL     1       0.393   9.499  20.065  0.00  0.00    +0.000 C 
ATOM      8  N   UNL     1       1.147   7.337  20.666  0.00  0.00    +0.000 N 
ATOM      9  C   UNL     1       1.936   6.221  20.554  0.00  0.00    +0.000 A 
ATOM     10  O   UNL     1       1.851   5.294  21.352  0.00  0.00    +0.000 OA
ATOM     11  H   UNL     1       3.662   7.383  17.862  0.00  0.00    +0.000 HD
ATOM     12  H   UNL     1       0.484   7.315  21.431  0.00  0.00    +0.000 HD
ENDROOT
BRANCH   1  16
ATOM     13  C   UNL     1       6.633   5.363  16.086  0.00  0.00    +0.000 A 
ATOM     14  C   UNL     1       5.276   5.188  15.799  0.00  0.00    +0.000 A 
ATOM     15  C   UNL     1       4.337   5.078  16.829  0.00  0.00    +0.000 A 
ATOM     16  C   UNL     1       4.744   5.139  18.168  0.00  0.00    +0.000 A 
ATOM     17  C   UNL     1       6.109   5.300  18.444  0.00  0.00    +0.000 A 
ATOM     18  C   UNL     1       7.047   5.412  17.415  0.00  0.00    +0.000 A 
BRANCH  13  20
ATOM     19  C   UNL     1       7.029   4.809  13.813  0.00  0.00    +0.000 C 
ATOM     20  O   UNL     1       7.448   5.487  14.993  0.00  0.00    +0.000 OA
ENDBRANCH  13  20
BRANCH  17  21
ATOM     21  O   UNL     1       6.609   5.393  19.713  0.00  0.00    +0.000 OA
ATOM     22  H   UNL     1       7.534   5.682  19.671  0.00  0.00    +0.000 HD
ENDBRANCH  17  21
ENDBRANCH   1  16
BRANCH   7  23
ATOM     23  C   UNL     1       0.410  10.716  19.340  0.00  0.00    +0.000 A 
ATOM     24  N   UNL     1       1.340  11.669  19.651  0.00  0.00    +0.000 NA
ATOM     25  C   UNL     1       0.986  12.717  18.943  0.00  0.00    +0.000 A 
ATOM     26  N   UNL     1      -0.091  12.445  18.150  0.00  0.00    +0.000 N 
ATOM     27  C   UNL     1      -0.472  11.133  18.358  0.00  0.00    +0.000 A 
ATOM     28  H   UNL     1      -0.548  13.115  17.550  0.00  0.00    +0.000 HD
BRANCH  27  29
ATOM     29  C   UNL     1      -1.630  10.467  17.635  0.00  0.00    +0.000 C 
ATOM     30  C   UNL     1      -1.149   9.252  16.814  0.00  0.00    +0.000 C 
ATOM     31  C   UNL     1      -2.664   9.984  18.670  0.00  0.00    +0.000 C 
ATOM     32  C   UNL     1      -2.330  11.430  16.658  0.00  0.00    +0.000 C 
ENDBRANCH  27  29
ENDBRANCH   7  23
TORSDOF 5
ENDMDL
MODEL 4
REMARK VINA RESULT:      -7.2      2.756      4.756
REMARK  Name = 
REMARK  9 active torsions:
REMARK  status: ('A' for Active; 'I' for Inactive)
REMARK    1  A    between atoms: C_1  and  O_2
REMARK    2  A    between atoms: O_2  and  C_3
REMARK    3  A    between atoms: C_6  and  C_7
REMARK    4  A    between atoms: C_13  and  C_14
REMARK    5  A    between atoms: C_18  and  C_19
REMARK    6  A    between atoms: C_19  and  C_20
REMARK    7  A    between atoms: C_19  and  C_21
REMARK    8  A    between atoms: C_19  and  C_22
REMARK    9  A    between atoms: C_26  and  O_27
REMARK                            x       y       z     vdW  Elec       q    Type
REMARK                         _______ _______ _______ _____ _____    ______ ____
ROOT
ATOM      1  C   UNL     1       2.475   8.569  18.377  0.00  0.00    +0.000 C 
ATOM      2  CA  UNL     1       1.598   9.560  18.598  0.00  0.00    +0.000 A 
ATOM      3  N   UNL     1       0.404   9.336  19.233  0.00  0.00    +0.000 N 
ATOM      4  C   UNL     1      -0.590  10.250  19.421  0.00  0.00    +0.000 A 
ATOM      5  O   UNL     1      -1.671   9.864  19.847  0.00  0.00    +0.000 OA
ATOM      6  CA  UNL     1      -0.250  11.670  19.018  0.00  0.00    +0.000 A 
ATOM      7  C   UNL     1      -1.103  12.687  19.244  0.00  0.00    +0.000 C 
ATOM      8  N   UNL     1       0.954  11.898  18.379  0.00  0.00    +0.000 N 
ATOM      9  C   UNL     1       1.901  10.946  18.098  0.00  0.00    +0.000 A 
ATOM     10  O   UNL     1       2.914  11.217  17.463  0.00  0.00    +0.000 OA
ATOM     11  H   UNL     1       0.165   8.406  19.553  0.00  0.00    +0.000 HD
ATOM     12  H   UNL     1       1.175  12.829  18.047  0.00  0.00    +0.000 HD
ENDROOT
BRANCH   1  16
ATOM     13  C   UNL     1       2.010   4.467  19.526  0.00  0.00    +0.000 A 
ATOM     14  C   UNL     1       2.145   4.827  18.182  0.00  0.00    +0.000 A 
ATOM     15  C   UNL     1       2.247   6.172  17.810  0.00  0.00    +0.000 A 
ATOM     16  C   UNL     1       2.214   7.179  18.781  0.00  0.00    +0.000 A 
ATOM     17  C   UNL     1       2.064   6.807  20.125  0.00  0.00    +0.000 A 
ATOM     18  C   UNL     1       1.963   5.465  20.497  0.00  0.00    +0.000 A 
BRANCH  13  20
ATOM     19  C   UNL     1       1.942   2.721  21.132  0.00  0.00    +0.000 C 
ATOM     20  O   UNL     1       1.949   3.120  19.765  0.00  0.00    +0.000 OA
ENDBRANCH  13  20
BRANCH  17  21
ATOM     21  O   UNL     1       2.040   7.709  21.152  0.00  0.00    +0.000 OA
ATOM     22  H   UNL     1       2.060   8.608  20.786  0.00  0.00    +0.000 HD
ENDBRANCH  17  21
ENDBRANCH   1  16
BRANCH   7  23
ATOM     23  C   UNL     1      -2.380  12.567  19.847  0.00  0.00    +0.000 A 
ATOM     24  N   UNL     1      -3.474  12.337  19.059  0.00  0.00    +0.000 NA
ATOM     25  C   UNL     1      -4.496  12.455  19.875  0.00  0.00    +0.000 A 
ATOM     26  N   UNL     1      -4.090  12.686  21.157  0.00  0.00    +0.000 N 
ATOM     27  C   UNL     1      -2.708  12.729  21.181  0.00  0.00    +0.000 A 
ATOM     28  H   UNL     1      -4.709  12.841  21.939  0.00  0.00    +0.000 HD
BRANCH  27  29
ATOM     29  C   UNL     1      -1.894  12.953  22.444  0.00  0.00    +0.000 C 
ATOM     30  C   UNL     1      -0.944  14.158  22.288  0.00  0.00    +0.000 C 
ATOM     31  C   UNL     1      -2.850  13.227  23.621  0.00  0.00    +0.000 C 
ATOM     32  C   UNL     1      -1.026  11.730  22.795  0.00  0.00    +0.000 C 
ENDBRANCH  27  29
ENDBRANCH   7  23
TORSDOF 5
ENDMDL
MODEL 5
REMARK VINA RESULT:      -7.1      2.673      4.730
REMARK  Name = 
REMARK  9 active torsions:
REMARK  status: ('A' for Active; 'I' for Inactive)
REMARK    1  A    between atoms: C_1  and  O_2
REMARK    2  A    between atoms: O_2  and  C_3
REMARK    3  A    between atoms: C_6  and  C_7
REMARK    4  A    between atoms: C_13  and  C_14
REMARK    5  A    between atoms: C_18  and  C_19
REMARK    6  A    between atoms: C_19  and  C_20
REMARK    7  A    between atoms: C_19  and  C_21
REMARK    8  A    between atoms: C_19  and  C_22
REMARK    9  A    between atoms: C_26  and  O_27
REMARK                            x       y       z     vdW  Elec       q    Type
REMARK                         _______ _______ _______ _____ _____    ______ ____
ROOT
ATOM      1  C   UNL     1       2.479   8.936  18.416  0.00  0.00    +0.000 C 
ATOM      2  CA  UNL     1       1.547   9.870  18.663  0.00  0.00    +0.000 A 
ATOM      3  N   UNL     1       0.340   9.550  19.228  0.00  0.00    +0.000 N 
ATOM      4  C   UNL     1      -0.703  10.402  19.431  0.00  0.00    +0.000 A 
ATOM      5  O   UNL     1      -1.781   9.940  19.782  0.00  0.00    +0.000 OA
ATOM      6  CA  UNL     1      -0.415  11.861  19.140  0.00  0.00    +0.000 A 
ATOM      7  C   UNL     1      -1.324  12.820  19.395  0.00  0.00    +0.000 C 
ATOM      8  N   UNL     1       0.803  12.186  18.572  0.00  0.00    +0.000 N 
ATOM      9  C   UNL     1       1.804  11.298  18.272  0.00  0.00    +0.000 A 
ATOM     10  O   UNL     1       2.829  11.658  17.701  0.00  0.00    +0.000 OA
ATOM     11  H   UNL     1       0.132   8.590  19.475  0.00  0.00    +0.000 HD
ATOM     12  H   UNL     1       0.993  13.146  18.314  0.00  0.00    +0.000 HD
ENDROOT
BRANCH   1  16
ATOM     13  C   UNL     1       2.163   4.747  19.263  0.00  0.00    +0.000 A 
ATOM     14  C   UNL     1       2.319   5.207  17.952  0.00  0.00    +0.000 A 
ATOM     15  C   UNL     1       2.373   6.578  17.678  0.00  0.00    +0.000 A 
ATOM     16  C   UNL     1       2.268   7.512  18.715  0.00  0.00    +0.000 A 
ATOM     17  C   UNL     1       2.096   7.039  20.025  0.00  0.00    +0.000 A 
ATOM     18  C   UNL     1       2.044   5.672  20.299  0.00  0.00    +0.000 A 
BRANCH  13  20
ATOM     19  C   UNL     1       1.039   2.700  18.845  0.00  0.00    +0.000 C 
ATOM     20  O   UNL     1       2.154   3.386  19.406  0.00  0.00    +0.000 OA
ENDBRANCH  13  20
BRANCH  17  21
ATOM     21  O   UNL     1       2.004   7.865  21.110  0.00  0.00    +0.000 OA
ATOM     22  H   UNL     1       2.306   7.389  21.899  0.00  0.00    +0.000 HD
ENDBRANCH  17  21
ENDBRANCH   1  16
BRANCH   7  23
ATOM     23  C   UNL     1      -2.618  12.602  19.930  0.00  0.00    +0.000 A 
ATOM     24  N   UNL     1      -3.660  12.344  19.083  0.00  0.00    +0.000 NA
ATOM     25  C   UNL     1      -4.723  12.368  19.852  0.00  0.00    +0.000 A 
ATOM     26  N   UNL     1      -4.390  12.569  21.161  0.00  0.00    +0.000 N 
ATOM     27  C   UNL     1      -3.016  12.689  21.253  0.00  0.00    +0.000 A 
ATOM     28  H   UNL     1      -5.052  12.655  21.917  0.00  0.00    +0.000 HD
BRANCH  27  29
ATOM     29  C   UNL     1      -2.275  12.906  22.561  0.00  0.00    +0.000 C 
ATOM     30  C   UNL     1      -3.255  12.979  23.751  0.00  0.00    +0.000 C 
ATOM     31  C   UNL     1      -1.304  11.733  22.794  0.00  0.00    +0.000 C 
ATOM     32  C   UNL     1      -1.466  14.216  22.556  0.00  0.00    +0.000 C 
ENDBRANCH  27  29
ENDBRANCH   7  23
TORSDOF 5
ENDMDL
MODEL 6
REMARK VINA RESULT:      -7.1      0.955      2.209
REMARK  Name = 
REMARK  9 active torsions:
REMARK  status: ('A' for Active; 'I' for Inactive)
REMARK    1  A    between atoms: C_1  and  O_2
REMARK    2  A    between atoms: O_2  and  C_3
REMARK    3  A    between atoms: C_6  and  C_7
REMARK    4  A    between atoms: C_13  and  C_14
REMARK    5  A    between atoms: C_18  and  C_19
REMARK    6  A    between atoms: C_19  and  C_20
REMARK    7  A    between atoms: C_19  and  C_21
REMARK    8  A    between atoms: C_19  and  C_22
REMARK    9  A    between atoms: C_26  and  O_27
REMARK                            x       y       z     vdW  Elec       q    Type
REMARK                         _______ _______ _______ _____ _____    ______ ____
ROOT
ATOM      1  C   UNL     1       3.320   6.118  19.115  0.00  0.00    +0.000 C 
ATOM      2  CA  UNL     1       2.421   7.099  19.285  0.00  0.00    +0.000 A 
ATOM      3  N   UNL     1       2.083   7.950  18.265  0.00  0.00    +0.000 N 
ATOM      4  C   UNL     1       1.258   9.031  18.360  0.00  0.00    +0.000 A 
ATOM      5  O   UNL     1       1.188   9.802  17.412  0.00  0.00    +0.000 OA
ATOM      6  CA  UNL     1       0.543   9.186  19.686  0.00  0.00    +0.000 A 
ATOM      7  C   UNL     1      -0.377  10.149  19.879  0.00  0.00    +0.000 C 
ATOM      8  N   UNL     1       0.880   8.327  20.715  0.00  0.00    +0.000 N 
ATOM      9  C   UNL     1       1.796   7.309  20.636  0.00  0.00    +0.000 A 
ATOM     10  O   UNL     1       2.092   6.636  21.618  0.00  0.00    +0.000 OA
ATOM     11  H   UNL     1       2.511   7.847  17.353  0.00  0.00    +0.000 HD
ATOM     12  H   UNL     1       0.459   8.451  21.628  0.00  0.00    +0.000 HD
ENDROOT
BRANCH   1  16
ATOM     13  C   UNL     1       5.601   5.435  15.552  0.00  0.00    +0.000 A 
ATOM     14  C   UNL     1       5.629   6.674  16.198  0.00  0.00    +0.000 A 
ATOM     15  C   UNL     1       4.845   6.906  17.333  0.00  0.00    +0.000 A 
ATOM     16  C   UNL     1       4.015   5.897  17.838  0.00  0.00    +0.000 A 
ATOM     17  C   UNL     1       3.984   4.663  17.172  0.00  0.00    +0.000 A 
ATOM     18  C   UNL     1       4.768   4.431  16.041  0.00  0.00    +0.000 A 
BRANCH  13  20
ATOM     19  C   UNL     1       6.366   4.098  13.747  0.00  0.00    +0.000 C 
ATOM     20  O   UNL     1       6.434   5.323  14.471  0.00  0.00    +0.000 OA
ENDBRANCH  13  20
BRANCH  17  21
ATOM     21  O   UNL     1       3.225   3.606  17.594  0.00  0.00    +0.000 OA
ATOM     22  H   UNL     1       2.680   3.886  18.346  0.00  0.00    +0.000 HD
ENDBRANCH  17  21
ENDBRANCH   1  16
BRANCH   7  23
ATOM     23  C   UNL     1      -0.769  11.113  18.916  0.00  0.00    +0.000 A 
ATOM     24  N   UNL     1      -1.763  10.809  18.028  0.00  0.00    +0.000 NA
ATOM     25  C   UNL     1      -1.765  11.812  17.181  0.00  0.00    +0.000 A 
ATOM     26  N   UNL     1      -0.855  12.767  17.533  0.00  0.00    +0.000 N 
ATOM     27  C   UNL     1      -0.211  12.359  18.686  0.00  0.00    +0.000 A 
ATOM     28  H   UNL     1      -0.667  13.606  17.005  0.00  0.00    +0.000 HD
BRANCH  27  29
ATOM     29  C   UNL     1       0.861  13.176  19.386  0.00  0.00    +0.000 C 
ATOM     30  C   UNL     1       0.785  12.998  20.917  0.00  0.00    +0.000 C 
ATOM     31  C   UNL     1       2.249  12.711  18.904  0.00  0.00    +0.000 C 
ATOM     32  C   UNL     1       0.721  14.682  19.094  0.00  0.00    +0.000 C 
ENDBRANCH  27  29
ENDBRANCH   7  23
TORSDOF 5
ENDMDL
MODEL 7
REMARK VINA RESULT:      -6.9      5.293      6.998
REMARK  Name = 
REMARK  9 active torsions:
REMARK  status: ('A' for Active; 'I' for Inactive)
REMARK    1  A    between atoms: C_1  and  O_2
REMARK    2  A    between atoms: O_2  and  C_3
REMARK    3  A    between atoms: C_6  and  C_7
REMARK    4  A    between atoms: C_13  and  C_14
REMARK    5  A    between atoms: C_18  and  C_19
REMARK    6  A    between atoms: C_19  and  C_20
REMARK    7  A    between atoms: C_19  and  C_21
REMARK    8  A    between atoms: C_19  and  C_22
REMARK    9  A    between atoms: C_26  and  O_27
REMARK                            x       y       z     vdW  Elec       q    Type
REMARK                         _______ _______ _______ _____ _____    ______ ____
ROOT
ATOM      1  C   UNL     1       1.847  12.446  20.481  0.00  0.00    +0.000 C 
ATOM      2  CA  UNL     1       0.800  11.813  19.928  0.00  0.00    +0.000 A 
ATOM      3  N   UNL     1       0.222  12.258  18.768  0.00  0.00    +0.000 N 
ATOM      4  C   UNL     1      -0.896  11.747  18.180  0.00  0.00    +0.000 A 
ATOM      5  O   UNL     1      -1.399  12.355  17.244  0.00  0.00    +0.000 OA
ATOM      6  CA  UNL     1      -1.434  10.476  18.804  0.00  0.00    +0.000 A 
ATOM      7  C   UNL     1      -2.471   9.811  18.261  0.00  0.00    +0.000 C 
ATOM      8  N   UNL     1      -0.851  10.024  19.973  0.00  0.00    +0.000 N 
ATOM      9  C   UNL     1       0.208  10.614  20.615  0.00  0.00    +0.000 A 
ATOM     10  O   UNL     1       0.622  10.191  21.690  0.00  0.00    +0.000 OA
ATOM     11  H   UNL     1       0.584  13.080  18.301  0.00  0.00    +0.000 HD
ATOM     12  H   UNL     1      -1.233   9.211  20.440  0.00  0.00    +0.000 HD
ENDROOT
BRANCH   1  16
ATOM     13  C   UNL     1       3.804  15.934  18.944  0.00  0.00    +0.000 A 
ATOM     14  C   UNL     1       3.199  15.944  20.204  0.00  0.00    +0.000 A 
ATOM     15  C   UNL     1       2.519  14.818  20.680  0.00  0.00    +0.000 A 
ATOM     16  C   UNL     1       2.434  13.660  19.896  0.00  0.00    +0.000 A 
ATOM     17  C   UNL     1       3.032  13.667  18.628  0.00  0.00    +0.000 A 
ATOM     18  C   UNL     1       3.711  14.790  18.154  0.00  0.00    +0.000 A 
BRANCH  13  20
ATOM     19  C   UNL     1       5.644  17.378  19.343  0.00  0.00    +0.000 C 
ATOM     20  O   UNL     1       4.462  17.085  18.605  0.00  0.00    +0.000 OA
ENDBRANCH  13  20
BRANCH  17  21
ATOM     21  O   UNL     1       3.025  12.584  17.793  0.00  0.00    +0.000 OA
ATOM     22  H   UNL     1       3.307  12.862  16.908  0.00  0.00    +0.000 HD
ENDBRANCH  17  21
ENDBRANCH   1  16
BRANCH   7  23
ATOM     23  C   UNL     1      -3.175  10.203  17.095  0.00  0.00    +0.000 A 
ATOM     24  N   UNL     1      -2.681   9.864  15.866  0.00  0.00    +0.000 NA
ATOM     25  C   UNL     1      -3.444  10.510  15.016  0.00  0.00    +0.000 A 
ATOM     26  N   UNL     1      -4.440  11.192  15.654  0.00  0.00    +0.000 N 
ATOM     27  C   UNL     1      -4.316  10.983  17.014  0.00  0.00    +0.000 A 
ATOM     28  H   UNL     1      -5.119  11.781  15.196  0.00  0.00    +0.000 HD
BRANCH  27  29
ATOM     29  C   UNL     1      -5.260  11.574  18.047  0.00  0.00    +0.000 C 
ATOM     30  C   UNL     1      -6.176  12.644  17.416  0.00  0.00    +0.000 C 
ATOM     31  C   UNL     1      -6.141  10.452  18.629  0.00  0.00    +0.000 C 
ATOM     32  C   UNL     1      -4.500  12.248  19.205  0.00  0.00    +0.000 C 
ENDBRANCH  27  29
ENDBRANCH   7  23
TORSDOF 5
ENDMDL
MODEL 8
REMARK VINA RESULT:      -6.9      2.748      8.315
REMARK  Name = 
REMARK  9 active torsions:
REMARK  status: ('A' for Active; 'I' for Inactive)
REMARK    1  A    between atoms: C_1  and  O_2
REMARK    2  A    between atoms: O_2  and  C_3
REMARK    3  A    between atoms: C_6  and  C_7
REMARK    4  A    between atoms: C_13  and  C_14
REMARK    5  A    between atoms: C_18  and  C_19
REMARK    6  A    between atoms: C_19  and  C_20
REMARK    7  A    between atoms: C_19  and  C_21
REMARK    8  A    between atoms: C_19  and  C_22
REMARK    9  A    between atoms: C_26  and  O_27
REMARK                            x       y       z     vdW  Elec       q    Type
REMARK                         _______ _______ _______ _____ _____    ______ ____
ROOT
ATOM      1  C   UNL     1       1.084   7.458  20.559  0.00  0.00    +0.000 C 
ATOM      2  CA  UNL     1       1.901   6.647  19.869  0.00  0.00    +0.000 A 
ATOM      3  N   UNL     1       2.792   7.137  18.950  0.00  0.00    +0.000 N 
ATOM      4  C   UNL     1       3.594   6.397  18.134  0.00  0.00    +0.000 A 
ATOM      5  O   UNL     1       4.208   6.965  17.240  0.00  0.00    +0.000 OA
ATOM      6  CA  UNL     1       3.590   4.906  18.401  0.00  0.00    +0.000 A 
ATOM      7  C   UNL     1       4.413   4.072  17.736  0.00  0.00    +0.000 C 
ATOM      8  N   UNL     1       2.694   4.410  19.329  0.00  0.00    +0.000 N 
ATOM      9  C   UNL     1       1.814   5.160  20.066  0.00  0.00    +0.000 A 
ATOM     10  O   UNL     1       0.999   4.635  20.818  0.00  0.00    +0.000 OA
ATOM     11  H   UNL     1       2.850   8.134  18.778  0.00  0.00    +0.000 HD
ATOM     12  H   UNL     1       2.633   3.411  19.479  0.00  0.00    +0.000 HD
ENDROOT
BRANCH   1  16
ATOM     13  C   UNL     1       0.755  11.686  19.948  0.00  0.00    +0.000 A 
ATOM     14  C   UNL     1       0.813  10.805  18.865  0.00  0.00    +0.000 A 
ATOM     15  C   UNL     1       0.970   9.430  19.070  0.00  0.00    +0.000 A 
ATOM     16  C   UNL     1       1.072   8.916  20.368  0.00  0.00    +0.000 A 
ATOM     17  C   UNL     1       1.027   9.811  21.447  0.00  0.00    +0.000 A 
ATOM     18  C   UNL     1       0.870  11.183  21.242  0.00  0.00    +0.000 A 
BRANCH  13  20
ATOM     19  C   UNL     1      -0.376  13.269  18.589  0.00  0.00    +0.000 C 
ATOM     20  O   UNL     1       0.571  13.003  19.619  0.00  0.00    +0.000 OA
ENDBRANCH  13  20
BRANCH  17  21
ATOM     21  O   UNL     1       1.098   9.411  22.752  0.00  0.00    +0.000 OA
ATOM     22  H   UNL     1       1.997   9.102  22.942  0.00  0.00    +0.000 HD
ENDBRANCH  17  21
ENDBRANCH   1  16
BRANCH   7  23
ATOM     23  C   UNL     1       5.336   4.458  16.734  0.00  0.00    +0.000 A 
ATOM     24  N   UNL     1       5.034   4.232  15.419  0.00  0.00    +0.000 NA
ATOM     25  C   UNL     1       6.137   4.528  14.773  0.00  0.00    +0.000 A 
ATOM     26  N   UNL     1       7.104   4.993  15.617  0.00  0.00    +0.000 N 
ATOM     27  C   UNL     1       6.601   4.995  16.905  0.00  0.00    +0.000 A 
ATOM     28  H   UNL     1       8.039   5.247  15.338  0.00  0.00    +0.000 HD
BRANCH  27  29
ATOM     29  C   UNL     1       7.388   5.463  18.116  0.00  0.00    +0.000 C 
ATOM     30  C   UNL     1       6.527   5.409  19.395  0.00  0.00    +0.000 C 
ATOM     31  C   UNL     1       8.615   4.550  18.308  0.00  0.00    +0.000 C 
ATOM     32  C   UNL     1       7.880   6.914  17.958  0.00  0.00    +0.000 C 
ENDBRANCH  27  29
ENDBRANCH   7  23
TORSDOF 5
ENDMDL
MODEL 9
REMARK VINA RESULT:      -6.7      1.267      1.682
REMARK  Name = 
REMARK  9 active torsions:
REMARK  status: ('A' for Active; 'I' for Inactive)
REMARK    1  A    between atoms: C_1  and  O_2
REMARK    2  A    between atoms: O_2  and  C_3
REMARK    3  A    between atoms: C_6  and  C_7
REMARK    4  A    between atoms: C_13  and  C_14
REMARK    5  A    between atoms: C_18  and  C_19
REMARK    6  A    between atoms: C_19  and  C_20
REMARK    7  A    between atoms: C_19  and  C_21
REMARK    8  A    between atoms: C_19  and  C_22
REMARK    9  A    between atoms: C_26  and  O_27
REMARK                            x       y       z     vdW  Elec       q    Type
REMARK                         _______ _______ _______ _____ _____    ______ ____
ROOT
ATOM      1  C   UNL     1       3.578   5.153  19.040  0.00  0.00    +0.000 C 
ATOM      2  CA  UNL     1       2.857   6.270  19.223  0.00  0.00    +0.000 A 
ATOM      3  N   UNL     1       2.939   7.328  18.355  0.00  0.00    +0.000 N 
ATOM      4  C   UNL     1       2.326   8.536  18.502  0.00  0.00    +0.000 A 
ATOM      5  O   UNL     1       2.630   9.446  17.741  0.00  0.00    +0.000 OA
ATOM      6  CA  UNL     1       1.349   8.632  19.656  0.00  0.00    +0.000 A 
ATOM      7  C   UNL     1       0.601   9.734  19.851  0.00  0.00    +0.000 C 
ATOM      8  N   UNL     1       1.263   7.565  20.530  0.00  0.00    +0.000 N 
ATOM      9  C   UNL     1       1.971   6.395  20.431  0.00  0.00    +0.000 A 
ATOM     10  O   UNL     1       1.892   5.523  21.290  0.00  0.00    +0.000 OA
ATOM     11  H   UNL     1       3.551   7.280  17.550  0.00  0.00    +0.000 HD
ATOM     12  H   UNL     1       0.662   7.632  21.342  0.00  0.00    +0.000 HD
ENDROOT
BRANCH   1  16
ATOM     13  C   UNL     1       6.182   4.931  15.645  0.00  0.00    +0.000 A 
ATOM     14  C   UNL     1       4.850   4.516  15.559  0.00  0.00    +0.000 A 
ATOM     15  C   UNL     1       4.018   4.545  16.683  0.00  0.00    +0.000 A 
ATOM     16  C   UNL     1       4.511   4.990  17.916  0.00  0.00    +0.000 A 
ATOM     17  C   UNL     1       5.854   5.390  17.994  0.00  0.00    +0.000 A 
ATOM     18  C   UNL     1       6.683   5.361  16.871  0.00  0.00    +0.000 A 
BRANCH  13  20
ATOM     19  C   UNL     1       6.411   3.965  13.490  0.00  0.00    +0.000 C 
ATOM     20  O   UNL     1       6.884   4.882  14.470  0.00  0.00    +0.000 OA
ENDBRANCH  13  20
BRANCH  17  21
ATOM     21  O   UNL     1       6.427   5.859  19.143  0.00  0.00    +0.000 OA
ATOM     22  H   UNL     1       5.730   6.150  19.751  0.00  0.00    +0.000 HD
ENDBRANCH  17  21
ENDBRANCH   1  16
BRANCH   7  23
ATOM     23  C   UNL     1       0.637  10.903  19.051  0.00  0.00    +0.000 A 
ATOM     24  N   UNL     1       1.785  11.644  18.998  0.00  0.00    +0.000 NA
ATOM     25  C   UNL     1       1.446  12.727  18.336  0.00  0.00    +0.000 A 
ATOM     26  N   UNL     1       0.149  12.670  17.914  0.00  0.00    +0.000 N 
ATOM     27  C   UNL     1      -0.400  11.474  18.333  0.00  0.00    +0.000 A 
ATOM     28  H   UNL     1      -0.327  13.408  17.416  0.00  0.00    +0.000 HD
BRANCH  27  29
ATOM     29  C   UNL     1      -1.828  11.051  18.034  0.00  0.00    +0.000 C 
ATOM     30  C   UNL     1      -2.821  11.717  19.010  0.00  0.00    +0.000 C 
ATOM     31  C   UNL     1      -2.191  11.473  16.597  0.00  0.00    +0.000 C 
ATOM     32  C   UNL     1      -2.017   9.528  18.158  0.00  0.00    +0.000 C 
ENDBRANCH  27  29
ENDBRANCH   7  23
TORSDOF 5
ENDMDL
