MODEL 1
REMARK VINA RESULT:      -7.3      0.000      0.000
REMARK  Name = 
REMARK  7 active torsions:
REMARK  status: ('A' for Active; 'I' for Inactive)
REMARK    1  A    between atoms: C_1  and  C_2
REMARK    2  A    between atoms: C_6  and  O_7
REMARK    3  A    between atoms: O_7  and  C_8
REMARK    4  A    between atoms: C_8  and  C_9
REMARK    5  A    between atoms: N_11  and  C_12
REMARK    6  A    between atoms: C_12  and  C_13
REMARK    7  A    between atoms: C_13  and  C_14
REMARK                            x       y       z     vdW  Elec       q    Type
REMARK                         _______ _______ _______ _____ _____    ______ ____
ROOT
ATOM      1  C   UNL     1       6.694   6.406  17.609  0.00  0.00    +0.000 C 
ATOM      2  O   UNL     1       6.662   6.036  18.783  0.00  0.00    +0.000 OA
ATOM      3  N   UNL     1       7.514   7.424  17.171  0.00  0.00    +0.000 N 
ATOM      4  H   UNL     1       7.394   7.753  16.215  0.00  0.00    +0.000 HD
ENDROOT
BRANCH   1   5
ATOM      5  C   UNL     1       5.826   5.756  16.535  0.00  0.00    +0.000 C 
BRANCH   5   6
ATOM      6  O   UNL     1       6.399   4.563  16.033  0.00  0.00    +0.000 OA
BRANCH   6  12
ATOM      7  C   UNL     1       5.537   2.774  11.770  0.00  0.00    +0.000 C 
ATOM      8  C   UNL     1       6.332   3.720  12.620  0.00  0.00    +0.000 A 
ATOM      9  C   UNL     1       7.332   4.500  12.080  0.00  0.00    +0.000 A 
ATOM     10  C   UNL     1       7.987   5.336  12.955  0.00  0.00    +0.000 A 
ATOM     11  N   UNL     1       7.693   5.425  14.266  0.00  0.00    +0.000 NA
ATOM     12  C   UNL     1       6.721   4.605  14.697  0.00  0.00    +0.000 A 
ATOM     13  N   UNL     1       6.022   3.756  13.931  0.00  0.00    +0.000 NA
ENDBRANCH   6  12
ENDBRANCH   5   6
ENDBRANCH   1   5
BRANCH   3  14
ATOM     14  C   UNL     1       8.311   8.200  18.107  0.00  0.00    +0.000 C 
BRANCH  14  15
ATOM     15  C   UNL     1       8.139   9.711  17.913  0.00  0.00    +0.000 C 
BRANCH  15  16
ATOM     16  C   UNL     1       9.254  10.505  18.554  0.00  0.00    +0.000 A 
ATOM     17  C   UNL     1       9.277  10.684  19.944  0.00  0.00    +0.000 A 
ATOM     18  C   UNL     1      10.277  11.450  20.548  0.00  0.00    +0.000 A 
ATOM     19  C   UNL     1      11.267  12.044  19.769  0.00  0.00    +0.000 A 
ATOM     20  C   UNL     1      11.264  11.862  18.387  0.00  0.00    +0.000 A 
ATOM     21  C   UNL     1      10.263  11.096  17.781  0.00  0.00    +0.000 A 
ENDBRANCH  15  16
ENDBRANCH  14  15
ENDBRANCH   3  14
TORSDOF 6
ENDMDL
MODEL 2
REMARK VINA RESULT:      -7.3      4.320      6.708
REMARK  Name = 
REMARK  7 active torsions:
REMARK  status: ('A' for Active; 'I' for Inactive)
REMARK    1  A    between atoms: C_1  and  C_2
REMARK    2  A    between atoms: C_6  and  O_7
REMARK    3  A    between atoms: O_7  and  C_8
REMARK    4  A    between atoms: C_8  and  C_9
REMARK    5  A    between atoms: N_11  and  C_12
REMARK    6  A    between atoms: C_12  and  C_13
REMARK    7  A    between atoms: C_13  and  C_14
REMARK                            x       y       z     vdW  Elec       q    Type
REMARK                         _______ _______ _______ _____ _____    ______ ____
ROOT
ATOM      1  C   UNL     1       5.778   5.606  17.993  0.00  0.00    +0.000 C 
ATOM      2  O   UNL     1       5.897   5.343  19.190  0.00  0.00    +0.000 OA
ATOM      3  N   UNL     1       4.676   6.254  17.479  0.00  0.00    +0.000 N 
ATOM      4  H   UNL     1       4.595   6.326  16.467  0.00  0.00    +0.000 HD
ENDROOT
BRANCH   1   5
ATOM      5  C   UNL     1       6.855   5.237  16.976  0.00  0.00    +0.000 C 
BRANCH   5   6
ATOM      6  O   UNL     1       6.449   4.181  16.124  0.00  0.00    +0.000 OA
BRANCH   6  12
ATOM      7  C   UNL     1       5.651   2.743  11.719  0.00  0.00    +0.000 C 
ATOM      8  C   UNL     1       6.380   3.669  12.647  0.00  0.00    +0.000 A 
ATOM      9  C   UNL     1       7.295   4.584  12.172  0.00  0.00    +0.000 A 
ATOM     10  C   UNL     1       7.894   5.387  13.115  0.00  0.00    +0.000 A 
ATOM     11  N   UNL     1       7.623   5.323  14.433  0.00  0.00    +0.000 NA
ATOM     12  C   UNL     1       6.736   4.381  14.794  0.00  0.00    +0.000 A 
ATOM     13  N   UNL     1       6.097   3.550  13.959  0.00  0.00    +0.000 NA
ENDBRANCH   6  12
ENDBRANCH   5   6
ENDBRANCH   1   5
BRANCH   3  14
ATOM     14  C   UNL     1       3.530   6.565  18.317  0.00  0.00    +0.000 C 
BRANCH  14  15
ATOM     15  C   UNL     1       2.322   5.670  18.017  0.00  0.00    +0.000 C 
BRANCH  15  16
ATOM     16  C   UNL     1       2.095   4.629  19.090  0.00  0.00    +0.000 A 
ATOM     17  C   UNL     1       1.742   3.321  18.733  0.00  0.00    +0.000 A 
ATOM     18  C   UNL     1       1.488   2.358  19.713  0.00  0.00    +0.000 A 
ATOM     19  C   UNL     1       1.585   2.693  21.062  0.00  0.00    +0.000 A 
ATOM     20  C   UNL     1       1.949   3.988  21.430  0.00  0.00    +0.000 A 
ATOM     21  C   UNL     1       2.203   4.952  20.450  0.00  0.00    +0.000 A 
ENDBRANCH  15  16
ENDBRANCH  14  15
ENDBRANCH   3  14
TORSDOF 6
ENDMDL
MODEL 3
REMARK VINA RESULT:      -7.2      4.262      6.839
REMARK  Name = 
REMARK  7 active torsions:
REMARK  status: ('A' for Active; 'I' for Inactive)
REMARK    1  A    between atoms: C_1  and  C_2
REMARK    2  A    between atoms: C_6  and  O_7
REMARK    3  A    between atoms: O_7  and  C_8
REMARK    4  A    between atoms: C_8  and  C_9
REMARK    5  A    between atoms: N_11  and  C_12
REMARK    6  A    between atoms: C_12  and  C_13
REMARK    7  A    between atoms: C_13  and  C_14
REMARK                            x       y       z     vdW  Elec       q    Type
REMARK                         _______ _______ _______ _____ _____    ______ ____
ROOT
ATOM      1  C   UNL     1       5.282   5.852  17.598  0.00  0.00    +0.000 C 
ATOM      2  O   UNL     1       5.343   4.918  18.397  0.00  0.00    +0.000 OA
ATOM      3  N   UNL     1       4.307   6.824  17.662  0.00  0.00    +0.000 N 
ATOM      4  H   UNL     1       4.250   7.492  16.895  0.00  0.00    +0.000 HD
ENDROOT
BRANCH   1   5
ATOM      5  C   UNL     1       6.294   6.012  16.466  0.00  0.00    +0.000 C 
BRANCH   5   6
ATOM      6  O   UNL     1       6.748   4.765  15.973  0.00  0.00    +0.000 OA
BRANCH   6  12
ATOM      7  C   UNL     1       5.456   2.734  11.933  0.00  0.00    +0.000 C 
ATOM      8  C   UNL     1       6.335   3.721  12.641  0.00  0.00    +0.000 A 
ATOM      9  C   UNL     1       7.277   4.460  11.958  0.00  0.00    +0.000 A 
ATOM     10  C   UNL     1       8.019   5.341  12.710  0.00  0.00    +0.000 A 
ATOM     11  N   UNL     1       7.859   5.510  14.037  0.00  0.00    +0.000 NA
ATOM     12  C   UNL     1       6.933   4.725  14.611  0.00  0.00    +0.000 A 
ATOM     13  N   UNL     1       6.158   3.838  13.972  0.00  0.00    +0.000 NA
ENDBRANCH   6  12
ENDBRANCH   5   6
ENDBRANCH   1   5
BRANCH   3  14
ATOM     14  C   UNL     1       3.219   6.733  18.621  0.00  0.00    +0.000 C 
BRANCH  14  15
ATOM     15  C   UNL     1       1.972   6.061  18.035  0.00  0.00    +0.000 C 
BRANCH  15  16
ATOM     16  C   UNL     1       1.832   4.621  18.476  0.00  0.00    +0.000 A 
ATOM     17  C   UNL     1       1.322   4.325  19.747  0.00  0.00    +0.000 A 
ATOM     18  C   UNL     1       1.226   3.002  20.186  0.00  0.00    +0.000 A 
ATOM     19  C   UNL     1       1.637   1.961  19.357  0.00  0.00    +0.000 A 
ATOM     20  C   UNL     1       2.133   2.242  18.085  0.00  0.00    +0.000 A 
ATOM     21  C   UNL     1       2.231   3.565  17.645  0.00  0.00    +0.000 A 
ENDBRANCH  15  16
ENDBRANCH  14  15
ENDBRANCH   3  14
TORSDOF 6
ENDMDL
MODEL 4
REMARK VINA RESULT:      -7.1      4.276      7.068
REMARK  Name = 
REMARK  7 active torsions:
REMARK  status: ('A' for Active; 'I' for Inactive)
REMARK    1  A    between atoms: C_1  and  C_2
REMARK    2  A    between atoms: C_6  and  O_7
REMARK    3  A    between atoms: O_7  and  C_8
REMARK    4  A    between atoms: C_8  and  C_9
REMARK    5  A    between atoms: N_11  and  C_12
REMARK    6  A    between atoms: C_12  and  C_13
REMARK    7  A    between atoms: C_13  and  C_14
REMARK                            x       y       z     vdW  Elec       q    Type
REMARK                         _______ _______ _______ _____ _____    ______ ____
ROOT
ATOM      1  C   UNL     1       5.344   5.632  16.622  0.00  0.00    +0.000 C 
ATOM      2  O   UNL     1       4.615   6.623  16.571  0.00  0.00    +0.000 OA
ATOM      3  N   UNL     1       4.852   4.353  16.763  0.00  0.00    +0.000 N 
ATOM      4  H   UNL     1       5.520   3.601  16.919  0.00  0.00    +0.000 HD
ENDROOT
BRANCH   1   5
ATOM      5  C   UNL     1       6.863   5.744  16.524  0.00  0.00    +0.000 C 
BRANCH   5   6
ATOM      6  O   UNL     1       7.440   4.636  15.857  0.00  0.00    +0.000 OA
BRANCH   6  12
ATOM      7  C   UNL     1       5.493   2.755  12.013  0.00  0.00    +0.000 C 
ATOM      8  C   UNL     1       6.435   3.761  12.604  0.00  0.00    +0.000 A 
ATOM      9  C   UNL     1       7.176   4.604  11.805  0.00  0.00    +0.000 A 
ATOM     10  C   UNL     1       8.000   5.491  12.459  0.00  0.00    +0.000 A 
ATOM     11  N   UNL     1       8.098   5.571  13.800  0.00  0.00    +0.000 NA
ATOM     12  C   UNL     1       7.353   4.689  14.486  0.00  0.00    +0.000 A 
ATOM     13  N   UNL     1       6.520   3.786  13.949  0.00  0.00    +0.000 NA
ENDBRANCH   6  12
ENDBRANCH   5   6
ENDBRANCH   1   5
BRANCH   3  14
ATOM     14  C   UNL     1       3.434   4.113  16.976  0.00  0.00    +0.000 C 
BRANCH  14  15
ATOM     15  C   UNL     1       3.159   2.751  17.624  0.00  0.00    +0.000 C 
BRANCH  15  16
ATOM     16  C   UNL     1       2.573   2.881  19.012  0.00  0.00    +0.000 A 
ATOM     17  C   UNL     1       3.320   2.477  20.127  0.00  0.00    +0.000 A 
ATOM     18  C   UNL     1       2.778   2.551  21.412  0.00  0.00    +0.000 A 
ATOM     19  C   UNL     1       1.484   3.033  21.597  0.00  0.00    +0.000 A 
ATOM     20  C   UNL     1       0.737   3.452  20.498  0.00  0.00    +0.000 A 
ATOM     21  C   UNL     1       1.278   3.377  19.210  0.00  0.00    +0.000 A 
ENDBRANCH  15  16
ENDBRANCH  14  15
ENDBRANCH   3  14
TORSDOF 6
ENDMDL
MODEL 5
REMARK VINA RESULT:      -7.1      3.735      6.961
REMARK  Name = 
REMARK  7 active torsions:
REMARK  status: ('A' for Active; 'I' for Inactive)
REMARK    1  A    between atoms: C_1  and  C_2
REMARK    2  A    between atoms: C_6  and  O_7
REMARK    3  A    between atoms: O_7  and  C_8
REMARK    4  A    between atoms: C_8  and  C_9
REMARK    5  A    between atoms: N_11  and  C_12
REMARK    6  A    between atoms: C_12  and  C_13
REMARK    7  A    between atoms: C_13  and  C_14
REMARK                            x       y       z     vdW  Elec       q    Type
REMARK                         _______ _______ _______ _____ _____    ______ ____
ROOT
ATOM      1  C   UNL     1       5.644   6.286  18.214  0.00  0.00    +0.000 C 
ATOM      2  O   UNL     1       5.610   5.611  19.243  0.00  0.00    +0.000 OA
ATOM      3  N   UNL     1       4.528   6.900  17.690  0.00  0.00    +0.000 N 
ATOM      4  H   UNL     1       4.611   7.337  16.774  0.00  0.00    +0.000 HD
ENDROOT
BRANCH   1   5
ATOM      5  C   UNL     1       6.939   6.503  17.435  0.00  0.00    +0.000 C 
BRANCH   5   6
ATOM      6  O   UNL     1       7.548   5.281  17.058  0.00  0.00    +0.000 OA
BRANCH   6  12
ATOM      7  C   UNL     1       7.807   5.408  12.365  0.00  0.00    +0.000 C 
ATOM      8  C   UNL     1       7.172   4.826  13.592  0.00  0.00    +0.000 A 
ATOM      9  C   UNL     1       6.165   3.889  13.502  0.00  0.00    +0.000 A 
ATOM     10  C   UNL     1       5.666   3.420  14.695  0.00  0.00    +0.000 A 
ATOM     11  N   UNL     1       6.113   3.818  15.901  0.00  0.00    +0.000 NA
ATOM     12  C   UNL     1       7.078   4.752  15.880  0.00  0.00    +0.000 A 
ATOM     13  N   UNL     1       7.633   5.274  14.777  0.00  0.00    +0.000 NA
ENDBRANCH   6  12
ENDBRANCH   5   6
ENDBRANCH   1   5
BRANCH   3  14
ATOM     14  C   UNL     1       3.212   6.687  18.270  0.00  0.00    +0.000 C 
BRANCH  14  15
ATOM     15  C   UNL     1       2.543   5.407  17.755  0.00  0.00    +0.000 C 
BRANCH  15  16
ATOM     16  C   UNL     1       2.101   4.497  18.879  0.00  0.00    +0.000 A 
ATOM     17  C   UNL     1       1.328   3.362  18.597  0.00  0.00    +0.000 A 
ATOM     18  C   UNL     1       0.877   2.533  19.627  0.00  0.00    +0.000 A 
ATOM     19  C   UNL     1       1.193   2.830  20.951  0.00  0.00    +0.000 A 
ATOM     20  C   UNL     1       1.972   3.948  21.243  0.00  0.00    +0.000 A 
ATOM     21  C   UNL     1       2.425   4.779  20.213  0.00  0.00    +0.000 A 
ENDBRANCH  15  16
ENDBRANCH  14  15
ENDBRANCH   3  14
TORSDOF 6
ENDMDL
MODEL 6
REMARK VINA RESULT:      -7.1      2.547      3.868
REMARK  Name = 
REMARK  7 active torsions:
REMARK  status: ('A' for Active; 'I' for Inactive)
REMARK    1  A    between atoms: C_1  and  C_2
REMARK    2  A    between atoms: C_6  and  O_7
REMARK    3  A    between atoms: O_7  and  C_8
REMARK    4  A    between atoms: C_8  and  C_9
REMARK    5  A    between atoms: N_11  and  C_12
REMARK    6  A    between atoms: C_12  and  C_13
REMARK    7  A    between atoms: C_13  and  C_14
REMARK                            x       y       z     vdW  Elec       q    Type
REMARK                         _______ _______ _______ _____ _____    ______ ____
ROOT
ATOM      1  C   UNL     1       7.349   6.492  17.571  0.00  0.00    +0.000 C 
ATOM      2  O   UNL     1       7.623   5.923  18.628  0.00  0.00    +0.000 OA
ATOM      3  N   UNL     1       7.749   7.782  17.295  0.00  0.00    +0.000 N 
ATOM      4  H   UNL     1       7.382   8.225  16.455  0.00  0.00    +0.000 HD
ENDROOT
BRANCH   1   5
ATOM      5  C   UNL     1       6.545   5.806  16.471  0.00  0.00    +0.000 C 
BRANCH   5   6
ATOM      6  O   UNL     1       5.290   6.427  16.258  0.00  0.00    +0.000 OA
BRANCH   6  12
ATOM      7  C   UNL     1       2.727   2.718  17.594  0.00  0.00    +0.000 C 
ATOM      8  C   UNL     1       3.010   4.185  17.719  0.00  0.00    +0.000 A 
ATOM      9  C   UNL     1       2.263   4.990  18.553  0.00  0.00    +0.000 A 
ATOM     10  C   UNL     1       2.620   6.317  18.593  0.00  0.00    +0.000 A 
ATOM     11  N   UNL     1       3.638   6.840  17.883  0.00  0.00    +0.000 NA
ATOM     12  C   UNL     1       4.286   5.978  17.082  0.00  0.00    +0.000 A 
ATOM     13  N   UNL     1       4.020   4.669  16.969  0.00  0.00    +0.000 NA
ENDBRANCH   6  12
ENDBRANCH   5   6
ENDBRANCH   1   5
BRANCH   3  14
ATOM     14  C   UNL     1       8.427   8.588  18.297  0.00  0.00    +0.000 C 
BRANCH  14  15
ATOM     15  C   UNL     1       8.383  10.086  17.975  0.00  0.00    +0.000 C 
BRANCH  15  16
ATOM     16  C   UNL     1       9.532  10.845  18.600  0.00  0.00    +0.000 A 
ATOM     17  C   UNL     1      10.557  11.354  17.792  0.00  0.00    +0.000 A 
ATOM     18  C   UNL     1      11.646  12.021  18.358  0.00  0.00    +0.000 A 
ATOM     19  C   UNL     1      11.722  12.187  19.739  0.00  0.00    +0.000 A 
ATOM     20  C   UNL     1      10.702  11.697  20.553  0.00  0.00    +0.000 A 
ATOM     21  C   UNL     1       9.611  11.029  19.988  0.00  0.00    +0.000 A 
ENDBRANCH  15  16
ENDBRANCH  14  15
ENDBRANCH   3  14
TORSDOF 6
ENDMDL
MODEL 7
REMARK VINA RESULT:      -7.0      3.661      7.461
REMARK  Name = 
REMARK  7 active torsions:
REMARK  status: ('A' for Active; 'I' for Inactive)
REMARK    1  A    between atoms: C_1  and  C_2
REMARK    2  A    between atoms: C_6  and  O_7
REMARK    3  A    between atoms: O_7  and  C_8
REMARK    4  A    between atoms: C_8  and  C_9
REMARK    5  A    between atoms: N_11  and  C_12
REMARK    6  A    between atoms: C_12  and  C_13
REMARK    7  A    between atoms: C_13  and  C_14
REMARK                            x       y       z     vdW  Elec       q    Type
REMARK                         _______ _______ _______ _____ _____    ______ ____
ROOT
ATOM      1  C   UNL     1       4.734   4.676  16.265  0.00  0.00    +0.000 C 
ATOM      2  O   UNL     1       4.143   3.664  16.642  0.00  0.00    +0.000 OA
ATOM      3  N   UNL     1       4.524   5.915  16.829  0.00  0.00    +0.000 N 
ATOM      4  H   UNL     1       4.957   6.721  16.383  0.00  0.00    +0.000 HD
ENDROOT
BRANCH   1   5
ATOM      5  C   UNL     1       5.761   4.635  15.136  0.00  0.00    +0.000 C 
BRANCH   5   6
ATOM      6  O   UNL     1       7.083   4.484  15.620  0.00  0.00    +0.000 OA
BRANCH   6  12
ATOM      7  C   UNL     1       7.891   8.680  17.583  0.00  0.00    +0.000 C 
ATOM      8  C   UNL     1       7.768   7.194  17.751  0.00  0.00    +0.000 A 
ATOM      9  C   UNL     1       7.966   6.594  18.976  0.00  0.00    +0.000 A 
ATOM     10  C   UNL     1       7.818   5.227  19.012  0.00  0.00    +0.000 A 
ATOM     11  N   UNL     1       7.489   4.482  17.939  0.00  0.00    +0.000 NA
ATOM     12  C   UNL     1       7.342   5.160  16.789  0.00  0.00    +0.000 A 
ATOM     13  N   UNL     1       7.464   6.487  16.645  0.00  0.00    +0.000 NA
ENDBRANCH   6  12
ENDBRANCH   5   6
ENDBRANCH   1   5
BRANCH   3  14
ATOM     14  C   UNL     1       3.496   6.116  17.837  0.00  0.00    +0.000 C 
BRANCH  14  15
ATOM     15  C   UNL     1       3.972   5.741  19.245  0.00  0.00    +0.000 C 
BRANCH  15  16
ATOM     16  C   UNL     1       3.092   4.697  19.893  0.00  0.00    +0.000 A 
ATOM     17  C   UNL     1       3.628   3.452  20.249  0.00  0.00    +0.000 A 
ATOM     18  C   UNL     1       2.819   2.461  20.810  0.00  0.00    +0.000 A 
ATOM     19  C   UNL     1       1.464   2.704  21.021  0.00  0.00    +0.000 A 
ATOM     20  C   UNL     1       0.921   3.943  20.684  0.00  0.00    +0.000 A 
ATOM     21  C   UNL     1       1.730   4.936  20.123  0.00  0.00    +0.000 A 
ENDBRANCH  15  16
ENDBRANCH  14  15
ENDBRANCH   3  14
TORSDOF 6
ENDMDL
MODEL 8
REMARK VINA RESULT:      -6.9      4.858      6.772
REMARK  Name = 
REMARK  7 active torsions:
REMARK  status: ('A' for Active; 'I' for Inactive)
REMARK    1  A    between atoms: C_1  and  C_2
REMARK    2  A    between atoms: C_6  and  O_7
REMARK    3  A    between atoms: O_7  and  C_8
REMARK    4  A    between atoms: C_8  and  C_9
REMARK    5  A    between atoms: N_11  and  C_12
REMARK    6  A    between atoms: C_12  and  C_13
REMARK    7  A    between atoms: C_13  and  C_14
REMARK                            x       y       z     vdW  Elec       q    Type
REMARK                         _______ _______ _______ _____ _____    ______ ____
ROOT
ATOM      1  C   UNL     1       5.299   4.729  17.976  0.00  0.00    +0.000 C 
ATOM      2  O   UNL     1       5.419   4.071  19.009  0.00  0.00    +0.000 OA
ATOM      3  N   UNL     1       4.627   5.931  17.933  0.00  0.00    +0.000 N 
ATOM      4  H   UNL     1       4.466   6.354  17.021  0.00  0.00    +0.000 HD
ENDROOT
BRANCH   1   5
ATOM      5  C   UNL     1       5.897   4.265  16.651  0.00  0.00    +0.000 C 
BRANCH   5   6
ATOM      6  O   UNL     1       5.437   5.036  15.556  0.00  0.00    +0.000 OA
BRANCH   6  12
ATOM      7  C   UNL     1       5.430   2.447  11.631  0.00  0.00    +0.000 C 
ATOM      8  C   UNL     1       6.101   3.496  12.466  0.00  0.00    +0.000 A 
ATOM      9  C   UNL     1       7.287   4.077  12.070  0.00  0.00    +0.000 A 
ATOM     10  C   UNL     1       7.804   5.033  12.912  0.00  0.00    +0.000 A 
ATOM     11  N   UNL     1       7.214   5.418  14.060  0.00  0.00    +0.000 NA
ATOM     12  C   UNL     1       6.076   4.773  14.367  0.00  0.00    +0.000 A 
ATOM     13  N   UNL     1       5.488   3.829  13.619  0.00  0.00    +0.000 NA
ENDBRANCH   6  12
ENDBRANCH   5   6
ENDBRANCH   1   5
BRANCH   3  14
ATOM     14  C   UNL     1       3.918   6.437  19.097  0.00  0.00    +0.000 C 
BRANCH  14  15
ATOM     15  C   UNL     1       2.408   6.182  19.022  0.00  0.00    +0.000 C 
BRANCH  15  16
ATOM     16  C   UNL     1       2.006   4.890  19.696  0.00  0.00    +0.000 A 
ATOM     17  C   UNL     1       2.353   4.661  21.034  0.00  0.00    +0.000 A 
ATOM     18  C   UNL     1       2.027   3.456  21.659  0.00  0.00    +0.000 A 
ATOM     19  C   UNL     1       1.348   2.465  20.953  0.00  0.00    +0.000 A 
ATOM     20  C   UNL     1       0.985   2.686  19.626  0.00  0.00    +0.000 A 
ATOM     21  C   UNL     1       1.311   3.892  18.999  0.00  0.00    +0.000 A 
ENDBRANCH  15  16
ENDBRANCH  14  15
ENDBRANCH   3  14
TORSDOF 6
ENDMDL
MODEL 9
REMARK VINA RESULT:      -6.9      3.984      6.758
REMARK  Name = 
REMARK  7 active torsions:
REMARK  status: ('A' for Active; 'I' for Inactive)
REMARK    1  A    between atoms: C_1  and  C_2
REMARK    2  A    between atoms: C_6  and  O_7
REMARK    3  A    between atoms: O_7  and  C_8
REMARK    4  A    between atoms: C_8  and  C_9
REMARK    5  A    between atoms: N_11  and  C_12
REMARK    6  A    between atoms: C_12  and  C_13
REMARK    7  A    between atoms: C_13  and  C_14
REMARK                            x       y       z     vdW  Elec       q    Type
REMARK                         _______ _______ _______ _____ _____    ______ ____
ROOT
ATOM      1  C   UNL     1       6.277   6.403  17.710  0.00  0.00    +0.000 C 
ATOM      2  O   UNL     1       6.481   7.314  16.909  0.00  0.00    +0.000 OA
ATOM      3  N   UNL     1       5.012   6.029  18.108  0.00  0.00    +0.000 N 
ATOM      4  H   UNL     1       4.930   5.352  18.863  0.00  0.00    +0.000 HD
ENDROOT
BRANCH   1   5
ATOM      5  C   UNL     1       7.421   5.602  18.328  0.00  0.00    +0.000 C 
BRANCH   5   6
ATOM      6  O   UNL     1       7.871   4.565  17.474  0.00  0.00    +0.000 OA
BRANCH   6  12
ATOM      7  C   UNL     1       7.647   5.270  12.831  0.00  0.00    +0.000 C 
ATOM      8  C   UNL     1       6.985   4.765  14.079  0.00  0.00    +0.000 A 
ATOM      9  C   UNL     1       5.708   4.245  14.052  0.00  0.00    +0.000 A 
ATOM     10  C   UNL     1       5.208   3.805  15.255  0.00  0.00    +0.000 A 
ATOM     11  N   UNL     1       5.895   3.852  16.413  0.00  0.00    +0.000 NA
ATOM     12  C   UNL     1       7.119   4.399  16.336  0.00  0.00    +0.000 A 
ATOM     13  N   UNL     1       7.700   4.857  15.217  0.00  0.00    +0.000 NA
ENDBRANCH   6  12
ENDBRANCH   5   6
ENDBRANCH   1   5
BRANCH   3  14
ATOM     14  C   UNL     1       3.840   6.778  17.681  0.00  0.00    +0.000 C 
BRANCH  14  15
ATOM     15  C   UNL     1       2.766   6.859  18.772  0.00  0.00    +0.000 C 
BRANCH  15  16
ATOM     16  C   UNL     1       2.121   5.520  19.046  0.00  0.00    +0.000 A 
ATOM     17  C   UNL     1       1.766   5.169  20.356  0.00  0.00    +0.000 A 
ATOM     18  C   UNL     1       1.207   3.919  20.633  0.00  0.00    +0.000 A 
ATOM     19  C   UNL     1       0.995   3.006  19.602  0.00  0.00    +0.000 A 
ATOM     20  C   UNL     1       1.331   3.348  18.293  0.00  0.00    +0.000 A 
ATOM     21  C   UNL     1       1.890   4.599  18.015  0.00  0.00    +0.000 A 
ENDBRANCH  15  16
ENDBRANCH  14  15
ENDBRANCH   3  14
TORSDOF 6
ENDMDL
