MODEL 1
REMARK VINA RESULT:      -7.9      0.000      0.000
REMARK  Name = 
REMARK  7 active torsions:
REMARK  status: ('A' for Active; 'I' for Inactive)
REMARK    1  A    between atoms: C_1  and  O_2
REMARK    2  A    between atoms: O_2  and  C_3
REMARK    3  A    between atoms: C_6  and  S_7
REMARK    4  A    between atoms: S_7  and  N_10
REMARK    5  A    between atoms: C_11  and  C_12
REMARK    6  A    between atoms: C_12  and  C_13
REMARK    7  A    between atoms: C_13  and  N_14
REMARK                            x       y       z     vdW  Elec       q    Type
REMARK                         _______ _______ _______ _____ _____    ______ ____
ROOT
ATOM      1  N   UNL     1       3.826   5.282  18.611  0.00  0.00    +0.000 N 
ATOM      2  C   UNL     1       3.181   6.315  19.243  0.00  0.00    +0.000 A 
ATOM      3  N   UNL     1       2.787   5.898  20.426  0.00  0.00    +0.000 NA
ATOM      4  C   UNL     1       2.458   4.595  20.149  0.00  0.00    +0.000 A 
ATOM      5  C   UNL     1       1.411   3.893  20.764  0.00  0.00    +0.000 A 
ATOM      6  C   UNL     1       0.620   3.120  19.911  0.00  0.00    +0.000 A 
ATOM      7  C   UNL     1       0.994   2.931  18.576  0.00  0.00    +0.000 A 
ATOM      8  C   UNL     1       2.221   3.383  18.060  0.00  0.00    +0.000 A 
ATOM      9  C   UNL     1       2.992   4.210  18.894  0.00  0.00    +0.000 A 
ENDROOT
BRANCH   1  10
ATOM     10  S   UNL     1       5.425   5.542  18.193  0.00  0.00    +0.000 S 
ATOM     11  O   UNL     1       6.201   4.950  19.273  0.00  0.00    +0.000 OA
ATOM     12  O   UNL     1       5.498   6.965  17.918  0.00  0.00    +0.000 OA
BRANCH  10  16
ATOM     13  C   UNL     1       6.387   4.120  13.968  0.00  0.00    +0.000 A 
ATOM     14  C   UNL     1       7.294   4.910  14.683  0.00  0.00    +0.000 A 
ATOM     15  C   UNL     1       7.077   5.234  16.029  0.00  0.00    +0.000 A 
ATOM     16  C   UNL     1       5.936   4.753  16.680  0.00  0.00    +0.000 A 
ATOM     17  C   UNL     1       5.013   3.986  15.960  0.00  0.00    +0.000 A 
ATOM     18  C   UNL     1       5.237   3.663  14.613  0.00  0.00    +0.000 A 
BRANCH  13  20
ATOM     19  C   UNL     1       5.815   3.049  11.942  0.00  0.00    +0.000 C 
ATOM     20  O   UNL     1       6.682   3.925  12.653  0.00  0.00    +0.000 OA
ENDBRANCH  13  20
ENDBRANCH  10  16
ENDBRANCH   1  10
BRANCH   2  21
ATOM     21  C   UNL     1       2.473   7.215  18.287  0.00  0.00    +0.000 C 
BRANCH  21  22
ATOM     22  C   UNL     1       1.783   8.411  18.936  0.00  0.00    +0.000 C 
BRANCH  22  23
ATOM     23  N   UNL     1       1.390   9.386  17.893  0.00  0.00    +0.000 NA
ATOM     24  C   UNL     1       1.978  10.731  18.098  0.00  0.00    +0.000 C 
ATOM     25  C   UNL     1       1.458  11.391  19.378  0.00  0.00    +0.000 C 
ATOM     26  O   UNL     1       0.040  11.570  19.293  0.00  0.00    +0.000 OA
ATOM     27  C   UNL     1      -0.641  10.324  19.065  0.00  0.00    +0.000 C 
ATOM     28  C   UNL     1      -0.078   9.549  17.856  0.00  0.00    +0.000 C 
ENDBRANCH  22  23
ENDBRANCH  21  22
ENDBRANCH   2  21
TORSDOF 6
ENDMDL
MODEL 2
REMARK VINA RESULT:      -7.6      0.806      1.366
REMARK  Name = 
REMARK  7 active torsions:
REMARK  status: ('A' for Active; 'I' for Inactive)
REMARK    1  A    between atoms: C_1  and  O_2
REMARK    2  A    between atoms: O_2  and  C_3
REMARK    3  A    between atoms: C_6  and  S_7
REMARK    4  A    between atoms: S_7  and  N_10
REMARK    5  A    between atoms: C_11  and  C_12
REMARK    6  A    between atoms: C_12  and  C_13
REMARK    7  A    between atoms: C_13  and  N_14
REMARK                            x       y       z     vdW  Elec       q    Type
REMARK                         _______ _______ _______ _____ _____    ______ ____
ROOT
ATOM      1  N   UNL     1       4.005   5.001  18.463  0.00  0.00    +0.000 N 
ATOM      2  C   UNL     1       3.454   6.077  19.111  0.00  0.00    +0.000 A 
ATOM      3  N   UNL     1       3.091   5.695  20.316  0.00  0.00    +0.000 NA
ATOM      4  C   UNL     1       2.671   4.413  20.069  0.00  0.00    +0.000 A 
ATOM      5  C   UNL     1       1.613   3.782  20.740  0.00  0.00    +0.000 A 
ATOM      6  C   UNL     1       0.738   3.050  19.934  0.00  0.00    +0.000 A 
ATOM      7  C   UNL     1       1.037   2.827  18.585  0.00  0.00    +0.000 A 
ATOM      8  C   UNL     1       2.265   3.198  18.008  0.00  0.00    +0.000 A 
ATOM      9  C   UNL     1       3.122   3.984  18.796  0.00  0.00    +0.000 A 
ENDROOT
BRANCH   1  10
ATOM     10  S   UNL     1       5.596   5.159  17.968  0.00  0.00    +0.000 S 
ATOM     11  O   UNL     1       6.294   4.031  18.569  0.00  0.00    +0.000 OA
ATOM     12  O   UNL     1       5.947   6.523  18.318  0.00  0.00    +0.000 OA
BRANCH  10  16
ATOM     13  C   UNL     1       6.470   4.172  13.603  0.00  0.00    +0.000 A 
ATOM     14  C   UNL     1       5.195   3.969  14.143  0.00  0.00    +0.000 A 
ATOM     15  C   UNL     1       4.873   4.399  15.437  0.00  0.00    +0.000 A 
ATOM     16  C   UNL     1       5.841   5.056  16.207  0.00  0.00    +0.000 A 
ATOM     17  C   UNL     1       7.124   5.236  15.679  0.00  0.00    +0.000 A 
ATOM     18  C   UNL     1       7.439   4.804  14.383  0.00  0.00    +0.000 A 
BRANCH  13  20
ATOM     19  C   UNL     1       5.633   2.829  11.849  0.00  0.00    +0.000 C 
ATOM     20  O   UNL     1       6.673   3.657  12.358  0.00  0.00    +0.000 OA
ENDBRANCH  13  20
ENDBRANCH  10  16
ENDBRANCH   1  10
BRANCH   2  21
ATOM     21  C   UNL     1       2.758   7.010  18.178  0.00  0.00    +0.000 C 
BRANCH  21  22
ATOM     22  C   UNL     1       1.501   7.658  18.751  0.00  0.00    +0.000 C 
BRANCH  22  23
ATOM     23  N   UNL     1       1.810   9.035  19.199  0.00  0.00    +0.000 NA
ATOM     24  C   UNL     1       1.250   9.356  20.532  0.00  0.00    +0.000 C 
ATOM     25  C   UNL     1      -0.282   9.349  20.524  0.00  0.00    +0.000 C 
ATOM     26  O   UNL     1      -0.769  10.348  19.621  0.00  0.00    +0.000 OA
ATOM     27  C   UNL     1      -0.263  10.153  18.289  0.00  0.00    +0.000 C 
ATOM     28  C   UNL     1       1.274  10.028  18.245  0.00  0.00    +0.000 C 
ENDBRANCH  22  23
ENDBRANCH  21  22
ENDBRANCH   2  21
TORSDOF 6
ENDMDL
MODEL 3
REMARK VINA RESULT:      -7.6      2.310      7.531
REMARK  Name = 
REMARK  7 active torsions:
REMARK  status: ('A' for Active; 'I' for Inactive)
REMARK    1  A    between atoms: C_1  and  O_2
REMARK    2  A    between atoms: O_2  and  C_3
REMARK    3  A    between atoms: C_6  and  S_7
REMARK    4  A    between atoms: S_7  and  N_10
REMARK    5  A    between atoms: C_11  and  C_12
REMARK    6  A    between atoms: C_12  and  C_13
REMARK    7  A    between atoms: C_13  and  N_14
REMARK                            x       y       z     vdW  Elec       q    Type
REMARK                         _______ _______ _______ _____ _____    ______ ____
ROOT
ATOM      1  N   UNL     1       2.264   6.014  18.903  0.00  0.00    +0.000 N 
ATOM      2  C   UNL     1       2.564   5.141  17.888  0.00  0.00    +0.000 A 
ATOM      3  N   UNL     1       1.590   4.263  17.793  0.00  0.00    +0.000 NA
ATOM      4  C   UNL     1       1.246   4.110  19.112  0.00  0.00    +0.000 A 
ATOM      5  C   UNL     1       0.804   2.908  19.682  0.00  0.00    +0.000 A 
ATOM      6  C   UNL     1       1.349   2.595  20.929  0.00  0.00    +0.000 A 
ATOM      7  C   UNL     1       2.131   3.531  21.616  0.00  0.00    +0.000 A 
ATOM      8  C   UNL     1       2.298   4.853  21.168  0.00  0.00    +0.000 A 
ATOM      9  C   UNL     1       1.802   5.157  19.890  0.00  0.00    +0.000 A 
ENDROOT
BRANCH   1  10
ATOM     10  S   UNL     1       2.116   7.628  18.483  0.00  0.00    +0.000 S 
ATOM     11  O   UNL     1       1.004   7.675  17.544  0.00  0.00    +0.000 OA
ATOM     12  O   UNL     1       3.453   8.016  18.072  0.00  0.00    +0.000 OA
BRANCH  10  16
ATOM     13  C   UNL     1       0.379  10.090  21.905  0.00  0.00    +0.000 A 
ATOM     14  C   UNL     1       1.040   8.882  22.154  0.00  0.00    +0.000 A 
ATOM     15  C   UNL     1       1.702   8.188  21.132  0.00  0.00    +0.000 A 
ATOM     16  C   UNL     1       1.714   8.714  19.835  0.00  0.00    +0.000 A 
ATOM     17  C   UNL     1       1.031   9.908  19.579  0.00  0.00    +0.000 A 
ATOM     18  C   UNL     1       0.372  10.599  20.606  0.00  0.00    +0.000 A 
BRANCH  13  20
ATOM     19  C   UNL     1      -1.149  11.719  22.674  0.00  0.00    +0.000 C 
ATOM     20  O   UNL     1      -0.274  10.636  22.969  0.00  0.00    +0.000 OA
ENDBRANCH  13  20
ENDBRANCH  10  16
ENDBRANCH   1  10
BRANCH   2  21
ATOM     21  C   UNL     1       4.033   4.927  17.736  0.00  0.00    +0.000 C 
BRANCH  21  22
ATOM     22  C   UNL     1       4.473   4.536  16.329  0.00  0.00    +0.000 C 
BRANCH  22  23
ATOM     23  N   UNL     1       5.795   3.871  16.386  0.00  0.00    +0.000 NA
ATOM     24  C   UNL     1       6.781   4.602  17.216  0.00  0.00    +0.000 C 
ATOM     25  C   UNL     1       7.127   5.969  16.619  0.00  0.00    +0.000 C 
ATOM     26  O   UNL     1       7.720   5.801  15.327  0.00  0.00    +0.000 OA
ATOM     27  C   UNL     1       6.857   5.073  14.436  0.00  0.00    +0.000 C 
ATOM     28  C   UNL     1       6.372   3.736  15.034  0.00  0.00    +0.000 C 
ENDBRANCH  22  23
ENDBRANCH  21  22
ENDBRANCH   2  21
TORSDOF 6
ENDMDL
MODEL 4
REMARK VINA RESULT:      -7.5      2.401      7.472
REMARK  Name = 
REMARK  7 active torsions:
REMARK  status: ('A' for Active; 'I' for Inactive)
REMARK    1  A    between atoms: C_1  and  O_2
REMARK    2  A    between atoms: O_2  and  C_3
REMARK    3  A    between atoms: C_6  and  S_7
REMARK    4  A    between atoms: S_7  and  N_10
REMARK    5  A    between atoms: C_11  and  C_12
REMARK    6  A    between atoms: C_12  and  C_13
REMARK    7  A    between atoms: C_13  and  N_14
REMARK                            x       y       z     vdW  Elec       q    Type
REMARK                         _______ _______ _______ _____ _____    ______ ____
ROOT
ATOM      1  N   UNL     1       2.307   6.191  18.810  0.00  0.00    +0.000 N 
ATOM      2  C   UNL     1       3.366   5.580  18.187  0.00  0.00    +0.000 A 
ATOM      3  N   UNL     1       2.905   4.575  17.474  0.00  0.00    +0.000 NA
ATOM      4  C   UNL     1       1.885   4.131  18.277  0.00  0.00    +0.000 A 
ATOM      5  C   UNL     1       1.506   2.787  18.407  0.00  0.00    +0.000 A 
ATOM      6  C   UNL     1       1.243   2.357  19.709  0.00  0.00    +0.000 A 
ATOM      7  C   UNL     1       1.185   3.278  20.761  0.00  0.00    +0.000 A 
ATOM      8  C   UNL     1       1.252   4.668  20.557  0.00  0.00    +0.000 A 
ATOM      9  C   UNL     1       1.575   5.103  19.261  0.00  0.00    +0.000 A 
ENDROOT
BRANCH   1  10
ATOM     10  S   UNL     1       2.047   7.802  18.437  0.00  0.00    +0.000 S 
ATOM     11  O   UNL     1       0.991   7.793  17.434  0.00  0.00    +0.000 OA
ATOM     12  O   UNL     1       3.367   8.316  18.123  0.00  0.00    +0.000 OA
BRANCH  10  16
ATOM     13  C   UNL     1      -0.058   9.909  21.889  0.00  0.00    +0.000 A 
ATOM     14  C   UNL     1       0.809   8.837  22.125  0.00  0.00    +0.000 A 
ATOM     15  C   UNL     1       1.571   8.273  21.094  0.00  0.00    +0.000 A 
ATOM     16  C   UNL     1       1.474   8.797  19.799  0.00  0.00    +0.000 A 
ATOM     17  C   UNL     1       0.587   9.851  19.555  0.00  0.00    +0.000 A 
ATOM     18  C   UNL     1      -0.171  10.412  20.592  0.00  0.00    +0.000 A 
BRANCH  13  20
ATOM     19  C   UNL     1      -1.271  11.665  22.903  0.00  0.00    +0.000 C 
ATOM     20  O   UNL     1      -0.785  10.329  22.963  0.00  0.00    +0.000 OA
ENDBRANCH  13  20
ENDBRANCH  10  16
ENDBRANCH   1  10
BRANCH   2  21
ATOM     21  C   UNL     1       4.622   5.659  18.988  0.00  0.00    +0.000 C 
BRANCH  21  22
ATOM     22  C   UNL     1       5.610   4.526  18.729  0.00  0.00    +0.000 C 
BRANCH  22  23
ATOM     23  N   UNL     1       6.988   5.067  18.687  0.00  0.00    +0.000 NA
ATOM     24  C   UNL     1       7.040   6.514  18.374  0.00  0.00    +0.000 C 
ATOM     25  C   UNL     1       6.528   6.810  16.961  0.00  0.00    +0.000 C 
ATOM     26  O   UNL     1       7.353   6.150  15.995  0.00  0.00    +0.000 OA
ATOM     27  C   UNL     1       7.402   4.730  16.219  0.00  0.00    +0.000 C 
ATOM     28  C   UNL     1       7.794   4.366  17.667  0.00  0.00    +0.000 C 
ENDBRANCH  22  23
ENDBRANCH  21  22
ENDBRANCH   2  21
TORSDOF 6
ENDMDL
MODEL 5
REMARK VINA RESULT:      -7.4      2.205      7.542
REMARK  Name = 
REMARK  7 active torsions:
REMARK  status: ('A' for Active; 'I' for Inactive)
REMARK    1  A    between atoms: C_1  and  O_2
REMARK    2  A    between atoms: O_2  and  C_3
REMARK    3  A    between atoms: C_6  and  S_7
REMARK    4  A    between atoms: S_7  and  N_10
REMARK    5  A    between atoms: C_11  and  C_12
REMARK    6  A    between atoms: C_12  and  C_13
REMARK    7  A    between atoms: C_13  and  N_14
REMARK                            x       y       z     vdW  Elec       q    Type
REMARK                         _______ _______ _______ _____ _____    ______ ____
ROOT
ATOM      1  N   UNL     1       2.293   5.935  19.023  0.00  0.00    +0.000 N 
ATOM      2  C   UNL     1       2.584   5.095  17.978  0.00  0.00    +0.000 A 
ATOM      3  N   UNL     1       1.601   4.230  17.854  0.00  0.00    +0.000 NA
ATOM      4  C   UNL     1       1.258   4.034  19.168  0.00  0.00    +0.000 A 
ATOM      5  C   UNL     1       0.806   2.816  19.696  0.00  0.00    +0.000 A 
ATOM      6  C   UNL     1       1.351   2.455  20.930  0.00  0.00    +0.000 A 
ATOM      7  C   UNL     1       2.142   3.358  21.648  0.00  0.00    +0.000 A 
ATOM      8  C   UNL     1       2.321   4.694  21.247  0.00  0.00    +0.000 A 
ATOM      9  C   UNL     1       1.826   5.047  19.981  0.00  0.00    +0.000 A 
ENDROOT
BRANCH   1  10
ATOM     10  S   UNL     1       2.160   7.564  18.661  0.00  0.00    +0.000 S 
ATOM     11  O   UNL     1       1.436   7.613  17.399  0.00  0.00    +0.000 OA
ATOM     12  O   UNL     1       3.518   8.066  18.759  0.00  0.00    +0.000 OA
BRANCH  10  16
ATOM     13  C   UNL     1       0.415  10.437  21.741  0.00  0.00    +0.000 A 
ATOM     14  C   UNL     1       0.232  10.656  20.371  0.00  0.00    +0.000 A 
ATOM     15  C   UNL     1       0.637   9.711  19.420  0.00  0.00    +0.000 A 
ATOM     16  C   UNL     1       1.229   8.515  19.843  0.00  0.00    +0.000 A 
ATOM     17  C   UNL     1       1.437   8.306  21.211  0.00  0.00    +0.000 A 
ATOM     18  C   UNL     1       1.027   9.255  22.158  0.00  0.00    +0.000 A 
BRANCH  13  20
ATOM     19  C   UNL     1      -0.348  12.667  21.910  0.00  0.00    +0.000 C 
ATOM     20  O   UNL     1       0.031  11.457  22.558  0.00  0.00    +0.000 OA
ENDBRANCH  13  20
ENDBRANCH  10  16
ENDBRANCH   1  10
BRANCH   2  21
ATOM     21  C   UNL     1       4.050   4.873  17.815  0.00  0.00    +0.000 C 
BRANCH  21  22
ATOM     22  C   UNL     1       4.502   4.664  16.373  0.00  0.00    +0.000 C 
BRANCH  22  23
ATOM     23  N   UNL     1       5.774   3.906  16.354  0.00  0.00    +0.000 NA
ATOM     24  C   UNL     1       6.869   4.583  17.089  0.00  0.00    +0.000 C 
ATOM     25  C   UNL     1       7.265   5.906  16.429  0.00  0.00    +0.000 C 
ATOM     26  O   UNL     1       7.747   5.665  15.103  0.00  0.00    +0.000 OA
ATOM     27  C   UNL     1       6.771   4.981  14.298  0.00  0.00    +0.000 C 
ATOM     28  C   UNL     1       6.238   3.697  14.968  0.00  0.00    +0.000 C 
ENDBRANCH  22  23
ENDBRANCH  21  22
ENDBRANCH   2  21
TORSDOF 6
ENDMDL
MODEL 6
REMARK VINA RESULT:      -7.4      2.043      7.297
REMARK  Name = 
REMARK  7 active torsions:
REMARK  status: ('A' for Active; 'I' for Inactive)
REMARK    1  A    between atoms: C_1  and  O_2
REMARK    2  A    between atoms: O_2  and  C_3
REMARK    3  A    between atoms: C_6  and  S_7
REMARK    4  A    between atoms: S_7  and  N_10
REMARK    5  A    between atoms: C_11  and  C_12
REMARK    6  A    between atoms: C_12  and  C_13
REMARK    7  A    between atoms: C_13  and  N_14
REMARK                            x       y       z     vdW  Elec       q    Type
REMARK                         _______ _______ _______ _____ _____    ______ ____
ROOT
ATOM      1  N   UNL     1       2.543   5.668  18.894  0.00  0.00    +0.000 N 
ATOM      2  C   UNL     1       2.862   4.696  17.981  0.00  0.00    +0.000 A 
ATOM      3  N   UNL     1       1.843   3.872  17.877  0.00  0.00    +0.000 NA
ATOM      4  C   UNL     1       1.389   3.853  19.171  0.00  0.00    +0.000 A 
ATOM      5  C   UNL     1       0.826   2.731  19.798  0.00  0.00    +0.000 A 
ATOM      6  C   UNL     1       1.253   2.493  21.106  0.00  0.00    +0.000 A 
ATOM      7  C   UNL     1       2.039   3.436  21.778  0.00  0.00    +0.000 A 
ATOM      8  C   UNL     1       2.327   4.704  21.241  0.00  0.00    +0.000 A 
ATOM      9  C   UNL     1       1.952   4.926  19.906  0.00  0.00    +0.000 A 
ENDROOT
BRANCH   1  10
ATOM     10  S   UNL     1       2.535   7.247  18.336  0.00  0.00    +0.000 S 
ATOM     11  O   UNL     1       1.691   7.225  17.150  0.00  0.00    +0.000 OA
ATOM     12  O   UNL     1       3.939   7.602  18.244  0.00  0.00    +0.000 OA
BRANCH  10  16
ATOM     13  C   UNL     1       0.055   9.940  21.054  0.00  0.00    +0.000 A 
ATOM     14  C   UNL     1       0.647   8.772  21.548  0.00  0.00    +0.000 A 
ATOM     15  C   UNL     1       1.526   8.012  20.766  0.00  0.00    +0.000 A 
ATOM     16  C   UNL     1       1.831   8.431  19.465  0.00  0.00    +0.000 A 
ATOM     17  C   UNL     1       1.219   9.583  18.959  0.00  0.00    +0.000 A 
ATOM     18  C   UNL     1       0.341  10.340  19.748  0.00  0.00    +0.000 A 
BRANCH  13  20
ATOM     19  C   UNL     1      -0.789  10.137  23.251  0.00  0.00    +0.000 C 
ATOM     20  O   UNL     1      -0.826  10.556  21.892  0.00  0.00    +0.000 OA
ENDBRANCH  13  20
ENDBRANCH  10  16
ENDBRANCH   1  10
BRANCH   2  21
ATOM     21  C   UNL     1       4.321   4.383  17.967  0.00  0.00    +0.000 C 
BRANCH  21  22
ATOM     22  C   UNL     1       4.846   3.871  16.629  0.00  0.00    +0.000 C 
BRANCH  22  23
ATOM     23  N   UNL     1       4.883   4.982  15.650  0.00  0.00    +0.000 NA
ATOM     24  C   UNL     1       5.452   4.587  14.340  0.00  0.00    +0.000 C 
ATOM     25  C   UNL     1       6.928   4.198  14.452  0.00  0.00    +0.000 C 
ATOM     26  O   UNL     1       7.693   5.318  14.913  0.00  0.00    +0.000 OA
ATOM     27  C   UNL     1       7.210   5.809  16.175  0.00  0.00    +0.000 C 
ATOM     28  C   UNL     1       5.696   6.104  16.162  0.00  0.00    +0.000 C 
ENDBRANCH  22  23
ENDBRANCH  21  22
ENDBRANCH   2  21
TORSDOF 6
ENDMDL
MODEL 7
REMARK VINA RESULT:      -7.4      0.690      1.256
REMARK  Name = 
REMARK  7 active torsions:
REMARK  status: ('A' for Active; 'I' for Inactive)
REMARK    1  A    between atoms: C_1  and  O_2
REMARK    2  A    between atoms: O_2  and  C_3
REMARK    3  A    between atoms: C_6  and  S_7
REMARK    4  A    between atoms: S_7  and  N_10
REMARK    5  A    between atoms: C_11  and  C_12
REMARK    6  A    between atoms: C_12  and  C_13
REMARK    7  A    between atoms: C_13  and  N_14
REMARK                            x       y       z     vdW  Elec       q    Type
REMARK                         _______ _______ _______ _____ _____    ______ ____
ROOT
ATOM      1  N   UNL     1       3.771   4.945  18.774  0.00  0.00    +0.000 N 
ATOM      2  C   UNL     1       3.208   5.908  19.573  0.00  0.00    +0.000 A 
ATOM      3  N   UNL     1       2.857   5.351  20.710  0.00  0.00    +0.000 NA
ATOM      4  C   UNL     1       2.454   4.111  20.282  0.00  0.00    +0.000 A 
ATOM      5  C   UNL     1       1.408   3.374  20.857  0.00  0.00    +0.000 A 
ATOM      6  C   UNL     1       0.540   2.754  19.955  0.00  0.00    +0.000 A 
ATOM      7  C   UNL     1       0.835   2.733  18.588  0.00  0.00    +0.000 A 
ATOM      8  C   UNL     1       2.055   3.202  18.068  0.00  0.00    +0.000 A 
ATOM      9  C   UNL     1       2.904   3.878  18.958  0.00  0.00    +0.000 A 
ENDROOT
BRANCH   1  10
ATOM     10  S   UNL     1       5.358   5.197  18.303  0.00  0.00    +0.000 S 
ATOM     11  O   UNL     1       6.116   4.130  18.940  0.00  0.00    +0.000 OA
ATOM     12  O   UNL     1       5.612   6.588  18.628  0.00  0.00    +0.000 OA
BRANCH  10  16
ATOM     13  C   UNL     1       6.438   4.210  13.984  0.00  0.00    +0.000 A 
ATOM     14  C   UNL     1       5.202   3.829  14.520  0.00  0.00    +0.000 A 
ATOM     15  C   UNL     1       4.799   4.248  15.794  0.00  0.00    +0.000 A 
ATOM     16  C   UNL     1       5.641   5.073  16.549  0.00  0.00    +0.000 A 
ATOM     17  C   UNL     1       6.888   5.433  16.027  0.00  0.00    +0.000 A 
ATOM     18  C   UNL     1       7.285   5.012  14.749  0.00  0.00    +0.000 A 
BRANCH  13  20
ATOM     19  C   UNL     1       5.636   3.189  12.011  0.00  0.00    +0.000 C 
ATOM     20  O   UNL     1       6.737   3.690  12.761  0.00  0.00    +0.000 OA
ENDBRANCH  13  20
ENDBRANCH  10  16
ENDBRANCH   1  10
BRANCH   2  21
ATOM     21  C   UNL     1       2.494   6.956  18.786  0.00  0.00    +0.000 C 
BRANCH  21  22
ATOM     22  C   UNL     1       2.068   8.176  19.597  0.00  0.00    +0.000 C 
BRANCH  22  23
ATOM     23  N   UNL     1       0.916   8.834  18.939  0.00  0.00    +0.000 NA
ATOM     24  C   UNL     1       1.305   9.668  17.778  0.00  0.00    +0.000 C 
ATOM     25  C   UNL     1       2.170  10.860  18.196  0.00  0.00    +0.000 C 
ATOM     26  O   UNL     1       1.435  11.709  19.085  0.00  0.00    +0.000 OA
ATOM     27  C   UNL     1       0.979  10.994  20.246  0.00  0.00    +0.000 C 
ATOM     28  C   UNL     1       0.201   9.710  19.890  0.00  0.00    +0.000 C 
ENDBRANCH  22  23
ENDBRANCH  21  22
ENDBRANCH   2  21
TORSDOF 6
ENDMDL
MODEL 8
REMARK VINA RESULT:      -7.3      2.340      7.186
REMARK  Name = 
REMARK  7 active torsions:
REMARK  status: ('A' for Active; 'I' for Inactive)
REMARK    1  A    between atoms: C_1  and  O_2
REMARK    2  A    between atoms: O_2  and  C_3
REMARK    3  A    between atoms: C_6  and  S_7
REMARK    4  A    between atoms: S_7  and  N_10
REMARK    5  A    between atoms: C_11  and  C_12
REMARK    6  A    between atoms: C_12  and  C_13
REMARK    7  A    between atoms: C_13  and  N_14
REMARK                            x       y       z     vdW  Elec       q    Type
REMARK                         _______ _______ _______ _____ _____    ______ ____
ROOT
ATOM      1  N   UNL     1       2.451   5.718  18.806  0.00  0.00    +0.000 N 
ATOM      2  C   UNL     1       2.623   4.785  17.813  0.00  0.00    +0.000 A 
ATOM      3  N   UNL     1       1.570   3.999  17.795  0.00  0.00    +0.000 NA
ATOM      4  C   UNL     1       1.275   3.925  19.133  0.00  0.00    +0.000 A 
ATOM      5  C   UNL     1       0.752   2.789  19.768  0.00  0.00    +0.000 A 
ATOM      6  C   UNL     1       1.325   2.470  21.001  0.00  0.00    +0.000 A 
ATOM      7  C   UNL     1       2.219   3.353  21.617  0.00  0.00    +0.000 A 
ATOM      8  C   UNL     1       2.485   4.638  21.111  0.00  0.00    +0.000 A 
ATOM      9  C   UNL     1       1.960   4.941  19.844  0.00  0.00    +0.000 A 
ENDROOT
BRANCH   1  10
ATOM     10  S   UNL     1       2.432   7.322  18.330  0.00  0.00    +0.000 S 
ATOM     11  O   UNL     1       1.546   7.364  17.175  0.00  0.00    +0.000 OA
ATOM     12  O   UNL     1       3.833   7.677  18.206  0.00  0.00    +0.000 OA
BRANCH  10  16
ATOM     13  C   UNL     1       0.075   9.840  21.313  0.00  0.00    +0.000 A 
ATOM     14  C   UNL     1       0.763   8.694  21.727  0.00  0.00    +0.000 A 
ATOM     15  C   UNL     1       1.605   7.993  20.854  0.00  0.00    +0.000 A 
ATOM     16  C   UNL     1       1.774   8.449  19.542  0.00  0.00    +0.000 A 
ATOM     17  C   UNL     1       1.066   9.579  19.118  0.00  0.00    +0.000 A 
ATOM     18  C   UNL     1       0.226  10.277  19.997  0.00  0.00    +0.000 A 
BRANCH  13  20
ATOM     19  C   UNL     1      -0.686  11.812  22.368  0.00  0.00    +0.000 C 
ATOM     20  O   UNL     1      -0.756  10.396  22.238  0.00  0.00    +0.000 OA
ENDBRANCH  13  20
ENDBRANCH  10  16
ENDBRANCH   1  10
BRANCH   2  21
ATOM     21  C   UNL     1       4.058   4.431  17.607  0.00  0.00    +0.000 C 
BRANCH  21  22
ATOM     22  C   UNL     1       5.016   5.060  18.613  0.00  0.00    +0.000 C 
BRANCH  22  23
ATOM     23  N   UNL     1       6.394   4.583  18.354  0.00  0.00    +0.000 NA
ATOM     24  C   UNL     1       7.436   5.548  18.777  0.00  0.00    +0.000 C 
ATOM     25  C   UNL     1       7.378   6.843  17.962  0.00  0.00    +0.000 C 
ATOM     26  O   UNL     1       7.616   6.560  16.579  0.00  0.00    +0.000 OA
ATOM     27  C   UNL     1       6.673   5.604  16.062  0.00  0.00    +0.000 C 
ATOM     28  C   UNL     1       6.595   4.321  16.914  0.00  0.00    +0.000 C 
ENDBRANCH  22  23
ENDBRANCH  21  22
ENDBRANCH   2  21
TORSDOF 6
ENDMDL
MODEL 9
REMARK VINA RESULT:      -7.3      2.272      7.371
REMARK  Name = 
REMARK  7 active torsions:
REMARK  status: ('A' for Active; 'I' for Inactive)
REMARK    1  A    between atoms: C_1  and  O_2
REMARK    2  A    between atoms: O_2  and  C_3
REMARK    3  A    between atoms: C_6  and  S_7
REMARK    4  A    between atoms: S_7  and  N_10
REMARK    5  A    between atoms: C_11  and  C_12
REMARK    6  A    between atoms: C_12  and  C_13
REMARK    7  A    between atoms: C_13  and  N_14
REMARK                            x       y       z     vdW  Elec       q    Type
REMARK                         _______ _______ _______ _____ _____    ______ ____
ROOT
ATOM      1  N   UNL     1       2.329   5.905  19.015  0.00  0.00    +0.000 N 
ATOM      2  C   UNL     1       2.656   5.069  17.977  0.00  0.00    +0.000 A 
ATOM      3  N   UNL     1       1.685   4.196  17.826  0.00  0.00    +0.000 NA
ATOM      4  C   UNL     1       1.307   3.995  19.129  0.00  0.00    +0.000 A 
ATOM      5  C   UNL     1       0.851   2.773  19.644  0.00  0.00    +0.000 A 
ATOM      6  C   UNL     1       1.365   2.415  20.892  0.00  0.00    +0.000 A 
ATOM      7  C   UNL     1       2.128   3.325  21.632  0.00  0.00    +0.000 A 
ATOM      8  C   UNL     1       2.306   4.663  21.237  0.00  0.00    +0.000 A 
ATOM      9  C   UNL     1       1.843   5.013  19.958  0.00  0.00    +0.000 A 
ENDROOT
BRANCH   1  10
ATOM     10  S   UNL     1       2.191   7.534  18.650  0.00  0.00    +0.000 S 
ATOM     11  O   UNL     1       1.479   7.579  17.381  0.00  0.00    +0.000 OA
ATOM     12  O   UNL     1       3.546   8.042  18.762  0.00  0.00    +0.000 OA
BRANCH  10  16
ATOM     13  C   UNL     1       0.417  10.367  21.751  0.00  0.00    +0.000 A 
ATOM     14  C   UNL     1       0.308  10.642  20.383  0.00  0.00    +0.000 A 
ATOM     15  C   UNL     1       0.721   9.714  19.417  0.00  0.00    +0.000 A 
ATOM     16  C   UNL     1       1.243   8.480  19.823  0.00  0.00    +0.000 A 
ATOM     17  C   UNL     1       1.378   8.215  21.191  0.00  0.00    +0.000 A 
ATOM     18  C   UNL     1       0.962   9.147  22.152  0.00  0.00    +0.000 A 
BRANCH  13  20
ATOM     19  C   UNL     1      -1.318  11.339  23.027  0.00  0.00    +0.000 C 
ATOM     20  O   UNL     1       0.036  11.373  22.587  0.00  0.00    +0.000 OA
ENDBRANCH  13  20
ENDBRANCH  10  16
ENDBRANCH   1  10
BRANCH   2  21
ATOM     21  C   UNL     1       4.128   4.861  17.855  0.00  0.00    +0.000 C 
BRANCH  21  22
ATOM     22  C   UNL     1       4.564   4.165  16.570  0.00  0.00    +0.000 C 
BRANCH  22  23
ATOM     23  N   UNL     1       4.895   5.178  15.541  0.00  0.00    +0.000 NA
ATOM     24  C   UNL     1       6.038   4.788  14.683  0.00  0.00    +0.000 C 
ATOM     25  C   UNL     1       7.342   4.691  15.480  0.00  0.00    +0.000 C 
ATOM     26  O   UNL     1       7.666   5.967  16.043  0.00  0.00    +0.000 OA
ATOM     27  C   UNL     1       6.607   6.463  16.881  0.00  0.00    +0.000 C 
ATOM     28  C   UNL     1       5.237   6.470  16.171  0.00  0.00    +0.000 C 
ENDBRANCH  22  23
ENDBRANCH  21  22
ENDBRANCH   2  21
TORSDOF 6
ENDMDL
