MODEL 1
REMARK VINA RESULT:      -6.4      0.000      0.000
REMARK  Name = 
REMARK  5 active torsions:
REMARK  status: ('A' for Active; 'I' for Inactive)
REMARK    1  A    between atoms: C_1  and  S_2
REMARK    2  A    between atoms: S_2  and  C_3
REMARK    3  A    between atoms: C_3  and  C_11
REMARK    4  A    between atoms: N_4  and  C_5
REMARK    5  A    between atoms: C_12  and  O_13
REMARK                            x       y       z     vdW  Elec       q    Type
REMARK                         _______ _______ _______ _____ _____    ______ ____
ROOT
ATOM      1  C   UNL     1       4.851   4.430  18.252  0.00  0.00    +0.000 C 
ATOM      2  N   UNL     1       4.224   3.305  18.461  0.00  0.00    +0.000 NA
ENDROOT
BRANCH   2   3
ATOM      3  C   UNL     1       3.188   3.072  19.382  0.00  0.00    +0.000 A 
ATOM      4  C   UNL     1       3.372   2.770  20.734  0.00  0.00    +0.000 A 
ATOM      5  C   UNL     1       2.294   2.577  21.598  0.00  0.00    +0.000 A 
ATOM      6  C   UNL     1       0.998   2.782  21.145  0.00  0.00    +0.000 A 
ATOM      7  C   UNL     1       0.784   3.142  19.817  0.00  0.00    +0.000 A 
ATOM      8  C   UNL     1       1.869   3.271  18.942  0.00  0.00    +0.000 A 
ENDBRANCH   2   3
BRANCH   1   9
ATOM      9  C   UNL     1       5.839   4.503  17.160  0.00  0.00    +0.000 C 
ATOM     10  C   UNL     1       7.169   4.549  17.228  0.00  0.00    +0.000 C 
ATOM     11  O   UNL     1       7.887   4.507  16.033  0.00  0.00    +0.000 OA
ATOM     12  C   UNL     1       6.912   4.294  15.005  0.00  0.00    +0.000 C 
ATOM     13  C   UNL     1       5.616   4.460  15.721  0.00  0.00    +0.000 C 
ATOM     14  O   UNL     1       4.531   4.572  15.172  0.00  0.00    +0.000 OA
BRANCH  10  15
ATOM     15  O   UNL     1       7.913   4.602  18.383  0.00  0.00    +0.000 OA
ATOM     16  H   UNL     1       7.947   3.698  18.762  0.00  0.00    +0.000 HD
ENDBRANCH  10  15
ENDBRANCH   1   9
BRANCH   1  18
ATOM     17  C   UNL     1       3.207   6.685  18.069  0.00  0.00    +0.000 C 
ATOM     18  S   UNL     1       4.586   5.999  19.000  0.00  0.00    +0.000 S 
ENDBRANCH   1  18
TORSDOF 4
ENDMDL
MODEL 2
REMARK VINA RESULT:      -6.4      2.658      5.462
REMARK  Name = 
REMARK  5 active torsions:
REMARK  status: ('A' for Active; 'I' for Inactive)
REMARK    1  A    between atoms: C_1  and  S_2
REMARK    2  A    between atoms: S_2  and  C_3
REMARK    3  A    between atoms: C_3  and  C_11
REMARK    4  A    between atoms: N_4  and  C_5
REMARK    5  A    between atoms: C_12  and  O_13
REMARK                            x       y       z     vdW  Elec       q    Type
REMARK                         _______ _______ _______ _____ _____    ______ ____
ROOT
ATOM      1  C   UNL     1       3.929   4.765  18.548  0.00  0.00    +0.000 C 
ATOM      2  N   UNL     1       5.108   4.661  17.999  0.00  0.00    +0.000 NA
ENDROOT
BRANCH   2   3
ATOM      3  C   UNL     1       6.122   5.636  17.978  0.00  0.00    +0.000 A 
ATOM      4  C   UNL     1       6.142   6.751  17.137  0.00  0.00    +0.000 A 
ATOM      5  C   UNL     1       7.169   7.694  17.190  0.00  0.00    +0.000 A 
ATOM      6  C   UNL     1       8.153   7.592  18.163  0.00  0.00    +0.000 A 
ATOM      7  C   UNL     1       8.128   6.523  19.056  0.00  0.00    +0.000 A 
ATOM      8  C   UNL     1       7.129   5.547  18.953  0.00  0.00    +0.000 A 
ENDBRANCH   2   3
BRANCH   1   9
ATOM      9  C   UNL     1       3.042   3.588  18.560  0.00  0.00    +0.000 C 
ATOM     10  C   UNL     1       3.258   2.375  19.068  0.00  0.00    +0.000 C 
ATOM     11  O   UNL     1       2.207   1.459  19.043  0.00  0.00    +0.000 OA
ATOM     12  C   UNL     1       1.076   2.184  18.542  0.00  0.00    +0.000 C 
ATOM     13  C   UNL     1       1.668   3.474  18.091  0.00  0.00    +0.000 C 
ATOM     14  O   UNL     1       1.088   4.299  17.403  0.00  0.00    +0.000 OA
BRANCH  10  15
ATOM     15  O   UNL     1       4.425   1.945  19.653  0.00  0.00    +0.000 OA
ATOM     16  H   UNL     1       5.135   2.578  19.411  0.00  0.00    +0.000 HD
ENDBRANCH  10  15
ENDBRANCH   1   9
BRANCH   1  18
ATOM     17  C   UNL     1       2.711   7.256  18.183  0.00  0.00    +0.000 C 
ATOM     18  S   UNL     1       3.249   6.106  19.460  0.00  0.00    +0.000 S 
ENDBRANCH   1  18
TORSDOF 4
ENDMDL
MODEL 3
REMARK VINA RESULT:      -6.4      2.798      5.432
REMARK  Name = 
REMARK  5 active torsions:
REMARK  status: ('A' for Active; 'I' for Inactive)
REMARK    1  A    between atoms: C_1  and  S_2
REMARK    2  A    between atoms: S_2  and  C_3
REMARK    3  A    between atoms: C_3  and  C_11
REMARK    4  A    between atoms: N_4  and  C_5
REMARK    5  A    between atoms: C_12  and  O_13
REMARK                            x       y       z     vdW  Elec       q    Type
REMARK                         _______ _______ _______ _____ _____    ______ ____
ROOT
ATOM      1  C   UNL     1       3.634   4.856  18.838  0.00  0.00    +0.000 C 
ATOM      2  N   UNL     1       4.836   4.659  18.375  0.00  0.00    +0.000 NA
ENDROOT
BRANCH   2   3
ATOM      3  C   UNL     1       5.890   5.590  18.328  0.00  0.00    +0.000 A 
ATOM      4  C   UNL     1       7.021   5.559  19.148  0.00  0.00    +0.000 A 
ATOM      5  C   UNL     1       8.042   6.501  19.028  0.00  0.00    +0.000 A 
ATOM      6  C   UNL     1       8.000   7.443  18.009  0.00  0.00    +0.000 A 
ATOM      7  C   UNL     1       6.914   7.462  17.138  0.00  0.00    +0.000 A 
ATOM      8  C   UNL     1       5.863   6.552  17.306  0.00  0.00    +0.000 A 
ENDBRANCH   2   3
BRANCH   1   9
ATOM      9  C   UNL     1       2.699   3.718  18.901  0.00  0.00    +0.000 C 
ATOM     10  C   UNL     1       2.746   2.629  19.669  0.00  0.00    +0.000 C 
ATOM     11  O   UNL     1       1.672   1.742  19.612  0.00  0.00    +0.000 OA
ATOM     12  C   UNL     1       0.700   2.367  18.765  0.00  0.00    +0.000 C 
ATOM     13  C   UNL     1       1.437   3.531  18.198  0.00  0.00    +0.000 C 
ATOM     14  O   UNL     1       1.046   4.209  17.261  0.00  0.00    +0.000 OA
BRANCH  10  15
ATOM     15  O   UNL     1       3.754   2.309  20.548  0.00  0.00    +0.000 OA
ATOM     16  H   UNL     1       3.844   1.332  20.561  0.00  0.00    +0.000 HD
ENDBRANCH  10  15
ENDBRANCH   1   9
BRANCH   1  18
ATOM     17  C   UNL     1       2.471   7.311  18.174  0.00  0.00    +0.000 C 
ATOM     18  S   UNL     1       2.958   6.300  19.581  0.00  0.00    +0.000 S 
ENDBRANCH   1  18
TORSDOF 4
ENDMDL
MODEL 4
REMARK VINA RESULT:      -6.3      0.211      1.179
REMARK  Name = 
REMARK  5 active torsions:
REMARK  status: ('A' for Active; 'I' for Inactive)
REMARK    1  A    between atoms: C_1  and  S_2
REMARK    2  A    between atoms: S_2  and  C_3
REMARK    3  A    between atoms: C_3  and  C_11
REMARK    4  A    between atoms: N_4  and  C_5
REMARK    5  A    between atoms: C_12  and  O_13
REMARK                            x       y       z     vdW  Elec       q    Type
REMARK                         _______ _______ _______ _____ _____    ______ ____
ROOT
ATOM      1  C   UNL     1       4.842   4.529  18.206  0.00  0.00    +0.000 C 
ATOM      2  N   UNL     1       4.177   3.431  18.434  0.00  0.00    +0.000 NA
ENDROOT
BRANCH   2   3
ATOM      3  C   UNL     1       3.122   3.254  19.347  0.00  0.00    +0.000 A 
ATOM      4  C   UNL     1       1.764   3.339  19.028  0.00  0.00    +0.000 A 
ATOM      5  C   UNL     1       0.769   3.124  19.981  0.00  0.00    +0.000 A 
ATOM      6  C   UNL     1       1.114   2.718  21.263  0.00  0.00    +0.000 A 
ATOM      7  C   UNL     1       2.457   2.566  21.596  0.00  0.00    +0.000 A 
ATOM      8  C   UNL     1       3.451   2.846  20.650  0.00  0.00    +0.000 A 
ENDBRANCH   2   3
BRANCH   1   9
ATOM      9  C   UNL     1       5.845   4.542  17.125  0.00  0.00    +0.000 C 
ATOM     10  C   UNL     1       7.176   4.549  17.210  0.00  0.00    +0.000 C 
ATOM     11  O   UNL     1       7.907   4.453  16.027  0.00  0.00    +0.000 OA
ATOM     12  C   UNL     1       6.938   4.244  14.991  0.00  0.00    +0.000 C 
ATOM     13  C   UNL     1       5.639   4.469  15.685  0.00  0.00    +0.000 C 
ATOM     14  O   UNL     1       4.565   4.601  15.120  0.00  0.00    +0.000 OA
BRANCH  10  15
ATOM     15  O   UNL     1       7.906   4.608  18.373  0.00  0.00    +0.000 OA
ATOM     16  H   UNL     1       8.854   4.692  18.130  0.00  0.00    +0.000 HD
ENDBRANCH  10  15
ENDBRANCH   1   9
BRANCH   1  18
ATOM     17  C   UNL     1       3.695   7.018  17.654  0.00  0.00    +0.000 C 
ATOM     18  S   UNL     1       4.620   6.124  18.912  0.00  0.00    +0.000 S 
ENDBRANCH   1  18
TORSDOF 4
ENDMDL
MODEL 5
REMARK VINA RESULT:      -6.2      1.939      2.906
REMARK  Name = 
REMARK  5 active torsions:
REMARK  status: ('A' for Active; 'I' for Inactive)
REMARK    1  A    between atoms: C_1  and  S_2
REMARK    2  A    between atoms: S_2  and  C_3
REMARK    3  A    between atoms: C_3  and  C_11
REMARK    4  A    between atoms: N_4  and  C_5
REMARK    5  A    between atoms: C_12  and  O_13
REMARK                            x       y       z     vdW  Elec       q    Type
REMARK                         _______ _______ _______ _____ _____    ______ ____
ROOT
ATOM      1  C   UNL     1       4.827   5.106  18.190  0.00  0.00    +0.000 C 
ATOM      2  N   UNL     1       4.294   5.152  19.380  0.00  0.00    +0.000 NA
ENDROOT
BRANCH   2   3
ATOM      3  C   UNL     1       3.244   4.354  19.869  0.00  0.00    +0.000 A 
ATOM      4  C   UNL     1       3.400   3.093  20.449  0.00  0.00    +0.000 A 
ATOM      5  C   UNL     1       2.314   2.368  20.939  0.00  0.00    +0.000 A 
ATOM      6  C   UNL     1       1.049   2.939  20.948  0.00  0.00    +0.000 A 
ATOM      7  C   UNL     1       0.869   4.219  20.431  0.00  0.00    +0.000 A 
ATOM      8  C   UNL     1       1.956   4.913  19.884  0.00  0.00    +0.000 A 
ENDBRANCH   2   3
BRANCH   1   9
ATOM      9  C   UNL     1       5.999   5.953  17.902  0.00  0.00    +0.000 C 
ATOM     10  C   UNL     1       6.161   6.872  16.951  0.00  0.00    +0.000 C 
ATOM     11  O   UNL     1       7.339   7.618  16.955  0.00  0.00    +0.000 OA
ATOM     12  C   UNL     1       8.038   7.226  18.144  0.00  0.00    +0.000 C 
ATOM     13  C   UNL     1       7.253   6.059  18.634  0.00  0.00    +0.000 C 
ATOM     14  O   UNL     1       7.627   5.290  19.506  0.00  0.00    +0.000 OA
BRANCH  10  15
ATOM     15  O   UNL     1       5.248   7.183  15.970  0.00  0.00    +0.000 OA
ATOM     16  H   UNL     1       4.389   7.372  16.406  0.00  0.00    +0.000 HD
ENDBRANCH  10  15
ENDBRANCH   1   9
BRANCH   1  18
ATOM     17  C   UNL     1       6.052   3.742  16.079  0.00  0.00    +0.000 C 
ATOM     18  S   UNL     1       4.452   4.030  16.851  0.00  0.00    +0.000 S 
ENDBRANCH   1  18
TORSDOF 4
ENDMDL
MODEL 6
REMARK VINA RESULT:      -6.2      2.932      5.723
REMARK  Name = 
REMARK  5 active torsions:
REMARK  status: ('A' for Active; 'I' for Inactive)
REMARK    1  A    between atoms: C_1  and  S_2
REMARK    2  A    between atoms: S_2  and  C_3
REMARK    3  A    between atoms: C_3  and  C_11
REMARK    4  A    between atoms: N_4  and  C_5
REMARK    5  A    between atoms: C_12  and  O_13
REMARK                            x       y       z     vdW  Elec       q    Type
REMARK                         _______ _______ _______ _____ _____    ______ ____
ROOT
ATOM      1  C   UNL     1       3.391   4.961  18.919  0.00  0.00    +0.000 C 
ATOM      2  N   UNL     1       4.577   4.672  18.461  0.00  0.00    +0.000 NA
ENDROOT
BRANCH   2   3
ATOM      3  C   UNL     1       5.689   5.529  18.387  0.00  0.00    +0.000 A 
ATOM      4  C   UNL     1       6.830   5.430  19.187  0.00  0.00    +0.000 A 
ATOM      5  C   UNL     1       7.910   6.300  19.041  0.00  0.00    +0.000 A 
ATOM      6  C   UNL     1       7.912   7.234  18.014  0.00  0.00    +0.000 A 
ATOM      7  C   UNL     1       6.814   7.319  17.161  0.00  0.00    +0.000 A 
ATOM      8  C   UNL     1       5.708   6.483  17.357  0.00  0.00    +0.000 A 
ENDBRANCH   2   3
BRANCH   1   9
ATOM      9  C   UNL     1       2.383   3.890  19.015  0.00  0.00    +0.000 C 
ATOM     10  C   UNL     1       1.363   3.616  18.202  0.00  0.00    +0.000 C 
ATOM     11  O   UNL     1       0.610   2.471  18.459  0.00  0.00    +0.000 OA
ATOM     12  C   UNL     1       1.276   1.807  19.541  0.00  0.00    +0.000 C 
ATOM     13  C   UNL     1       2.292   2.803  19.981  0.00  0.00    +0.000 C 
ATOM     14  O   UNL     1       2.932   2.728  21.018  0.00  0.00    +0.000 OA
BRANCH  10  15
ATOM     15  O   UNL     1       0.997   4.349  17.097  0.00  0.00    +0.000 OA
ATOM     16  H   UNL     1       1.593   5.127  17.041  0.00  0.00    +0.000 HD
ENDBRANCH  10  15
ENDBRANCH   1   9
BRANCH   1  18
ATOM     17  C   UNL     1       2.399   7.471  18.187  0.00  0.00    +0.000 C 
ATOM     18  S   UNL     1       2.814   6.467  19.622  0.00  0.00    +0.000 S 
ENDBRANCH   1  18
TORSDOF 4
ENDMDL
MODEL 7
REMARK VINA RESULT:      -6.1      2.022      3.014
REMARK  Name = 
REMARK  5 active torsions:
REMARK  status: ('A' for Active; 'I' for Inactive)
REMARK    1  A    between atoms: C_1  and  S_2
REMARK    2  A    between atoms: S_2  and  C_3
REMARK    3  A    between atoms: C_3  and  C_11
REMARK    4  A    between atoms: N_4  and  C_5
REMARK    5  A    between atoms: C_12  and  O_13
REMARK                            x       y       z     vdW  Elec       q    Type
REMARK                         _______ _______ _______ _____ _____    ______ ____
ROOT
ATOM      1  C   UNL     1       4.940   5.011  18.469  0.00  0.00    +0.000 C 
ATOM      2  N   UNL     1       4.246   5.301  19.534  0.00  0.00    +0.000 NA
ENDROOT
BRANCH   2   3
ATOM      3  C   UNL     1       3.166   4.575  20.066  0.00  0.00    +0.000 A 
ATOM      4  C   UNL     1       1.819   4.904  19.894  0.00  0.00    +0.000 A 
ATOM      5  C   UNL     1       0.796   4.121  20.428  0.00  0.00    +0.000 A 
ATOM      6  C   UNL     1       1.100   2.926  21.066  0.00  0.00    +0.000 A 
ATOM      7  C   UNL     1       2.431   2.540  21.201  0.00  0.00    +0.000 A 
ATOM      8  C   UNL     1       3.454   3.365  20.717  0.00  0.00    +0.000 A 
ENDBRANCH   2   3
BRANCH   1   9
ATOM      9  C   UNL     1       6.112   5.840  18.133  0.00  0.00    +0.000 C 
ATOM     10  C   UNL     1       6.319   6.617  17.069  0.00  0.00    +0.000 C 
ATOM     11  O   UNL     1       7.479   7.389  17.039  0.00  0.00    +0.000 OA
ATOM     12  C   UNL     1       8.105   7.194  18.314  0.00  0.00    +0.000 C 
ATOM     13  C   UNL     1       7.313   6.088  18.920  0.00  0.00    +0.000 C 
ATOM     14  O   UNL     1       7.642   5.465  19.917  0.00  0.00    +0.000 OA
BRANCH  10  15
ATOM     15  O   UNL     1       5.468   6.755  15.999  0.00  0.00    +0.000 OA
ATOM     16  H   UNL     1       5.730   6.099  15.317  0.00  0.00    +0.000 HD
ENDBRANCH  10  15
ENDBRANCH   1   9
BRANCH   1  18
ATOM     17  C   UNL     1       3.084   3.716  16.826  0.00  0.00    +0.000 C 
ATOM     18  S   UNL     1       4.789   3.627  17.394  0.00  0.00    +0.000 S 
ENDBRANCH   1  18
TORSDOF 4
ENDMDL
MODEL 8
REMARK VINA RESULT:      -6.1      2.359      5.971
REMARK  Name = 
REMARK  5 active torsions:
REMARK  status: ('A' for Active; 'I' for Inactive)
REMARK    1  A    between atoms: C_1  and  S_2
REMARK    2  A    between atoms: S_2  and  C_3
REMARK    3  A    between atoms: C_3  and  C_11
REMARK    4  A    between atoms: N_4  and  C_5
REMARK    5  A    between atoms: C_12  and  O_13
REMARK                            x       y       z     vdW  Elec       q    Type
REMARK                         _______ _______ _______ _____ _____    ______ ____
ROOT
ATOM      1  C   UNL     1       4.704   4.637  16.493  0.00  0.00    +0.000 C 
ATOM      2  N   UNL     1       5.231   3.803  15.641  0.00  0.00    +0.000 NA
ENDROOT
BRANCH   2   3
ATOM      3  C   UNL     1       5.957   4.125  14.479  0.00  0.00    +0.000 A 
ATOM      4  C   UNL     1       7.109   4.914  14.449  0.00  0.00    +0.000 A 
ATOM      5  C   UNL     1       7.794   5.171  13.261  0.00  0.00    +0.000 A 
ATOM      6  C   UNL     1       7.393   4.555  12.083  0.00  0.00    +0.000 A 
ATOM      7  C   UNL     1       6.282   3.715  12.092  0.00  0.00    +0.000 A 
ATOM      8  C   UNL     1       5.564   3.515  13.277  0.00  0.00    +0.000 A 
ENDBRANCH   2   3
BRANCH   1   9
ATOM      9  C   UNL     1       4.073   4.103  17.714  0.00  0.00    +0.000 C 
ATOM     10  C   UNL     1       4.626   3.811  18.891  0.00  0.00    +0.000 C 
ATOM     11  O   UNL     1       3.785   3.414  19.930  0.00  0.00    +0.000 OA
ATOM     12  C   UNL     1       2.452   3.558  19.422  0.00  0.00    +0.000 C 
ATOM     13  C   UNL     1       2.665   3.833  17.973  0.00  0.00    +0.000 C 
ATOM     14  O   UNL     1       1.785   3.808  17.127  0.00  0.00    +0.000 OA
BRANCH  10  15
ATOM     15  O   UNL     1       5.965   3.897  19.193  0.00  0.00    +0.000 OA
ATOM     16  H   UNL     1       6.414   3.119  18.796  0.00  0.00    +0.000 HD
ENDBRANCH  10  15
ENDBRANCH   1   9
BRANCH   1  18
ATOM     17  C   UNL     1       6.297   6.766  17.356  0.00  0.00    +0.000 C 
ATOM     18  S   UNL     1       4.758   6.394  16.501  0.00  0.00    +0.000 S 
ENDBRANCH   1  18
TORSDOF 4
ENDMDL
MODEL 9
REMARK VINA RESULT:      -6.1      2.621      5.627
REMARK  Name = 
REMARK  5 active torsions:
REMARK  status: ('A' for Active; 'I' for Inactive)
REMARK    1  A    between atoms: C_1  and  S_2
REMARK    2  A    between atoms: S_2  and  C_3
REMARK    3  A    between atoms: C_3  and  C_11
REMARK    4  A    between atoms: N_4  and  C_5
REMARK    5  A    between atoms: C_12  and  O_13
REMARK                            x       y       z     vdW  Elec       q    Type
REMARK                         _______ _______ _______ _____ _____    ______ ____
ROOT
ATOM      1  C   UNL     1       3.801   4.162  19.084  0.00  0.00    +0.000 C 
ATOM      2  N   UNL     1       4.476   3.501  18.185  0.00  0.00    +0.000 NA
ENDROOT
BRANCH   2   3
ATOM      3  C   UNL     1       5.288   4.039  17.170  0.00  0.00    +0.000 A 
ATOM      4  C   UNL     1       6.596   4.495  17.349  0.00  0.00    +0.000 A 
ATOM      5  C   UNL     1       7.354   4.992  16.289  0.00  0.00    +0.000 A 
ATOM      6  C   UNL     1       6.848   4.951  14.997  0.00  0.00    +0.000 A 
ATOM      7  C   UNL     1       5.568   4.448  14.777  0.00  0.00    +0.000 A 
ATOM      8  C   UNL     1       4.792   4.010  15.857  0.00  0.00    +0.000 A 
ENDBRANCH   2   3
BRANCH   1   9
ATOM      9  C   UNL     1       3.093   3.411  20.137  0.00  0.00    +0.000 C 
ATOM     10  C   UNL     1       3.570   2.510  20.995  0.00  0.00    +0.000 C 
ATOM     11  O   UNL     1       2.708   2.018  21.974  0.00  0.00    +0.000 OA
ATOM     12  C   UNL     1       1.496   2.770  21.833  0.00  0.00    +0.000 C 
ATOM     13  C   UNL     1       1.705   3.524  20.565  0.00  0.00    +0.000 C 
ATOM     14  O   UNL     1       0.829   4.123  19.963  0.00  0.00    +0.000 OA
BRANCH  10  15
ATOM     15  O   UNL     1       4.861   2.036  21.028  0.00  0.00    +0.000 OA
ATOM     16  H   UNL     1       4.825   1.058  20.960  0.00  0.00    +0.000 HD
ENDBRANCH  10  15
ENDBRANCH   1   9
BRANCH   1  18
ATOM     17  C   UNL     1       2.583   6.465  18.068  0.00  0.00    +0.000 C 
ATOM     18  S   UNL     1       3.715   5.898  19.348  0.00  0.00    +0.000 S 
ENDBRANCH   1  18
TORSDOF 4
ENDMDL
