MODEL 1
REMARK VINA RESULT:      -8.6      0.000      0.000
REMARK  Name = 
REMARK  3 active torsions:
REMARK  status: ('A' for Active; 'I' for Inactive)
REMARK    1  A    between atoms: C_2  and  C_3
REMARK    2  A    between atoms: C_5  and  C_6
REMARK    3  A    between atoms: C_6  and  C_7
REMARK                            x       y       z     vdW  Elec       q    Type
REMARK                         _______ _______ _______ _____ _____    ______ ____
ROOT
ATOM      1  C   UNL     1       2.026   5.935  18.958  0.00  0.00    +0.000 A 
ATOM      2  C   UNL     1       2.080   7.121  18.201  0.00  0.00    +0.000 A 
ATOM      3  C   UNL     1       1.860   8.377  18.794  0.00  0.00    +0.000 A 
ATOM      4  C   UNL     1       1.641   8.437  20.175  0.00  0.00    +0.000 A 
ATOM      5  C   UNL     1       1.559   7.264  20.928  0.00  0.00    +0.000 A 
ATOM      6  C   UNL     1       1.702   6.023  20.309  0.00  0.00    +0.000 A 
ATOM      7  F   UNL     1       1.494   4.926  21.052  0.00  0.00    +0.000 F 
ENDROOT
BRANCH   1   9
ATOM      8  O   UNL     1       1.340   4.421  17.362  0.00  0.00    +0.000 OA
ATOM      9  C   UNL     1       2.180   4.651  18.234  0.00  0.00    +0.000 C 
ATOM     10  N   UNL     1       3.224   3.768  18.500  0.00  0.00    +0.000 N 
ATOM     11  C   UNL     1       4.371   3.954  19.398  0.00  0.00    +0.000 C 
ATOM     12  C   UNL     1       4.558   2.704  20.284  0.00  0.00    +0.000 C 
ATOM     13  N   UNL     1       4.741   1.478  19.482  0.00  0.00    +0.000 NA
ATOM     14  C   UNL     1       3.605   1.311  18.555  0.00  0.00    +0.000 C 
ATOM     15  C   UNL     1       3.338   2.554  17.684  0.00  0.00    +0.000 C 
ATOM     16  H   UNL     1       4.781   0.672  20.104  0.00  0.00    +0.000 HD
ENDBRANCH   1   9
BRANCH   3  17
ATOM     17  C   UNL     1       1.843   9.628  17.942  0.00  0.00    +0.000 C 
BRANCH  17  18
ATOM     18  C   UNL     1       0.955  10.720  18.518  0.00  0.00    +0.000 A 
ATOM     19  N   UNL     1       1.541  11.628  19.244  0.00  0.00    +0.000 NA
ATOM     20  N   UNL     1       0.773  12.579  19.835  0.00  0.00    +0.000 N 
ATOM     21  C   UNL     1      -0.600  12.624  19.830  0.00  0.00    +0.000 A 
ATOM     22  O   UNL     1      -1.233  13.455  20.471  0.00  0.00    +0.000 OA
ATOM     23  C   UNL     1      -1.276  11.634  18.978  0.00  0.00    +0.000 A 
ATOM     24  C   UNL     1      -2.671  11.660  18.847  0.00  0.00    +0.000 A 
ATOM     25  C   UNL     1      -3.304  10.760  17.992  0.00  0.00    +0.000 A 
ATOM     26  C   UNL     1      -2.543   9.848  17.262  0.00  0.00    +0.000 A 
ATOM     27  C   UNL     1      -1.152   9.817  17.401  0.00  0.00    +0.000 A 
ATOM     28  C   UNL     1      -0.512  10.703  18.278  0.00  0.00    +0.000 A 
ATOM     29  H   UNL     1       1.258  13.262  20.408  0.00  0.00    +0.000 HD
ENDBRANCH  17  18
ENDBRANCH   3  17
TORSDOF 3
ENDMDL
MODEL 2
REMARK VINA RESULT:      -8.3      1.986      2.271
REMARK  Name = 
REMARK  3 active torsions:
REMARK  status: ('A' for Active; 'I' for Inactive)
REMARK    1  A    between atoms: C_2  and  C_3
REMARK    2  A    between atoms: C_5  and  C_6
REMARK    3  A    between atoms: C_6  and  C_7
REMARK                            x       y       z     vdW  Elec       q    Type
REMARK                         _______ _______ _______ _____ _____    ______ ____
ROOT
ATOM      1  C   UNL     1       2.806   6.460  18.544  0.00  0.00    +0.000 A 
ATOM      2  C   UNL     1       2.530   7.702  17.940  0.00  0.00    +0.000 A 
ATOM      3  C   UNL     1       1.856   8.721  18.639  0.00  0.00    +0.000 A 
ATOM      4  C   UNL     1       1.511   8.500  19.977  0.00  0.00    +0.000 A 
ATOM      5  C   UNL     1       1.756   7.263  20.574  0.00  0.00    +0.000 A 
ATOM      6  C   UNL     1       2.355   6.238  19.843  0.00  0.00    +0.000 A 
ATOM      7  F   UNL     1       2.458   5.034  20.422  0.00  0.00    +0.000 F 
ENDROOT
BRANCH   1   9
ATOM      8  O   UNL     1       2.837   4.341  17.641  0.00  0.00    +0.000 OA
ATOM      9  C   UNL     1       3.438   5.415  17.706  0.00  0.00    +0.000 C 
ATOM     10  N   UNL     1       4.624   5.636  17.009  0.00  0.00    +0.000 N 
ATOM     11  C   UNL     1       5.381   6.887  16.871  0.00  0.00    +0.000 C 
ATOM     12  C   UNL     1       6.880   6.631  17.138  0.00  0.00    +0.000 C 
ATOM     13  N   UNL     1       7.436   5.603  16.235  0.00  0.00    +0.000 NA
ATOM     14  C   UNL     1       6.652   4.358  16.349  0.00  0.00    +0.000 C 
ATOM     15  C   UNL     1       5.138   4.567  16.147  0.00  0.00    +0.000 C 
ATOM     16  H   UNL     1       8.402   5.411  16.498  0.00  0.00    +0.000 HD
ENDBRANCH   1   9
BRANCH   3  17
ATOM     17  C   UNL     1       1.501  10.015  17.939  0.00  0.00    +0.000 C 
BRANCH  17  18
ATOM     18  C   UNL     1       0.422  10.801  18.668  0.00  0.00    +0.000 A 
ATOM     19  N   UNL     1       0.810  11.543  19.664  0.00  0.00    +0.000 NA
ATOM     20  N   UNL     1      -0.132  12.204  20.385  0.00  0.00    +0.000 N 
ATOM     21  C   UNL     1      -1.491  12.087  20.233  0.00  0.00    +0.000 A 
ATOM     22  O   UNL     1      -2.287  12.635  20.988  0.00  0.00    +0.000 OA
ATOM     23  C   UNL     1      -1.948  11.289  19.084  0.00  0.00    +0.000 A 
ATOM     24  C   UNL     1      -3.317  11.185  18.805  0.00  0.00    +0.000 A 
ATOM     25  C   UNL     1      -3.742  10.479  17.681  0.00  0.00    +0.000 A 
ATOM     26  C   UNL     1      -2.803   9.892  16.836  0.00  0.00    +0.000 A 
ATOM     27  C   UNL     1      -1.438   9.989  17.122  0.00  0.00    +0.000 A 
ATOM     28  C   UNL     1      -1.004  10.676  18.263  0.00  0.00    +0.000 A 
ATOM     29  H   UNL     1       0.202  12.760  21.166  0.00  0.00    +0.000 HD
ENDBRANCH  17  18
ENDBRANCH   3  17
TORSDOF 3
ENDMDL
MODEL 3
REMARK VINA RESULT:      -8.2      2.411      3.076
REMARK  Name = 
REMARK  3 active torsions:
REMARK  status: ('A' for Active; 'I' for Inactive)
REMARK    1  A    between atoms: C_2  and  C_3
REMARK    2  A    between atoms: C_5  and  C_6
REMARK    3  A    between atoms: C_6  and  C_7
REMARK                            x       y       z     vdW  Elec       q    Type
REMARK                         _______ _______ _______ _____ _____    ______ ____
ROOT
ATOM      1  C   UNL     1       2.768   6.428  18.598  0.00  0.00    +0.000 A 
ATOM      2  C   UNL     1       2.481   7.703  18.074  0.00  0.00    +0.000 A 
ATOM      3  C   UNL     1       1.810   8.674  18.841  0.00  0.00    +0.000 A 
ATOM      4  C   UNL     1       1.479   8.370  20.166  0.00  0.00    +0.000 A 
ATOM      5  C   UNL     1       1.736   7.099  20.684  0.00  0.00    +0.000 A 
ATOM      6  C   UNL     1       2.331   6.124  19.885  0.00  0.00    +0.000 A 
ATOM      7  F   UNL     1       2.446   4.887  20.388  0.00  0.00    +0.000 F 
ENDROOT
BRANCH   1   9
ATOM      8  O   UNL     1       2.759   4.402  17.502  0.00  0.00    +0.000 OA
ATOM      9  C   UNL     1       3.396   5.439  17.691  0.00  0.00    +0.000 C 
ATOM     10  N   UNL     1       4.618   5.675  17.066  0.00  0.00    +0.000 N 
ATOM     11  C   UNL     1       5.428   6.901  17.076  0.00  0.00    +0.000 C 
ATOM     12  C   UNL     1       6.903   6.559  17.376  0.00  0.00    +0.000 C 
ATOM     13  N   UNL     1       7.458   5.597  16.403  0.00  0.00    +0.000 NA
ATOM     14  C   UNL     1       6.624   4.380  16.369  0.00  0.00    +0.000 C 
ATOM     15  C   UNL     1       5.130   4.669  16.128  0.00  0.00    +0.000 C 
ATOM     16  H   UNL     1       8.404   5.342  16.685  0.00  0.00    +0.000 HD
ENDBRANCH   1   9
BRANCH   3  17
ATOM     17  C   UNL     1       1.441  10.006  18.226  0.00  0.00    +0.000 C 
BRANCH  17  18
ATOM     18  C   UNL     1      -0.048  10.302  18.311  0.00  0.00    +0.000 A 
ATOM     19  N   UNL     1      -0.815   9.699  17.450  0.00  0.00    +0.000 NA
ATOM     20  N   UNL     1      -2.141   9.992  17.446  0.00  0.00    +0.000 N 
ATOM     21  C   UNL     1      -2.755  10.956  18.207  0.00  0.00    +0.000 A 
ATOM     22  O   UNL     1      -3.941  11.239  18.079  0.00  0.00    +0.000 OA
ATOM     23  C   UNL     1      -1.913  11.616  19.218  0.00  0.00    +0.000 A 
ATOM     24  C   UNL     1      -2.477  12.553  20.094  0.00  0.00    +0.000 A 
ATOM     25  C   UNL     1      -1.691  13.130  21.089  0.00  0.00    +0.000 A 
ATOM     26  C   UNL     1      -0.353  12.762  21.215  0.00  0.00    +0.000 A 
ATOM     27  C   UNL     1       0.210  11.834  20.334  0.00  0.00    +0.000 A 
ATOM     28  C   UNL     1      -0.568  11.268  19.315  0.00  0.00    +0.000 A 
ATOM     29  H   UNL     1      -2.708   9.518  16.751  0.00  0.00    +0.000 HD
ENDBRANCH  17  18
ENDBRANCH   3  17
TORSDOF 3
ENDMDL
MODEL 4
REMARK VINA RESULT:      -8.2      2.770      4.049
REMARK  Name = 
REMARK  3 active torsions:
REMARK  status: ('A' for Active; 'I' for Inactive)
REMARK    1  A    between atoms: C_2  and  C_3
REMARK    2  A    between atoms: C_5  and  C_6
REMARK    3  A    between atoms: C_6  and  C_7
REMARK                            x       y       z     vdW  Elec       q    Type
REMARK                         _______ _______ _______ _____ _____    ______ ____
ROOT
ATOM      1  C   UNL     1       3.361   3.978  19.453  0.00  0.00    +0.000 A 
ATOM      2  C   UNL     1       3.035   5.203  20.066  0.00  0.00    +0.000 A 
ATOM      3  C   UNL     1       1.735   5.463  20.536  0.00  0.00    +0.000 A 
ATOM      4  C   UNL     1       0.772   4.452  20.435  0.00  0.00    +0.000 A 
ATOM      5  C   UNL     1       1.079   3.246  19.803  0.00  0.00    +0.000 A 
ATOM      6  C   UNL     1       2.352   3.036  19.274  0.00  0.00    +0.000 A 
ATOM      7  F   UNL     1       2.560   1.912  18.572  0.00  0.00    +0.000 F 
ENDROOT
BRANCH   1   9
ATOM      8  O   UNL     1       5.448   3.003  19.478  0.00  0.00    +0.000 OA
ATOM      9  C   UNL     1       4.730   3.826  18.907  0.00  0.00    +0.000 C 
ATOM     10  N   UNL     1       5.174   4.546  17.800  0.00  0.00    +0.000 N 
ATOM     11  C   UNL     1       4.408   5.450  16.933  0.00  0.00    +0.000 C 
ATOM     12  C   UNL     1       5.191   6.762  16.713  0.00  0.00    +0.000 C 
ATOM     13  N   UNL     1       6.527   6.521  16.134  0.00  0.00    +0.000 NA
ATOM     14  C   UNL     1       7.282   5.584  16.988  0.00  0.00    +0.000 C 
ATOM     15  C   UNL     1       6.521   4.277  17.286  0.00  0.00    +0.000 C 
ATOM     16  H   UNL     1       7.036   7.403  16.080  0.00  0.00    +0.000 HD
ENDBRANCH   1   9
BRANCH   3  17
ATOM     17  C   UNL     1       1.393   6.817  21.116  0.00  0.00    +0.000 C 
BRANCH  17  18
ATOM     18  C   UNL     1       1.477   7.936  20.090  0.00  0.00    +0.000 A 
ATOM     19  N   UNL     1       2.161   7.690  19.010  0.00  0.00    +0.000 NA
ATOM     20  N   UNL     1       2.320   8.687  18.102  0.00  0.00    +0.000 N 
ATOM     21  C   UNL     1       1.911   9.989  18.255  0.00  0.00    +0.000 A 
ATOM     22  O   UNL     1       2.178  10.863  17.439  0.00  0.00    +0.000 OA
ATOM     23  C   UNL     1       1.096  10.275  19.446  0.00  0.00    +0.000 A 
ATOM     24  C   UNL     1       0.565  11.557  19.640  0.00  0.00    +0.000 A 
ATOM     25  C   UNL     1      -0.257  11.809  20.737  0.00  0.00    +0.000 A 
ATOM     26  C   UNL     1      -0.555  10.780  21.628  0.00  0.00    +0.000 A 
ATOM     27  C   UNL     1      -0.017   9.503  21.439  0.00  0.00    +0.000 A 
ATOM     28  C   UNL     1       0.830   9.249  20.351  0.00  0.00    +0.000 A 
ATOM     29  H   UNL     1       2.874   8.468  17.280  0.00  0.00    +0.000 HD
ENDBRANCH  17  18
ENDBRANCH   3  17
TORSDOF 3
ENDMDL
MODEL 5
REMARK VINA RESULT:      -8.1      2.862      3.504
REMARK  Name = 
REMARK  3 active torsions:
REMARK  status: ('A' for Active; 'I' for Inactive)
REMARK    1  A    between atoms: C_2  and  C_3
REMARK    2  A    between atoms: C_5  and  C_6
REMARK    3  A    between atoms: C_6  and  C_7
REMARK                            x       y       z     vdW  Elec       q    Type
REMARK                         _______ _______ _______ _____ _____    ______ ____
ROOT
ATOM      1  C   UNL     1       4.247   5.297  19.408  0.00  0.00    +0.000 A 
ATOM      2  C   UNL     1       3.643   6.528  19.088  0.00  0.00    +0.000 A 
ATOM      3  C   UNL     1       2.316   6.810  19.459  0.00  0.00    +0.000 A 
ATOM      4  C   UNL     1       1.614   5.861  20.210  0.00  0.00    +0.000 A 
ATOM      5  C   UNL     1       2.195   4.627  20.508  0.00  0.00    +0.000 A 
ATOM      6  C   UNL     1       3.484   4.334  20.065  0.00  0.00    +0.000 A 
ATOM      7  F   UNL     1       3.950   3.094  20.271  0.00  0.00    +0.000 F 
ENDROOT
BRANCH   1   9
ATOM      8  O   UNL     1       6.531   5.243  19.702  0.00  0.00    +0.000 OA
ATOM      9  C   UNL     1       5.616   5.051  18.899  0.00  0.00    +0.000 C 
ATOM     10  N   UNL     1       5.858   4.602  17.603  0.00  0.00    +0.000 N 
ATOM     11  C   UNL     1       4.885   4.197  16.580  0.00  0.00    +0.000 C 
ATOM     12  C   UNL     1       5.228   4.862  15.231  0.00  0.00    +0.000 C 
ATOM     13  N   UNL     1       6.595   4.534  14.781  0.00  0.00    +0.000 NA
ATOM     14  C   UNL     1       7.569   4.909  15.825  0.00  0.00    +0.000 C 
ATOM     15  C   UNL     1       7.242   4.316  17.209  0.00  0.00    +0.000 C 
ATOM     16  H   UNL     1       6.805   5.055  13.931  0.00  0.00    +0.000 HD
ENDBRANCH   1   9
BRANCH   3  17
ATOM     17  C   UNL     1       1.667   8.108  19.031  0.00  0.00    +0.000 C 
BRANCH  17  18
ATOM     18  C   UNL     1       1.133   8.915  20.205  0.00  0.00    +0.000 A 
ATOM     19  N   UNL     1       1.535   8.558  21.391  0.00  0.00    +0.000 NA
ATOM     20  N   UNL     1       1.026   9.207  22.470  0.00  0.00    +0.000 N 
ATOM     21  C   UNL     1       0.031  10.153  22.445  0.00  0.00    +0.000 A 
ATOM     22  O   UNL     1      -0.455  10.624  23.468  0.00  0.00    +0.000 OA
ATOM     23  C   UNL     1      -0.403  10.601  21.113  0.00  0.00    +0.000 A 
ATOM     24  C   UNL     1      -1.354  11.623  20.994  0.00  0.00    +0.000 A 
ATOM     25  C   UNL     1      -1.718  12.087  19.731  0.00  0.00    +0.000 A 
ATOM     26  C   UNL     1      -1.124  11.540  18.595  0.00  0.00    +0.000 A 
ATOM     27  C   UNL     1      -0.182  10.514  18.716  0.00  0.00    +0.000 A 
ATOM     28  C   UNL     1       0.171  10.025  19.981  0.00  0.00    +0.000 A 
ATOM     29  H   UNL     1       1.346   8.893  23.380  0.00  0.00    +0.000 HD
ENDBRANCH  17  18
ENDBRANCH   3  17
TORSDOF 3
ENDMDL
MODEL 6
REMARK VINA RESULT:      -8.1      2.726      8.201
REMARK  Name = 
REMARK  3 active torsions:
REMARK  status: ('A' for Active; 'I' for Inactive)
REMARK    1  A    between atoms: C_2  and  C_3
REMARK    2  A    between atoms: C_5  and  C_6
REMARK    3  A    between atoms: C_6  and  C_7
REMARK                            x       y       z     vdW  Elec       q    Type
REMARK                         _______ _______ _______ _____ _____    ______ ____
ROOT
ATOM      1  C   UNL     1       0.688   8.969  20.072  0.00  0.00    +0.000 A 
ATOM      2  C   UNL     1       1.800   8.109  20.168  0.00  0.00    +0.000 A 
ATOM      3  C   UNL     1       2.579   7.793  19.040  0.00  0.00    +0.000 A 
ATOM      4  C   UNL     1       2.266   8.399  17.818  0.00  0.00    +0.000 A 
ATOM      5  C   UNL     1       1.150   9.230  17.708  0.00  0.00    +0.000 A 
ATOM      6  C   UNL     1       0.343   9.470  18.820  0.00  0.00    +0.000 A 
ATOM      7  F   UNL     1      -0.783  10.175  18.635  0.00  0.00    +0.000 F 
ENDROOT
BRANCH   1   9
ATOM      8  O   UNL     1      -0.670   8.166  21.751  0.00  0.00    +0.000 OA
ATOM      9  C   UNL     1      -0.129   9.173  21.291  0.00  0.00    +0.000 C 
ATOM     10  N   UNL     1      -0.257  10.420  21.900  0.00  0.00    +0.000 N 
ATOM     11  C   UNL     1       0.427  11.675  21.562  0.00  0.00    +0.000 C 
ATOM     12  C   UNL     1      -0.592  12.832  21.499  0.00  0.00    +0.000 C 
ATOM     13  N   UNL     1      -1.334  12.988  22.765  0.00  0.00    +0.000 NA
ATOM     14  C   UNL     1      -1.992  11.716  23.121  0.00  0.00    +0.000 C 
ATOM     15  C   UNL     1      -1.028  10.514  23.144  0.00  0.00    +0.000 C 
ATOM     16  H   UNL     1      -2.047  13.708  22.652  0.00  0.00    +0.000 HD
ENDBRANCH   1   9
BRANCH   3  17
ATOM     17  C   UNL     1       3.718   6.803  19.157  0.00  0.00    +0.000 C 
BRANCH  17  18
ATOM     18  C   UNL     1       3.342   5.414  18.665  0.00  0.00    +0.000 A 
ATOM     19  N   UNL     1       3.572   5.155  17.410  0.00  0.00    +0.000 NA
ATOM     20  N   UNL     1       3.184   3.952  16.915  0.00  0.00    +0.000 N 
ATOM     21  C   UNL     1       2.466   2.996  17.591  0.00  0.00    +0.000 A 
ATOM     22  O   UNL     1       2.060   1.973  17.050  0.00  0.00    +0.000 OA
ATOM     23  C   UNL     1       2.237   3.251  19.022  0.00  0.00    +0.000 A 
ATOM     24  C   UNL     1       1.586   2.290  19.807  0.00  0.00    +0.000 A 
ATOM     25  C   UNL     1       1.424   2.508  21.174  0.00  0.00    +0.000 A 
ATOM     26  C   UNL     1       1.923   3.673  21.753  0.00  0.00    +0.000 A 
ATOM     27  C   UNL     1       2.564   4.635  20.965  0.00  0.00    +0.000 A 
ATOM     28  C   UNL     1       2.708   4.434  19.586  0.00  0.00    +0.000 A 
ATOM     29  H   UNL     1       3.363   3.788  15.929  0.00  0.00    +0.000 HD
ENDBRANCH  17  18
ENDBRANCH   3  17
TORSDOF 3
ENDMDL
MODEL 7
REMARK VINA RESULT:      -8.1      2.700      3.889
REMARK  Name = 
REMARK  3 active torsions:
REMARK  status: ('A' for Active; 'I' for Inactive)
REMARK    1  A    between atoms: C_2  and  C_3
REMARK    2  A    between atoms: C_5  and  C_6
REMARK    3  A    between atoms: C_6  and  C_7
REMARK                            x       y       z     vdW  Elec       q    Type
REMARK                         _______ _______ _______ _____ _____    ______ ____
ROOT
ATOM      1  C   UNL     1       2.910   3.877  18.687  0.00  0.00    +0.000 A 
ATOM      2  C   UNL     1       3.107   5.067  19.413  0.00  0.00    +0.000 A 
ATOM      3  C   UNL     1       2.122   5.561  20.288  0.00  0.00    +0.000 A 
ATOM      4  C   UNL     1       0.954   4.814  20.472  0.00  0.00    +0.000 A 
ATOM      5  C   UNL     1       0.739   3.647  19.737  0.00  0.00    +0.000 A 
ATOM      6  C   UNL     1       1.692   3.214  18.816  0.00  0.00    +0.000 A 
ATOM      7  F   UNL     1       1.385   2.158  18.048  0.00  0.00    +0.000 F 
ENDROOT
BRANCH   1   9
ATOM      8  O   UNL     1       4.143   2.267  17.594  0.00  0.00    +0.000 OA
ATOM      9  C   UNL     1       3.961   3.479  17.722  0.00  0.00    +0.000 C 
ATOM     10  N   UNL     1       4.682   4.413  16.981  0.00  0.00    +0.000 N 
ATOM     11  C   UNL     1       4.493   5.868  16.915  0.00  0.00    +0.000 C 
ATOM     12  C   UNL     1       5.851   6.585  17.070  0.00  0.00    +0.000 C 
ATOM     13  N   UNL     1       6.825   6.157  16.046  0.00  0.00    +0.000 NA
ATOM     14  C   UNL     1       6.987   4.691  16.091  0.00  0.00    +0.000 C 
ATOM     15  C   UNL     1       5.654   3.924  15.996  0.00  0.00    +0.000 C 
ATOM     16  H   UNL     1       7.726   6.596  16.235  0.00  0.00    +0.000 HD
ENDBRANCH   1   9
BRANCH   3  17
ATOM     17  C   UNL     1       2.327   6.885  20.992  0.00  0.00    +0.000 C 
BRANCH  17  18
ATOM     18  C   UNL     1       1.626   8.039  20.291  0.00  0.00    +0.000 A 
ATOM     19  N   UNL     1       1.850   8.171  19.016  0.00  0.00    +0.000 NA
ATOM     20  N   UNL     1       1.301   9.231  18.368  0.00  0.00    +0.000 N 
ATOM     21  C   UNL     1       0.602  10.258  18.953  0.00  0.00    +0.000 A 
ATOM     22  O   UNL     1       0.222  11.239  18.323  0.00  0.00    +0.000 OA
ATOM     23  C   UNL     1       0.300  10.103  20.385  0.00  0.00    +0.000 A 
ATOM     24  C   UNL     1      -0.480  11.062  21.044  0.00  0.00    +0.000 A 
ATOM     25  C   UNL     1      -0.815  10.881  22.384  0.00  0.00    +0.000 A 
ATOM     26  C   UNL     1      -0.383   9.740  23.057  0.00  0.00    +0.000 A 
ATOM     27  C   UNL     1       0.404   8.788  22.400  0.00  0.00    +0.000 A 
ATOM     28  C   UNL     1       0.765   8.976  21.060  0.00  0.00    +0.000 A 
ATOM     29  H   UNL     1       1.509   9.316  17.378  0.00  0.00    +0.000 HD
ENDBRANCH  17  18
ENDBRANCH   3  17
TORSDOF 3
ENDMDL
MODEL 8
REMARK VINA RESULT:      -8.1      2.248      8.401
REMARK  Name = 
REMARK  3 active torsions:
REMARK  status: ('A' for Active; 'I' for Inactive)
REMARK    1  A    between atoms: C_2  and  C_3
REMARK    2  A    between atoms: C_5  and  C_6
REMARK    3  A    between atoms: C_6  and  C_7
REMARK                            x       y       z     vdW  Elec       q    Type
REMARK                         _______ _______ _______ _____ _____    ______ ____
ROOT
ATOM      1  C   UNL     1       1.386   9.835  19.321  0.00  0.00    +0.000 A 
ATOM      2  C   UNL     1       2.000   8.929  18.435  0.00  0.00    +0.000 A 
ATOM      3  C   UNL     1       2.322   7.619  18.835  0.00  0.00    +0.000 A 
ATOM      4  C   UNL     1       1.967   7.207  20.125  0.00  0.00    +0.000 A 
ATOM      5  C   UNL     1       1.384   8.107  21.018  0.00  0.00    +0.000 A 
ATOM      6  C   UNL     1       1.143   9.424  20.629  0.00  0.00    +0.000 A 
ATOM      7  F   UNL     1       0.695  10.279  21.559  0.00  0.00    +0.000 F 
ENDROOT
BRANCH   1   9
ATOM      8  O   UNL     1       2.144  11.778  18.342  0.00  0.00    +0.000 OA
ATOM      9  C   UNL     1       1.166  11.220  18.843  0.00  0.00    +0.000 C 
ATOM     10  N   UNL     1      -0.076  11.847  18.926  0.00  0.00    +0.000 N 
ATOM     11  C   UNL     1      -1.358  11.278  19.362  0.00  0.00    +0.000 C 
ATOM     12  C   UNL     1      -2.046  12.230  20.363  0.00  0.00    +0.000 C 
ATOM     13  N   UNL     1      -2.260  13.575  19.792  0.00  0.00    +0.000 NA
ATOM     14  C   UNL     1      -0.976  14.130  19.322  0.00  0.00    +0.000 C 
ATOM     15  C   UNL     1      -0.218  13.193  18.362  0.00  0.00    +0.000 C 
ATOM     16  H   UNL     1      -2.643  14.189  20.510  0.00  0.00    +0.000 HD
ENDBRANCH   1   9
BRANCH   3  17
ATOM     17  C   UNL     1       3.055   6.694  17.889  0.00  0.00    +0.000 C 
BRANCH  17  18
ATOM     18  C   UNL     1       3.557   5.431  18.572  0.00  0.00    +0.000 A 
ATOM     19  N   UNL     1       4.783   5.451  19.009  0.00  0.00    +0.000 NA
ATOM     20  N   UNL     1       5.292   4.319  19.560  0.00  0.00    +0.000 N 
ATOM     21  C   UNL     1       4.668   3.097  19.612  0.00  0.00    +0.000 A 
ATOM     22  O   UNL     1       5.227   2.090  20.032  0.00  0.00    +0.000 OA
ATOM     23  C   UNL     1       3.267   3.067  19.165  0.00  0.00    +0.000 A 
ATOM     24  C   UNL     1       2.527   1.881  19.261  0.00  0.00    +0.000 A 
ATOM     25  C   UNL     1       1.183   1.871  18.894  0.00  0.00    +0.000 A 
ATOM     26  C   UNL     1       0.580   3.044  18.445  0.00  0.00    +0.000 A 
ATOM     27  C   UNL     1       1.323   4.224  18.340  0.00  0.00    +0.000 A 
ATOM     28  C   UNL     1       2.681   4.236  18.684  0.00  0.00    +0.000 A 
ATOM     29  H   UNL     1       6.256   4.362  19.876  0.00  0.00    +0.000 HD
ENDBRANCH  17  18
ENDBRANCH   3  17
TORSDOF 3
ENDMDL
MODEL 9
REMARK VINA RESULT:      -8.0      2.509      8.262
REMARK  Name = 
REMARK  3 active torsions:
REMARK  status: ('A' for Active; 'I' for Inactive)
REMARK    1  A    between atoms: C_2  and  C_3
REMARK    2  A    between atoms: C_5  and  C_6
REMARK    3  A    between atoms: C_6  and  C_7
REMARK                            x       y       z     vdW  Elec       q    Type
REMARK                         _______ _______ _______ _____ _____    ______ ____
ROOT
ATOM      1  C   UNL     1       0.470   9.999  19.808  0.00  0.00    +0.000 A 
ATOM      2  C   UNL     1       1.057   9.464  18.645  0.00  0.00    +0.000 A 
ATOM      3  C   UNL     1       1.860   8.310  18.696  0.00  0.00    +0.000 A 
ATOM      4  C   UNL     1       2.021   7.660  19.925  0.00  0.00    +0.000 A 
ATOM      5  C   UNL     1       1.465   8.198  21.087  0.00  0.00    +0.000 A 
ATOM      6  C   UNL     1       0.738   9.386  21.030  0.00  0.00    +0.000 A 
ATOM      7  F   UNL     1       0.329   9.925  22.187  0.00  0.00    +0.000 F 
ENDROOT
BRANCH   1   9
ATOM      8  O   UNL     1      -1.494  11.154  19.466  0.00  0.00    +0.000 OA
ATOM      9  C   UNL     1      -0.285  11.267  19.675  0.00  0.00    +0.000 C 
ATOM     10  N   UNL     1       0.325  12.512  19.806  0.00  0.00    +0.000 N 
ATOM     11  C   UNL     1       1.711  12.814  20.188  0.00  0.00    +0.000 C 
ATOM     12  C   UNL     1       2.313  13.853  19.219  0.00  0.00    +0.000 C 
ATOM     13  N   UNL     1       1.520  15.098  19.176  0.00  0.00    +0.000 NA
ATOM     14  C   UNL     1       0.120  14.788  18.827  0.00  0.00    +0.000 C 
ATOM     15  C   UNL     1      -0.514  13.713  19.730  0.00  0.00    +0.000 C 
ATOM     16  H   UNL     1       1.908  15.721  18.469  0.00  0.00    +0.000 HD
ENDBRANCH   1   9
BRANCH   3  17
ATOM     17  C   UNL     1       2.544   7.804  17.445  0.00  0.00    +0.000 C 
BRANCH  17  18
ATOM     18  C   UNL     1       3.598   6.747  17.737  0.00  0.00    +0.000 A 
ATOM     19  N   UNL     1       4.826   7.163  17.856  0.00  0.00    +0.000 NA
ATOM     20  N   UNL     1       5.806   6.242  18.045  0.00  0.00    +0.000 N 
ATOM     21  C   UNL     1       5.646   4.879  18.021  0.00  0.00    +0.000 A 
ATOM     22  O   UNL     1       6.593   4.103  18.096  0.00  0.00    +0.000 OA
ATOM     23  C   UNL     1       4.260   4.392  17.933  0.00  0.00    +0.000 A 
ATOM     24  C   UNL     1       3.998   3.016  17.985  0.00  0.00    +0.000 A 
ATOM     25  C   UNL     1       2.681   2.561  17.963  0.00  0.00    +0.000 A 
ATOM     26  C   UNL     1       1.633   3.478  17.902  0.00  0.00    +0.000 A 
ATOM     27  C   UNL     1       1.898   4.850  17.839  0.00  0.00    +0.000 A 
ATOM     28  C   UNL     1       3.220   5.313  17.836  0.00  0.00    +0.000 A 
ATOM     29  H   UNL     1       6.754   6.597  18.117  0.00  0.00    +0.000 HD
ENDBRANCH  17  18
ENDBRANCH   3  17
TORSDOF 3
ENDMDL
