MODEL 1
REMARK VINA RESULT:      -7.3      0.000      0.000
REMARK  Name = 
REMARK  6 active torsions:
REMARK  status: ('A' for Active; 'I' for Inactive)
REMARK    1  A    between atoms: C_1  and  C_2
REMARK    2  A    between atoms: C_2  and  C_14
REMARK    3  A    between atoms: N_3  and  N_4
REMARK    4  A    between atoms: N_4  and  C_5
REMARK    5  A    between atoms: C_5  and  N_7
REMARK    6  A    between atoms: N_7  and  C_8
REMARK                            x       y       z     vdW  Elec       q    Type
REMARK                         _______ _______ _______ _____ _____    ______ ____
ROOT
ATOM      1  N   UNL     1       6.674   4.221  18.333  0.00  0.00    +0.000 N 
ATOM      2  H   UNL     1       7.494   4.201  18.928  0.00  0.00    +0.000 HD
ENDROOT
BRANCH   1   5
ATOM      3  C   UNL     1       7.120   6.536  16.623  0.00  0.00    +0.000 C 
ATOM      4  C   UNL     1       6.940   5.097  16.195  0.00  0.00    +0.000 C 
ATOM      5  N   UNL     1       6.804   4.076  16.991  0.00  0.00    +0.000 NA
BRANCH   4   6
ATOM      6  C   UNL     1       6.993   4.824  14.720  0.00  0.00    +0.000 A 
ATOM      7  C   UNL     1       6.122   3.895  14.154  0.00  0.00    +0.000 A 
ATOM      8  C   UNL     1       6.195   3.663  12.786  0.00  0.00    +0.000 A 
ATOM      9  C   UNL     1       7.131   4.360  12.030  0.00  0.00    +0.000 A 
ATOM     10  C   UNL     1       7.957   5.267  12.678  0.00  0.00    +0.000 A 
ATOM     11  N   UNL     1       7.909   5.522  14.004  0.00  0.00    +0.000 NA
ENDBRANCH   4   6
ENDBRANCH   1   5
BRANCH   1  12
ATOM     12  C   UNL     1       5.410   4.370  18.899  0.00  0.00    +0.000 C 
ATOM     13  S   UNL     1       4.757   5.856  19.342  0.00  0.00    +0.000 S 
BRANCH  12  14
ATOM     14  N   UNL     1       4.820   3.127  19.120  0.00  0.00    +0.000 N 
ATOM     15  H   UNL     1       5.442   2.484  19.597  0.00  0.00    +0.000 HD
BRANCH  14  16
ATOM     16  C   UNL     1       3.437   2.877  19.272  0.00  0.00    +0.000 A 
ATOM     17  C   UNL     1       2.819   2.890  20.520  0.00  0.00    +0.000 A 
ATOM     18  C   UNL     1       1.451   2.649  20.618  0.00  0.00    +0.000 A 
ATOM     19  C   UNL     1       0.740   2.418  19.452  0.00  0.00    +0.000 A 
ATOM     20  N   UNL     1       1.292   2.437  18.220  0.00  0.00    +0.000 NA
ATOM     21  C   UNL     1       2.626   2.673  18.160  0.00  0.00    +0.000 A 
ENDBRANCH  14  16
ENDBRANCH  12  14
ENDBRANCH   1  12
TORSDOF 5
ENDMDL
MODEL 2
REMARK VINA RESULT:      -7.0      1.771      1.977
REMARK  Name = 
REMARK  6 active torsions:
REMARK  status: ('A' for Active; 'I' for Inactive)
REMARK    1  A    between atoms: C_1  and  C_2
REMARK    2  A    between atoms: C_2  and  C_14
REMARK    3  A    between atoms: N_3  and  N_4
REMARK    4  A    between atoms: N_4  and  C_5
REMARK    5  A    between atoms: C_5  and  N_7
REMARK    6  A    between atoms: N_7  and  C_8
REMARK                            x       y       z     vdW  Elec       q    Type
REMARK                         _______ _______ _______ _____ _____    ______ ____
ROOT
ATOM      1  N   UNL     1       4.792   6.695  17.235  0.00  0.00    +0.000 N 
ATOM      2  H   UNL     1       5.409   7.357  17.690  0.00  0.00    +0.000 HD
ENDROOT
BRANCH   1   5
ATOM      3  C   UNL     1       7.086   4.913  17.042  0.00  0.00    +0.000 C 
ATOM      4  C   UNL     1       6.200   5.396  15.917  0.00  0.00    +0.000 C 
ATOM      5  N   UNL     1       5.143   6.144  16.046  0.00  0.00    +0.000 NA
BRANCH   4   6
ATOM      6  C   UNL     1       6.539   4.908  14.539  0.00  0.00    +0.000 A 
ATOM      7  C   UNL     1       5.773   3.905  13.949  0.00  0.00    +0.000 A 
ATOM      8  C   UNL     1       6.112   3.474  12.672  0.00  0.00    +0.000 A 
ATOM      9  C   UNL     1       7.201   4.052  12.028  0.00  0.00    +0.000 A 
ATOM     10  C   UNL     1       7.906   5.046  12.692  0.00  0.00    +0.000 A 
ATOM     11  N   UNL     1       7.600   5.493  13.930  0.00  0.00    +0.000 NA
ENDBRANCH   4   6
ENDBRANCH   1   5
BRANCH   1  12
ATOM     12  C   UNL     1       3.595   6.330  17.847  0.00  0.00    +0.000 C 
ATOM     13  S   UNL     1       2.537   7.430  18.553  0.00  0.00    +0.000 S 
BRANCH  12  14
ATOM     14  N   UNL     1       3.454   4.943  17.863  0.00  0.00    +0.000 N 
ATOM     15  H   UNL     1       4.238   4.470  17.429  0.00  0.00    +0.000 HD
BRANCH  14  16
ATOM     16  C   UNL     1       2.729   4.192  18.816  0.00  0.00    +0.000 A 
ATOM     17  C   UNL     1       1.442   3.722  18.560  0.00  0.00    +0.000 A 
ATOM     18  C   UNL     1       0.773   2.976  19.527  0.00  0.00    +0.000 A 
ATOM     19  C   UNL     1       1.425   2.710  20.720  0.00  0.00    +0.000 A 
ATOM     20  N   UNL     1       2.685   3.113  20.992  0.00  0.00    +0.000 NA
ATOM     21  C   UNL     1       3.309   3.838  20.030  0.00  0.00    +0.000 A 
ENDBRANCH  14  16
ENDBRANCH  12  14
ENDBRANCH   1  12
TORSDOF 5
ENDMDL
MODEL 3
REMARK VINA RESULT:      -7.0      3.864      6.874
REMARK  Name = 
REMARK  6 active torsions:
REMARK  status: ('A' for Active; 'I' for Inactive)
REMARK    1  A    between atoms: C_1  and  C_2
REMARK    2  A    between atoms: C_2  and  C_14
REMARK    3  A    between atoms: N_3  and  N_4
REMARK    4  A    between atoms: N_4  and  C_5
REMARK    5  A    between atoms: C_5  and  N_7
REMARK    6  A    between atoms: N_7  and  C_8
REMARK                            x       y       z     vdW  Elec       q    Type
REMARK                         _______ _______ _______ _____ _____    ______ ____
ROOT
ATOM      1  N   UNL     1       4.153   4.458  19.752  0.00  0.00    +0.000 N 
ATOM      2  H   UNL     1       4.199   4.105  20.701  0.00  0.00    +0.000 HD
ENDROOT
BRANCH   1   5
ATOM      3  C   UNL     1       1.499   5.252  20.650  0.00  0.00    +0.000 C 
ATOM      4  C   UNL     1       2.482   6.073  19.847  0.00  0.00    +0.000 C 
ATOM      5  N   UNL     1       3.687   5.709  19.515  0.00  0.00    +0.000 NA
BRANCH   4   6
ATOM      6  C   UNL     1       2.045   7.456  19.461  0.00  0.00    +0.000 A 
ATOM      7  C   UNL     1       2.293   7.930  18.175  0.00  0.00    +0.000 A 
ATOM      8  C   UNL     1       1.876   9.215  17.848  0.00  0.00    +0.000 A 
ATOM      9  C   UNL     1       1.232   9.984  18.811  0.00  0.00    +0.000 A 
ATOM     10  C   UNL     1       1.027   9.429  20.066  0.00  0.00    +0.000 A 
ATOM     11  N   UNL     1       1.412   8.183  20.416  0.00  0.00    +0.000 NA
ENDBRANCH   4   6
ENDBRANCH   1   5
BRANCH   1  12
ATOM     12  C   UNL     1       4.595   3.666  18.696  0.00  0.00    +0.000 C 
ATOM     13  S   UNL     1       3.631   2.526  17.919  0.00  0.00    +0.000 S 
BRANCH  12  14
ATOM     14  N   UNL     1       5.947   3.891  18.444  0.00  0.00    +0.000 N 
ATOM     15  H   UNL     1       6.408   3.078  18.053  0.00  0.00    +0.000 HD
BRANCH  14  16
ATOM     16  C   UNL     1       6.541   5.139  18.149  0.00  0.00    +0.000 A 
ATOM     17  C   UNL     1       7.511   5.707  18.972  0.00  0.00    +0.000 A 
ATOM     18  C   UNL     1       8.076   6.934  18.632  0.00  0.00    +0.000 A 
ATOM     19  C   UNL     1       7.659   7.548  17.463  0.00  0.00    +0.000 A 
ATOM     20  N   UNL     1       6.751   7.013  16.617  0.00  0.00    +0.000 NA
ATOM     21  C   UNL     1       6.220   5.819  16.977  0.00  0.00    +0.000 A 
ENDBRANCH  14  16
ENDBRANCH  12  14
ENDBRANCH   1  12
TORSDOF 5
ENDMDL
MODEL 4
REMARK VINA RESULT:      -7.0      1.656      2.013
REMARK  Name = 
REMARK  6 active torsions:
REMARK  status: ('A' for Active; 'I' for Inactive)
REMARK    1  A    between atoms: C_1  and  C_2
REMARK    2  A    between atoms: C_2  and  C_14
REMARK    3  A    between atoms: N_3  and  N_4
REMARK    4  A    between atoms: N_4  and  C_5
REMARK    5  A    between atoms: C_5  and  N_7
REMARK    6  A    between atoms: N_7  and  C_8
REMARK                            x       y       z     vdW  Elec       q    Type
REMARK                         _______ _______ _______ _____ _____    ______ ____
ROOT
ATOM      1  N   UNL     1       7.248   4.277  17.884  0.00  0.00    +0.000 N 
ATOM      2  H   UNL     1       7.261   3.355  18.304  0.00  0.00    +0.000 HD
ENDROOT
BRANCH   1   5
ATOM      3  C   UNL     1       4.975   4.255  16.065  0.00  0.00    +0.000 C 
ATOM      4  C   UNL     1       6.440   4.348  15.705  0.00  0.00    +0.000 C 
ATOM      5  N   UNL     1       7.429   4.417  16.548  0.00  0.00    +0.000 NA
BRANCH   4   6
ATOM      6  C   UNL     1       6.767   4.433  14.243  0.00  0.00    +0.000 A 
ATOM      7  C   UNL     1       6.154   3.567  13.341  0.00  0.00    +0.000 A 
ATOM      8  C   UNL     1       6.478   3.671  11.993  0.00  0.00    +0.000 A 
ATOM      9  C   UNL     1       7.403   4.629  11.591  0.00  0.00    +0.000 A 
ATOM     10  C   UNL     1       7.964   5.450  12.559  0.00  0.00    +0.000 A 
ATOM     11  N   UNL     1       7.666   5.381  13.876  0.00  0.00    +0.000 NA
ENDBRANCH   4   6
ENDBRANCH   1   5
BRANCH   1  12
ATOM     12  C   UNL     1       7.016   5.398  18.678  0.00  0.00    +0.000 C 
ATOM     13  S   UNL     1       7.845   6.851  18.504  0.00  0.00    +0.000 S 
BRANCH  12  14
ATOM     14  N   UNL     1       6.080   5.112  19.671  0.00  0.00    +0.000 N 
ATOM     15  H   UNL     1       6.291   5.577  20.546  0.00  0.00    +0.000 HD
BRANCH  14  16
ATOM     16  C   UNL     1       4.723   4.773  19.463  0.00  0.00    +0.000 A 
ATOM     17  C   UNL     1       4.270   3.459  19.548  0.00  0.00    +0.000 A 
ATOM     18  C   UNL     1       2.921   3.177  19.346  0.00  0.00    +0.000 A 
ATOM     19  C   UNL     1       2.063   4.231  19.080  0.00  0.00    +0.000 A 
ATOM     20  N   UNL     1       2.454   5.523  19.028  0.00  0.00    +0.000 NA
ATOM     21  C   UNL     1       3.773   5.763  19.228  0.00  0.00    +0.000 A 
ENDBRANCH  14  16
ENDBRANCH  12  14
ENDBRANCH   1  12
TORSDOF 5
ENDMDL
MODEL 5
REMARK VINA RESULT:      -6.9      2.269      6.300
REMARK  Name = 
REMARK  6 active torsions:
REMARK  status: ('A' for Active; 'I' for Inactive)
REMARK    1  A    between atoms: C_1  and  C_2
REMARK    2  A    between atoms: C_2  and  C_14
REMARK    3  A    between atoms: N_3  and  N_4
REMARK    4  A    between atoms: N_4  and  C_5
REMARK    5  A    between atoms: C_5  and  N_7
REMARK    6  A    between atoms: N_7  and  C_8
REMARK                            x       y       z     vdW  Elec       q    Type
REMARK                         _______ _______ _______ _____ _____    ______ ____
ROOT
ATOM      1  N   UNL     1       5.140   5.338  15.243  0.00  0.00    +0.000 N 
ATOM      2  H   UNL     1       4.874   6.303  15.088  0.00  0.00    +0.000 HD
ENDROOT
BRANCH   1   5
ATOM      3  C   UNL     1       3.967   6.437  17.671  0.00  0.00    +0.000 C 
ATOM      4  C   UNL     1       3.922   5.003  17.195  0.00  0.00    +0.000 C 
ATOM      5  N   UNL     1       4.404   4.556  16.072  0.00  0.00    +0.000 NA
BRANCH   4   6
ATOM      6  C   UNL     1       3.194   4.027  18.074  0.00  0.00    +0.000 A 
ATOM      7  C   UNL     1       1.842   3.770  17.856  0.00  0.00    +0.000 A 
ATOM      8  C   UNL     1       1.196   2.861  18.686  0.00  0.00    +0.000 A 
ATOM      9  C   UNL     1       1.914   2.244  19.704  0.00  0.00    +0.000 A 
ATOM     10  C   UNL     1       3.258   2.561  19.847  0.00  0.00    +0.000 A 
ATOM     11  N   UNL     1       3.919   3.433  19.054  0.00  0.00    +0.000 NA
ENDBRANCH   4   6
ENDBRANCH   1   5
BRANCH   1  12
ATOM     12  C   UNL     1       6.244   4.807  14.581  0.00  0.00    +0.000 C 
ATOM     13  S   UNL     1       6.129   3.751  13.276  0.00  0.00    +0.000 S 
BRANCH  12  14
ATOM     14  N   UNL     1       7.427   5.202  15.204  0.00  0.00    +0.000 N 
ATOM     15  H   UNL     1       8.066   5.659  14.564  0.00  0.00    +0.000 HD
BRANCH  14  16
ATOM     16  C   UNL     1       7.578   5.533  16.570  0.00  0.00    +0.000 A 
ATOM     17  C   UNL     1       7.575   6.853  17.013  0.00  0.00    +0.000 A 
ATOM     18  C   UNL     1       7.716   7.129  18.371  0.00  0.00    +0.000 A 
ATOM     19  C   UNL     1       7.841   6.064  19.247  0.00  0.00    +0.000 A 
ATOM     20  N   UNL     1       7.809   4.769  18.864  0.00  0.00    +0.000 NA
ATOM     21  C   UNL     1       7.672   4.535  17.535  0.00  0.00    +0.000 A 
ENDBRANCH  14  16
ENDBRANCH  12  14
ENDBRANCH   1  12
TORSDOF 5
ENDMDL
MODEL 6
REMARK VINA RESULT:      -6.9      3.634      6.635
REMARK  Name = 
REMARK  6 active torsions:
REMARK  status: ('A' for Active; 'I' for Inactive)
REMARK    1  A    between atoms: C_1  and  C_2
REMARK    2  A    between atoms: C_2  and  C_14
REMARK    3  A    between atoms: N_3  and  N_4
REMARK    4  A    between atoms: N_4  and  C_5
REMARK    5  A    between atoms: C_5  and  N_7
REMARK    6  A    between atoms: N_7  and  C_8
REMARK                            x       y       z     vdW  Elec       q    Type
REMARK                         _______ _______ _______ _____ _____    ______ ____
ROOT
ATOM      1  N   UNL     1       3.993   4.092  20.028  0.00  0.00    +0.000 N 
ATOM      2  H   UNL     1       3.897   3.763  20.981  0.00  0.00    +0.000 HD
ENDROOT
BRANCH   1   5
ATOM      3  C   UNL     1       1.324   5.075  20.650  0.00  0.00    +0.000 C 
ATOM      4  C   UNL     1       2.424   5.805  19.914  0.00  0.00    +0.000 C 
ATOM      5  N   UNL     1       3.629   5.359  19.706  0.00  0.00    +0.000 NA
BRANCH   4   6
ATOM      6  C   UNL     1       2.109   7.195  19.443  0.00  0.00    +0.000 A 
ATOM      7  C   UNL     1       2.420   7.573  18.139  0.00  0.00    +0.000 A 
ATOM      8  C   UNL     1       2.116   8.868  17.732  0.00  0.00    +0.000 A 
ATOM      9  C   UNL     1       1.519   9.739  18.636  0.00  0.00    +0.000 A 
ATOM     10  C   UNL     1       1.245   9.275  19.915  0.00  0.00    +0.000 A 
ATOM     11  N   UNL     1       1.520   8.023  20.341  0.00  0.00    +0.000 NA
ENDBRANCH   4   6
ENDBRANCH   1   5
BRANCH   1  12
ATOM     12  C   UNL     1       4.526   3.252  19.054  0.00  0.00    +0.000 C 
ATOM     13  S   UNL     1       3.836   1.782  18.612  0.00  0.00    +0.000 S 
BRANCH  12  14
ATOM     14  N   UNL     1       5.735   3.756  18.577  0.00  0.00    +0.000 N 
ATOM     15  H   UNL     1       6.530   3.421  19.110  0.00  0.00    +0.000 HD
BRANCH  14  16
ATOM     16  C   UNL     1       6.005   4.151  17.247  0.00  0.00    +0.000 A 
ATOM     17  C   UNL     1       4.997   4.261  16.292  0.00  0.00    +0.000 A 
ATOM     18  C   UNL     1       5.311   4.666  14.997  0.00  0.00    +0.000 A 
ATOM     19  C   UNL     1       6.632   4.965  14.705  0.00  0.00    +0.000 A 
ATOM     20  N   UNL     1       7.632   4.910  15.611  0.00  0.00    +0.000 NA
ATOM     21  C   UNL     1       7.293   4.511  16.862  0.00  0.00    +0.000 A 
ENDBRANCH  14  16
ENDBRANCH  12  14
ENDBRANCH   1  12
TORSDOF 5
ENDMDL
MODEL 7
REMARK VINA RESULT:      -6.8      2.030      6.946
REMARK  Name = 
REMARK  6 active torsions:
REMARK  status: ('A' for Active; 'I' for Inactive)
REMARK    1  A    between atoms: C_1  and  C_2
REMARK    2  A    between atoms: C_2  and  C_14
REMARK    3  A    between atoms: N_3  and  N_4
REMARK    4  A    between atoms: N_4  and  C_5
REMARK    5  A    between atoms: C_5  and  N_7
REMARK    6  A    between atoms: N_7  and  C_8
REMARK                            x       y       z     vdW  Elec       q    Type
REMARK                         _______ _______ _______ _____ _____    ______ ____
ROOT
ATOM      1  N   UNL     1       5.054   6.362  16.645  0.00  0.00    +0.000 N 
ATOM      2  H   UNL     1       4.711   7.120  16.067  0.00  0.00    +0.000 HD
ENDROOT
BRANCH   1   5
ATOM      3  C   UNL     1       2.790   7.397  18.154  0.00  0.00    +0.000 C 
ATOM      4  C   UNL     1       3.197   5.951  17.982  0.00  0.00    +0.000 C 
ATOM      5  N   UNL     1       4.180   5.518  17.248  0.00  0.00    +0.000 NA
BRANCH   4   6
ATOM      6  C   UNL     1       2.342   4.927  18.669  0.00  0.00    +0.000 A 
ATOM      7  C   UNL     1       2.007   5.088  20.012  0.00  0.00    +0.000 A 
ATOM      8  C   UNL     1       1.214   4.122  20.620  0.00  0.00    +0.000 A 
ATOM      9  C   UNL     1       0.786   3.030  19.875  0.00  0.00    +0.000 A 
ATOM     10  C   UNL     1       1.167   2.951  18.543  0.00  0.00    +0.000 A 
ATOM     11  N   UNL     1       1.931   3.874  17.918  0.00  0.00    +0.000 NA
ENDBRANCH   4   6
ENDBRANCH   1   5
BRANCH   1  12
ATOM     12  C   UNL     1       6.425   6.170  16.794  0.00  0.00    +0.000 C 
ATOM     13  S   UNL     1       7.450   7.294  17.513  0.00  0.00    +0.000 S 
BRANCH  12  14
ATOM     14  N   UNL     1       6.824   4.976  16.195  0.00  0.00    +0.000 N 
ATOM     15  H   UNL     1       6.653   4.171  16.786  0.00  0.00    +0.000 HD
BRANCH  14  16
ATOM     16  C   UNL     1       6.880   4.721  14.806  0.00  0.00    +0.000 A 
ATOM     17  C   UNL     1       6.061   3.774  14.196  0.00  0.00    +0.000 A 
ATOM     18  C   UNL     1       6.146   3.566  12.821  0.00  0.00    +0.000 A 
ATOM     19  C   UNL     1       7.044   4.332  12.096  0.00  0.00    +0.000 A 
ATOM     20  N   UNL     1       7.827   5.288  12.641  0.00  0.00    +0.000 NA
ATOM     21  C   UNL     1       7.721   5.464  13.982  0.00  0.00    +0.000 A 
ENDBRANCH  14  16
ENDBRANCH  12  14
ENDBRANCH   1  12
TORSDOF 5
ENDMDL
MODEL 8
REMARK VINA RESULT:      -6.8      0.719      1.126
REMARK  Name = 
REMARK  6 active torsions:
REMARK  status: ('A' for Active; 'I' for Inactive)
REMARK    1  A    between atoms: C_1  and  C_2
REMARK    2  A    between atoms: C_2  and  C_14
REMARK    3  A    between atoms: N_3  and  N_4
REMARK    4  A    between atoms: N_4  and  C_5
REMARK    5  A    between atoms: C_5  and  N_7
REMARK    6  A    between atoms: N_7  and  C_8
REMARK                            x       y       z     vdW  Elec       q    Type
REMARK                         _______ _______ _______ _____ _____    ______ ____
ROOT
ATOM      1  N   UNL     1       6.787   4.057  18.211  0.00  0.00    +0.000 N 
ATOM      2  H   UNL     1       7.600   3.987  18.812  0.00  0.00    +0.000 HD
ENDROOT
BRANCH   1   5
ATOM      3  C   UNL     1       7.034   6.460  16.586  0.00  0.00    +0.000 C 
ATOM      4  C   UNL     1       6.977   5.028  16.107  0.00  0.00    +0.000 C 
ATOM      5  N   UNL     1       6.928   3.971  16.865  0.00  0.00    +0.000 NA
BRANCH   4   6
ATOM      6  C   UNL     1       7.051   4.813  14.623  0.00  0.00    +0.000 A 
ATOM      7  C   UNL     1       6.172   3.927  14.004  0.00  0.00    +0.000 A 
ATOM      8  C   UNL     1       6.265   3.749  12.629  0.00  0.00    +0.000 A 
ATOM      9  C   UNL     1       7.231   4.455  11.919  0.00  0.00    +0.000 A 
ATOM     10  C   UNL     1       8.063   5.317  12.618  0.00  0.00    +0.000 A 
ATOM     11  N   UNL     1       7.996   5.519  13.953  0.00  0.00    +0.000 NA
ENDBRANCH   4   6
ENDBRANCH   1   5
BRANCH   1  12
ATOM     12  C   UNL     1       5.521   4.211  18.771  0.00  0.00    +0.000 C 
ATOM     13  S   UNL     1       4.914   5.685  19.309  0.00  0.00    +0.000 S 
BRANCH  12  14
ATOM     14  N   UNL     1       4.885   2.977  18.897  0.00  0.00    +0.000 N 
ATOM     15  H   UNL     1       5.525   2.238  19.162  0.00  0.00    +0.000 HD
BRANCH  14  16
ATOM     16  C   UNL     1       3.529   2.772  19.239  0.00  0.00    +0.000 A 
ATOM     17  C   UNL     1       2.549   2.559  18.273  0.00  0.00    +0.000 A 
ATOM     18  C   UNL     1       1.227   2.350  18.660  0.00  0.00    +0.000 A 
ATOM     19  C   UNL     1       0.933   2.345  20.014  0.00  0.00    +0.000 A 
ATOM     20  N   UNL     1       1.859   2.508  20.984  0.00  0.00    +0.000 NA
ATOM     21  C   UNL     1       3.135   2.710  20.573  0.00  0.00    +0.000 A 
ENDBRANCH  14  16
ENDBRANCH  12  14
ENDBRANCH   1  12
TORSDOF 5
ENDMDL
MODEL 9
REMARK VINA RESULT:      -6.8      3.385      4.068
REMARK  Name = 
REMARK  6 active torsions:
REMARK  status: ('A' for Active; 'I' for Inactive)
REMARK    1  A    between atoms: C_1  and  C_2
REMARK    2  A    between atoms: C_2  and  C_14
REMARK    3  A    between atoms: N_3  and  N_4
REMARK    4  A    between atoms: N_4  and  C_5
REMARK    5  A    between atoms: C_5  and  N_7
REMARK    6  A    between atoms: N_7  and  C_8
REMARK                            x       y       z     vdW  Elec       q    Type
REMARK                         _______ _______ _______ _____ _____    ______ ____
ROOT
ATOM      1  N   UNL     1       3.856   3.819  19.754  0.00  0.00    +0.000 N 
ATOM      2  H   UNL     1       4.310   3.278  20.480  0.00  0.00    +0.000 HD
ENDROOT
BRANCH   1   5
ATOM      3  C   UNL     1       6.308   5.292  19.208  0.00  0.00    +0.000 C 
ATOM      4  C   UNL     1       5.438   4.554  18.217  0.00  0.00    +0.000 C 
ATOM      5  N   UNL     1       4.380   3.853  18.504  0.00  0.00    +0.000 NA
BRANCH   4   6
ATOM      6  C   UNL     1       5.881   4.584  16.783  0.00  0.00    +0.000 A 
ATOM      7  C   UNL     1       4.979   4.266  15.770  0.00  0.00    +0.000 A 
ATOM      8  C   UNL     1       5.420   4.303  14.452  0.00  0.00    +0.000 A 
ATOM      9  C   UNL     1       6.740   4.649  14.188  0.00  0.00    +0.000 A 
ATOM     10  C   UNL     1       7.568   4.951  15.260  0.00  0.00    +0.000 A 
ATOM     11  N   UNL     1       7.172   4.932  16.552  0.00  0.00    +0.000 NA
ENDBRANCH   4   6
ENDBRANCH   1   5
BRANCH   1  12
ATOM     12  C   UNL     1       2.678   4.506  20.035  0.00  0.00    +0.000 C 
ATOM     13  S   UNL     1       1.145   3.832  19.874  0.00  0.00    +0.000 S 
BRANCH  12  14
ATOM     14  N   UNL     1       2.949   5.830  20.375  0.00  0.00    +0.000 N 
ATOM     15  H   UNL     1       3.842   5.933  20.843  0.00  0.00    +0.000 HD
BRANCH  14  16
ATOM     16  C   UNL     1       2.468   6.977  19.704  0.00  0.00    +0.000 A 
ATOM     17  C   UNL     1       2.686   7.182  18.344  0.00  0.00    +0.000 A 
ATOM     18  C   UNL     1       2.182   8.323  17.725  0.00  0.00    +0.000 A 
ATOM     19  C   UNL     1       1.456   9.220  18.492  0.00  0.00    +0.000 A 
ATOM     20  N   UNL     1       1.188   9.040  19.804  0.00  0.00    +0.000 NA
ATOM     21  C   UNL     1       1.694   7.920  20.376  0.00  0.00    +0.000 A 
ENDBRANCH  14  16
ENDBRANCH  12  14
ENDBRANCH   1  12
TORSDOF 5
ENDMDL
