MODEL 1
REMARK VINA RESULT:      -6.9      0.000      0.000
REMARK  Name = 
REMARK  5 active torsions:
REMARK  status: ('A' for Active; 'I' for Inactive)
REMARK    1  A    between atoms: C_1  and  C_2
REMARK    2  A    between atoms: N_4  and  C_5
REMARK    3  A    between atoms: C_11  and  C_12
REMARK    4  A    between atoms: C_12  and  O_14
REMARK    5  A    between atoms: C_16  and  N_17
REMARK                            x       y       z     vdW  Elec       q    Type
REMARK                         _______ _______ _______ _____ _____    ______ ____
ROOT
ATOM      1  C   UNL     1       4.922   4.464  18.573  0.00  0.00    +0.000 C 
ATOM      2  C   UNL     1       4.229   5.742  19.059  0.00  0.00    +0.000 C 
ATOM      3  S   UNL     1       2.488   5.407  19.035  0.00  0.00    +0.000 S 
ATOM      4  O   UNL     1       1.870   5.906  20.251  0.00  0.00    +0.000 OA
ATOM      5  O   UNL     1       1.967   5.713  17.725  0.00  0.00    +0.000 OA
ATOM      6  C   UNL     1       2.620   3.652  19.186  0.00  0.00    +0.000 C 
ATOM      7  C   UNL     1       2.831   3.192  20.624  0.00  0.00    +0.000 C 
ATOM      8  C   UNL     1       3.714   1.941  20.488  0.00  0.00    +0.000 C 
ATOM      9  C   UNL     1       4.375   1.995  19.099  0.00  0.00    +0.000 C 
ATOM     10  C   UNL     1       3.903   3.298  18.441  0.00  0.00    +0.000 C 
ENDROOT
BRANCH   1  14
ATOM     11  C   UNL     1       7.462   4.979  15.784  0.00  0.00    +0.000 C 
ATOM     12  C   UNL     1       6.966   4.650  17.168  0.00  0.00    +0.000 C 
ATOM     13  O   UNL     1       7.714   4.367  18.097  0.00  0.00    +0.000 OA
ATOM     14  N   UNL     1       5.594   4.695  17.291  0.00  0.00    +0.000 N 
ATOM     15  H   UNL     1       5.072   5.124  16.532  0.00  0.00    +0.000 HD
ENDBRANCH   1  14
BRANCH   9  16
ATOM     16  N   UNL     1       3.943   0.855  18.295  0.00  0.00    +0.000 NA
ATOM     17  H   UNL     1       4.142   0.992  17.304  0.00  0.00    +0.000 HD
ATOM     18  H   UNL     1       2.927   0.758  18.354  0.00  0.00    +0.000 HD
ENDBRANCH   9  16
BRANCH   7  19
ATOM     19  C   UNL     1       1.516   2.899  21.328  0.00  0.00    +0.000 C 
ATOM     20  O   UNL     1       1.435   2.468  22.469  0.00  0.00    +0.000 OA
BRANCH  19  21
ATOM     21  O   UNL     1       0.412   3.178  20.608  0.00  0.00    +0.000 OA
ATOM     22  H   UNL     1      -0.223   2.442  20.429  0.00  0.00    +0.000 HD
ENDBRANCH  19  21
ENDBRANCH   7  19
TORSDOF 4
ENDMDL
MODEL 2
REMARK VINA RESULT:      -6.8      2.564      3.485
REMARK  Name = 
REMARK  5 active torsions:
REMARK  status: ('A' for Active; 'I' for Inactive)
REMARK    1  A    between atoms: C_1  and  C_2
REMARK    2  A    between atoms: N_4  and  C_5
REMARK    3  A    between atoms: C_11  and  C_12
REMARK    4  A    between atoms: C_12  and  O_14
REMARK    5  A    between atoms: C_16  and  N_17
REMARK                            x       y       z     vdW  Elec       q    Type
REMARK                         _______ _______ _______ _____ _____    ______ ____
ROOT
ATOM      1  C   UNL     1       4.746   5.128  18.048  0.00  0.00    +0.000 C 
ATOM      2  C   UNL     1       5.023   3.656  17.723  0.00  0.00    +0.000 C 
ATOM      3  S   UNL     1       4.262   2.706  19.014  0.00  0.00    +0.000 S 
ATOM      4  O   UNL     1       3.555   1.573  18.446  0.00  0.00    +0.000 OA
ATOM      5  O   UNL     1       5.195   2.563  20.106  0.00  0.00    +0.000 OA
ATOM      6  C   UNL     1       3.057   3.915  19.467  0.00  0.00    +0.000 C 
ATOM      7  C   UNL     1       1.836   3.912  18.553  0.00  0.00    +0.000 C 
ATOM      8  C   UNL     1       1.398   5.385  18.512  0.00  0.00    +0.000 C 
ATOM      9  C   UNL     1       2.599   6.234  18.964  0.00  0.00    +0.000 C 
ATOM     10  C   UNL     1       3.750   5.254  19.234  0.00  0.00    +0.000 C 
ENDROOT
BRANCH   1  14
ATOM     11  C   UNL     1       7.893   7.269  17.945  0.00  0.00    +0.000 C 
ATOM     12  C   UNL     1       6.586   6.696  17.462  0.00  0.00    +0.000 C 
ATOM     13  O   UNL     1       6.096   6.974  16.374  0.00  0.00    +0.000 OA
ATOM     14  N   UNL     1       5.993   5.833  18.358  0.00  0.00    +0.000 N 
ATOM     15  H   UNL     1       6.558   5.512  19.140  0.00  0.00    +0.000 HD
ENDBRANCH   1  14
BRANCH   9  16
ATOM     16  N   UNL     1       2.270   6.953  20.192  0.00  0.00    +0.000 NA
ATOM     17  H   UNL     1       3.097   7.361  20.627  0.00  0.00    +0.000 HD
ATOM     18  H   UNL     1       1.898   6.299  20.884  0.00  0.00    +0.000 HD
ENDBRANCH   9  16
BRANCH   7  19
ATOM     19  C   UNL     1       0.741   2.994  19.069  0.00  0.00    +0.000 C 
ATOM     20  O   UNL     1       0.234   2.099  18.408  0.00  0.00    +0.000 OA
BRANCH  19  21
ATOM     21  O   UNL     1       0.369   3.214  20.345  0.00  0.00    +0.000 OA
ATOM     22  H   UNL     1      -0.413   3.798  20.506  0.00  0.00    +0.000 HD
ENDBRANCH  19  21
ENDBRANCH   7  19
TORSDOF 4
ENDMDL
MODEL 3
REMARK VINA RESULT:      -6.4      1.041      1.069
REMARK  Name = 
REMARK  5 active torsions:
REMARK  status: ('A' for Active; 'I' for Inactive)
REMARK    1  A    between atoms: C_1  and  C_2
REMARK    2  A    between atoms: N_4  and  C_5
REMARK    3  A    between atoms: C_11  and  C_12
REMARK    4  A    between atoms: C_12  and  O_14
REMARK    5  A    between atoms: C_16  and  N_17
REMARK                            x       y       z     vdW  Elec       q    Type
REMARK                         _______ _______ _______ _____ _____    ______ ____
ROOT
ATOM      1  C   UNL     1       4.950   4.578  17.669  0.00  0.00    +0.000 C 
ATOM      2  C   UNL     1       4.708   5.971  18.261  0.00  0.00    +0.000 C 
ATOM      3  S   UNL     1       2.982   6.052  18.663  0.00  0.00    +0.000 S 
ATOM      4  O   UNL     1       2.806   6.654  19.972  0.00  0.00    +0.000 OA
ATOM      5  O   UNL     1       2.249   6.499  17.504  0.00  0.00    +0.000 OA
ATOM      6  C   UNL     1       2.737   4.312  18.839  0.00  0.00    +0.000 C 
ATOM      7  C   UNL     1       3.174   3.783  20.201  0.00  0.00    +0.000 C 
ATOM      8  C   UNL     1       3.685   2.364  19.902  0.00  0.00    +0.000 C 
ATOM      9  C   UNL     1       3.989   2.293  18.396  0.00  0.00    +0.000 C 
ATOM     10  C   UNL     1       3.688   3.685  17.823  0.00  0.00    +0.000 C 
ENDROOT
BRANCH   1  14
ATOM     11  C   UNL     1       6.830   4.853  14.370  0.00  0.00    +0.000 C 
ATOM     12  C   UNL     1       6.649   4.682  15.855  0.00  0.00    +0.000 C 
ATOM     13  O   UNL     1       7.588   4.558  16.634  0.00  0.00    +0.000 OA
ATOM     14  N   UNL     1       5.331   4.675  16.257  0.00  0.00    +0.000 N 
ATOM     15  H   UNL     1       4.636   4.976  15.579  0.00  0.00    +0.000 HD
ENDBRANCH   1  14
BRANCH   9  16
ATOM     16  N   UNL     1       3.126   1.303  17.757  0.00  0.00    +0.000 NA
ATOM     17  H   UNL     1       3.614   0.422  17.594  0.00  0.00    +0.000 HD
ATOM     18  H   UNL     1       2.852   1.633  16.829  0.00  0.00    +0.000 HD
ENDBRANCH   9  16
BRANCH   7  19
ATOM     19  C   UNL     1       2.034   3.789  21.207  0.00  0.00    +0.000 C 
ATOM     20  O   UNL     1       2.122   3.335  22.339  0.00  0.00    +0.000 OA
BRANCH  19  21
ATOM     21  O   UNL     1       0.897   4.367  20.773  0.00  0.00    +0.000 OA
ATOM     22  H   UNL     1       0.966   5.047  20.058  0.00  0.00    +0.000 HD
ENDBRANCH  19  21
ENDBRANCH   7  19
TORSDOF 4
ENDMDL
MODEL 4
REMARK VINA RESULT:      -6.3      2.281      3.018
REMARK  Name = 
REMARK  5 active torsions:
REMARK  status: ('A' for Active; 'I' for Inactive)
REMARK    1  A    between atoms: C_1  and  C_2
REMARK    2  A    between atoms: N_4  and  C_5
REMARK    3  A    between atoms: C_11  and  C_12
REMARK    4  A    between atoms: C_12  and  O_14
REMARK    5  A    between atoms: C_16  and  N_17
REMARK                            x       y       z     vdW  Elec       q    Type
REMARK                         _______ _______ _______ _____ _____    ______ ____
ROOT
ATOM      1  C   UNL     1       4.042   4.199  16.860  0.00  0.00    +0.000 C 
ATOM      2  C   UNL     1       2.909   3.195  16.617  0.00  0.00    +0.000 C 
ATOM      3  S   UNL     1       2.861   2.139  18.041  0.00  0.00    +0.000 S 
ATOM      4  O   UNL     1       1.487   1.937  18.463  0.00  0.00    +0.000 OA
ATOM      5  O   UNL     1       3.775   1.040  17.843  0.00  0.00    +0.000 OA
ATOM      6  C   UNL     1       3.602   3.284  19.163  0.00  0.00    +0.000 C 
ATOM      7  C   UNL     1       2.611   4.305  19.713  0.00  0.00    +0.000 C 
ATOM      8  C   UNL     1       3.454   5.576  19.901  0.00  0.00    +0.000 C 
ATOM      9  C   UNL     1       4.715   5.424  19.032  0.00  0.00    +0.000 C 
ATOM     10  C   UNL     1       4.587   4.075  18.310  0.00  0.00    +0.000 C 
ENDROOT
BRANCH   1  14
ATOM     11  C   UNL     1       6.733   4.626  14.201  0.00  0.00    +0.000 C 
ATOM     12  C   UNL     1       5.678   5.047  15.189  0.00  0.00    +0.000 C 
ATOM     13  O   UNL     1       5.342   6.215  15.352  0.00  0.00    +0.000 OA
ATOM     14  N   UNL     1       5.126   3.999  15.894  0.00  0.00    +0.000 N 
ATOM     15  H   UNL     1       5.320   3.059  15.559  0.00  0.00    +0.000 HD
ENDBRANCH   1  14
BRANCH   9  16
ATOM     16  N   UNL     1       5.907   5.417  19.877  0.00  0.00    +0.000 NA
ATOM     17  H   UNL     1       5.931   4.605  20.494  0.00  0.00    +0.000 HD
ATOM     18  H   UNL     1       5.892   6.227  20.499  0.00  0.00    +0.000 HD
ENDBRANCH   9  16
BRANCH   7  19
ATOM     19  C   UNL     1       1.971   3.836  21.010  0.00  0.00    +0.000 C 
ATOM     20  O   UNL     1       2.505   3.929  22.106  0.00  0.00    +0.000 OA
BRANCH  19  21
ATOM     21  O   UNL     1       0.732   3.324  20.879  0.00  0.00    +0.000 OA
ATOM     22  H   UNL     1       0.055   3.567  21.558  0.00  0.00    +0.000 HD
ENDBRANCH  19  21
ENDBRANCH   7  19
TORSDOF 4
ENDMDL
MODEL 5
REMARK VINA RESULT:      -6.2      1.255      1.438
REMARK  Name = 
REMARK  5 active torsions:
REMARK  status: ('A' for Active; 'I' for Inactive)
REMARK    1  A    between atoms: C_1  and  C_2
REMARK    2  A    between atoms: N_4  and  C_5
REMARK    3  A    between atoms: C_11  and  C_12
REMARK    4  A    between atoms: C_12  and  O_14
REMARK    5  A    between atoms: C_16  and  N_17
REMARK                            x       y       z     vdW  Elec       q    Type
REMARK                         _______ _______ _______ _____ _____    ______ ____
ROOT
ATOM      1  C   UNL     1       4.428   4.112  17.415  0.00  0.00    +0.000 C 
ATOM      2  C   UNL     1       3.595   5.376  17.655  0.00  0.00    +0.000 C 
ATOM      3  S   UNL     1       1.988   4.828  18.168  0.00  0.00    +0.000 S 
ATOM      4  O   UNL     1       1.529   5.622  19.293  0.00  0.00    +0.000 OA
ATOM      5  O   UNL     1       1.172   4.603  16.999  0.00  0.00    +0.000 OA
ATOM      6  C   UNL     1       2.504   3.260  18.796  0.00  0.00    +0.000 C 
ATOM      7  C   UNL     1       3.079   3.343  20.206  0.00  0.00    +0.000 C 
ATOM      8  C   UNL     1       4.157   2.247  20.232  0.00  0.00    +0.000 C 
ATOM      9  C   UNL     1       4.511   1.915  18.772  0.00  0.00    +0.000 C 
ATOM     10  C   UNL     1       3.663   2.847  17.895  0.00  0.00    +0.000 C 
ENDROOT
BRANCH   1  14
ATOM     11  C   UNL     1       6.218   3.988  14.057  0.00  0.00    +0.000 C 
ATOM     12  C   UNL     1       6.078   4.084  15.553  0.00  0.00    +0.000 C 
ATOM     13  O   UNL     1       7.033   4.236  16.307  0.00  0.00    +0.000 OA
ATOM     14  N   UNL     1       4.777   3.983  15.997  0.00  0.00    +0.000 N 
ATOM     15  H   UNL     1       4.040   4.056  15.300  0.00  0.00    +0.000 HD
ENDBRANCH   1  14
BRANCH   9  16
ATOM     16  N   UNL     1       4.174   0.525  18.478  0.00  0.00    +0.000 NA
ATOM     17  H   UNL     1       4.898   0.067  17.924  0.00  0.00    +0.000 HD
ATOM     18  H   UNL     1       3.332   0.490  17.901  0.00  0.00    +0.000 HD
ENDBRANCH   9  16
BRANCH   7  19
ATOM     19  C   UNL     1       2.014   3.136  21.270  0.00  0.00    +0.000 C 
ATOM     20  O   UNL     1       0.872   2.771  21.028  0.00  0.00    +0.000 OA
BRANCH  19  21
ATOM     21  O   UNL     1       2.422   3.357  22.534  0.00  0.00    +0.000 OA
ATOM     22  H   UNL     1       1.742   3.624  23.201  0.00  0.00    +0.000 HD
ENDBRANCH  19  21
ENDBRANCH   7  19
TORSDOF 4
ENDMDL
MODEL 6
REMARK VINA RESULT:      -6.2      1.061      1.061
REMARK  Name = 
REMARK  5 active torsions:
REMARK  status: ('A' for Active; 'I' for Inactive)
REMARK    1  A    between atoms: C_1  and  C_2
REMARK    2  A    between atoms: N_4  and  C_5
REMARK    3  A    between atoms: C_11  and  C_12
REMARK    4  A    between atoms: C_12  and  O_14
REMARK    5  A    between atoms: C_16  and  N_17
REMARK                            x       y       z     vdW  Elec       q    Type
REMARK                         _______ _______ _______ _____ _____    ______ ____
ROOT
ATOM      1  C   UNL     1       5.291   4.290  18.916  0.00  0.00    +0.000 C 
ATOM      2  C   UNL     1       4.675   5.628  19.338  0.00  0.00    +0.000 C 
ATOM      3  S   UNL     1       2.923   5.467  19.111  0.00  0.00    +0.000 S 
ATOM      4  O   UNL     1       2.222   6.021  20.254  0.00  0.00    +0.000 OA
ATOM      5  O   UNL     1       2.589   5.826  17.754  0.00  0.00    +0.000 OA
ATOM      6  C   UNL     1       2.865   3.707  19.250  0.00  0.00    +0.000 C 
ATOM      7  C   UNL     1       2.864   3.224  20.697  0.00  0.00    +0.000 C 
ATOM      8  C   UNL     1       3.631   1.893  20.644  0.00  0.00    +0.000 C 
ATOM      9  C   UNL     1       4.449   1.885  19.341  0.00  0.00    +0.000 C 
ATOM     10  C   UNL     1       4.185   3.231  18.652  0.00  0.00    +0.000 C 
ENDROOT
BRANCH   1  14
ATOM     11  C   UNL     1       6.670   4.391  15.369  0.00  0.00    +0.000 C 
ATOM     12  C   UNL     1       5.639   4.226  16.454  0.00  0.00    +0.000 C 
ATOM     13  O   UNL     1       4.474   3.916  16.228  0.00  0.00    +0.000 OA
ATOM     14  N   UNL     1       6.125   4.457  17.722  0.00  0.00    +0.000 N 
ATOM     15  H   UNL     1       7.134   4.515  17.831  0.00  0.00    +0.000 HD
ENDBRANCH   1  14
BRANCH   9  16
ATOM     16  N   UNL     1       4.003   0.795  18.477  0.00  0.00    +0.000 NA
ATOM     17  H   UNL     1       3.059   0.952  18.123  0.00  0.00    +0.000 HD
ATOM     18  H   UNL     1       3.946  -0.071  19.017  0.00  0.00    +0.000 HD
ENDBRANCH   9  16
BRANCH   7  19
ATOM     19  C   UNL     1       1.454   3.061  21.242  0.00  0.00    +0.000 C 
ATOM     20  O   UNL     1       1.198   2.569  22.332  0.00  0.00    +0.000 OA
BRANCH  19  21
ATOM     21  O   UNL     1       0.478   3.528  20.441  0.00  0.00    +0.000 OA
ATOM     22  H   UNL     1       0.586   3.416  19.464  0.00  0.00    +0.000 HD
ENDBRANCH  19  21
ENDBRANCH   7  19
TORSDOF 4
ENDMDL
MODEL 7
REMARK VINA RESULT:      -6.0      2.661      4.285
REMARK  Name = 
REMARK  5 active torsions:
REMARK  status: ('A' for Active; 'I' for Inactive)
REMARK    1  A    between atoms: C_1  and  C_2
REMARK    2  A    between atoms: N_4  and  C_5
REMARK    3  A    between atoms: C_11  and  C_12
REMARK    4  A    between atoms: C_12  and  O_14
REMARK    5  A    between atoms: C_16  and  N_17
REMARK                            x       y       z     vdW  Elec       q    Type
REMARK                         _______ _______ _______ _____ _____    ______ ____
ROOT
ATOM      1  C   UNL     1       2.848   6.276  18.978  0.00  0.00    +0.000 C 
ATOM      2  C   UNL     1       1.663   5.472  19.525  0.00  0.00    +0.000 C 
ATOM      3  S   UNL     1       1.708   3.897  18.711  0.00  0.00    +0.000 S 
ATOM      4  O   UNL     1       1.475   2.835  19.673  0.00  0.00    +0.000 OA
ATOM      5  O   UNL     1       0.978   3.986  17.470  0.00  0.00    +0.000 OA
ATOM      6  C   UNL     1       3.435   3.913  18.342  0.00  0.00    +0.000 C 
ATOM      7  C   UNL     1       4.301   3.485  19.522  0.00  0.00    +0.000 C 
ATOM      8  C   UNL     1       5.585   4.315  19.360  0.00  0.00    +0.000 C 
ATOM      9  C   UNL     1       5.253   5.502  18.440  0.00  0.00    +0.000 C 
ATOM     10  C   UNL     1       3.762   5.382  18.094  0.00  0.00    +0.000 C 
ENDROOT
BRANCH   1  14
ATOM     11  C   UNL     1       1.315   9.572  17.846  0.00  0.00    +0.000 C 
ATOM     12  C   UNL     1       1.785   8.520  18.815  0.00  0.00    +0.000 C 
ATOM     13  O   UNL     1       1.656   8.622  20.030  0.00  0.00    +0.000 OA
ATOM     14  N   UNL     1       2.378   7.432  18.209  0.00  0.00    +0.000 N 
ATOM     15  H   UNL     1       2.267   7.343  17.203  0.00  0.00    +0.000 HD
ENDBRANCH   1  14
BRANCH   9  16
ATOM     16  N   UNL     1       6.047   5.425  17.216  0.00  0.00    +0.000 NA
ATOM     17  H   UNL     1       6.833   4.782  17.314  0.00  0.00    +0.000 HD
ATOM     18  H   UNL     1       6.467   6.336  17.022  0.00  0.00    +0.000 HD
ENDBRANCH   9  16
BRANCH   7  19
ATOM     19  C   UNL     1       4.572   1.989  19.518  0.00  0.00    +0.000 C 
ATOM     20  O   UNL     1       5.207   1.410  20.387  0.00  0.00    +0.000 OA
BRANCH  19  21
ATOM     21  O   UNL     1       4.030   1.317  18.485  0.00  0.00    +0.000 OA
ATOM     22  H   UNL     1       3.080   1.050  18.552  0.00  0.00    +0.000 HD
ENDBRANCH  19  21
ENDBRANCH   7  19
TORSDOF 4
ENDMDL
MODEL 8
REMARK VINA RESULT:      -6.0      2.666      3.984
REMARK  Name = 
REMARK  5 active torsions:
REMARK  status: ('A' for Active; 'I' for Inactive)
REMARK    1  A    between atoms: C_1  and  C_2
REMARK    2  A    between atoms: N_4  and  C_5
REMARK    3  A    between atoms: C_11  and  C_12
REMARK    4  A    between atoms: C_12  and  O_14
REMARK    5  A    between atoms: C_16  and  N_17
REMARK                            x       y       z     vdW  Elec       q    Type
REMARK                         _______ _______ _______ _____ _____    ______ ____
ROOT
ATOM      1  C   UNL     1       2.821   6.174  19.584  0.00  0.00    +0.000 C 
ATOM      2  C   UNL     1       2.261   5.681  20.923  0.00  0.00    +0.000 C 
ATOM      3  S   UNL     1       1.878   3.963  20.704  0.00  0.00    +0.000 S 
ATOM      4  O   UNL     1       2.336   3.202  21.852  0.00  0.00    +0.000 OA
ATOM      5  O   UNL     1       0.537   3.842  20.184  0.00  0.00    +0.000 OA
ATOM      6  C   UNL     1       3.014   3.672  19.383  0.00  0.00    +0.000 C 
ATOM      7  C   UNL     1       4.442   3.436  19.866  0.00  0.00    +0.000 C 
ATOM      8  C   UNL     1       5.314   4.035  18.750  0.00  0.00    +0.000 C 
ATOM      9  C   UNL     1       4.429   4.997  17.940  0.00  0.00    +0.000 C 
ATOM     10  C   UNL     1       3.047   4.986  18.608  0.00  0.00    +0.000 C 
ENDROOT
BRANCH   1  14
ATOM     11  C   UNL     1       1.310   9.095  17.665  0.00  0.00    +0.000 C 
ATOM     12  C   UNL     1       2.381   8.142  18.128  0.00  0.00    +0.000 C 
ATOM     13  O   UNL     1       3.552   8.231  17.777  0.00  0.00    +0.000 OA
ATOM     14  N   UNL     1       1.921   7.161  18.979  0.00  0.00    +0.000 N 
ATOM     15  H   UNL     1       0.989   7.279  19.366  0.00  0.00    +0.000 HD
ENDBRANCH   1  14
BRANCH   9  16
ATOM     16  N   UNL     1       4.311   4.528  16.562  0.00  0.00    +0.000 NA
ATOM     17  H   UNL     1       5.070   4.876  15.976  0.00  0.00    +0.000 HD
ATOM     18  H   UNL     1       3.456   4.903  16.144  0.00  0.00    +0.000 HD
ENDBRANCH   9  16
BRANCH   7  19
ATOM     19  C   UNL     1       4.728   1.962  20.099  0.00  0.00    +0.000 C 
ATOM     20  O   UNL     1       5.200   1.515  21.135  0.00  0.00    +0.000 OA
BRANCH  19  21
ATOM     21  O   UNL     1       4.394   1.150  19.078  0.00  0.00    +0.000 OA
ATOM     22  H   UNL     1       4.356   1.539  18.169  0.00  0.00    +0.000 HD
ENDBRANCH  19  21
ENDBRANCH   7  19
TORSDOF 4
ENDMDL
MODEL 9
REMARK VINA RESULT:      -5.9      3.387      4.934
REMARK  Name = 
REMARK  5 active torsions:
REMARK  status: ('A' for Active; 'I' for Inactive)
REMARK    1  A    between atoms: C_1  and  C_2
REMARK    2  A    between atoms: N_4  and  C_5
REMARK    3  A    between atoms: C_11  and  C_12
REMARK    4  A    between atoms: C_12  and  O_14
REMARK    5  A    between atoms: C_16  and  N_17
REMARK                            x       y       z     vdW  Elec       q    Type
REMARK                         _______ _______ _______ _____ _____    ______ ____
ROOT
ATOM      1  C   UNL     1       1.854   6.120  20.134  0.00  0.00    +0.000 C 
ATOM      2  C   UNL     1       2.712   6.539  18.934  0.00  0.00    +0.000 C 
ATOM      3  S   UNL     1       4.013   5.341  18.806  0.00  0.00    +0.000 S 
ATOM      4  O   UNL     1       4.195   4.952  17.419  0.00  0.00    +0.000 OA
ATOM      5  O   UNL     1       5.115   5.751  19.641  0.00  0.00    +0.000 OA
ATOM      6  C   UNL     1       3.157   4.028  19.620  0.00  0.00    +0.000 C 
ATOM      7  C   UNL     1       2.192   3.286  18.701  0.00  0.00    +0.000 C 
ATOM      8  C   UNL     1       1.041   2.868  19.631  0.00  0.00    +0.000 C 
ATOM      9  C   UNL     1       1.113   3.761  20.882  0.00  0.00    +0.000 C 
ATOM     10  C   UNL     1       2.288   4.725  20.663  0.00  0.00    +0.000 C 
ENDROOT
BRANCH   1  14
ATOM     11  C   UNL     1       1.481   9.198  22.343  0.00  0.00    +0.000 C 
ATOM     12  C   UNL     1       1.200   8.278  21.185  0.00  0.00    +0.000 C 
ATOM     13  O   UNL     1       0.385   8.537  20.307  0.00  0.00    +0.000 OA
ATOM     14  N   UNL     1       1.942   7.116  21.205  0.00  0.00    +0.000 N 
ATOM     15  H   UNL     1       2.723   7.074  21.854  0.00  0.00    +0.000 HD
ENDBRANCH   1  14
BRANCH   9  16
ATOM     16  N   UNL     1       1.364   2.944  22.066  0.00  0.00    +0.000 NA
ATOM     17  H   UNL     1       1.871   2.089  21.838  0.00  0.00    +0.000 HD
ATOM     18  H   UNL     1       0.475   2.631  22.462  0.00  0.00    +0.000 HD
ENDBRANCH   9  16
BRANCH   7  19
ATOM     19  C   UNL     1       2.852   2.096  18.024  0.00  0.00    +0.000 C 
ATOM     20  O   UNL     1       3.806   1.490  18.490  0.00  0.00    +0.000 OA
BRANCH  19  21
ATOM     21  O   UNL     1       2.289   1.721  16.859  0.00  0.00    +0.000 OA
ATOM     22  H   UNL     1       1.328   1.486  16.862  0.00  0.00    +0.000 HD
ENDBRANCH  19  21
ENDBRANCH   7  19
TORSDOF 4
ENDMDL
