MODEL 1
REMARK VINA RESULT:      -7.6      0.000      0.000
REMARK  Name = 
REMARK  6 active torsions:
REMARK  status: ('A' for Active; 'I' for Inactive)
REMARK    1  A    between atoms: C_1  and  O_2
REMARK    2  A    between atoms: O_2  and  C_3
REMARK    3  A    between atoms: C_7  and  N_8
REMARK    4  A    between atoms: C_9  and  C_11
REMARK    5  A    between atoms: C_20  and  C_21
REMARK    6  A    between atoms: C_24  and  C_25
REMARK                            x       y       z     vdW  Elec       q    Type
REMARK                         _______ _______ _______ _____ _____    ______ ____
ROOT
ATOM      1  C   UNL     1      -1.274  11.124  19.729  0.00  0.00    +0.000 C 
ATOM      2  C   UNL     1      -0.935   9.956  20.693  0.00  0.00    +0.000 C 
ATOM      3  C   UNL     1       0.545   9.601  20.899  0.00  0.00    +0.000 C 
ATOM      4  N   UNL     1       1.322   9.860  19.704  0.00  0.00    +0.000 N 
ATOM      5  C   UNL     1       1.924   8.892  18.937  0.00  0.00    +0.000 A 
ATOM      6  N   UNL     1       2.337   9.055  17.690  0.00  0.00    +0.000 NA
ATOM      7  N   UNL     1       2.926   7.923  17.145  0.00  0.00    +0.000 NA
ATOM      8  C   UNL     1       2.908   6.917  17.987  0.00  0.00    +0.000 A 
ATOM      9  N   UNL     1       3.403   5.624  17.707  0.00  0.00    +0.000 N 
ATOM     10  C   UNL     1       4.393   5.307  16.763  0.00  0.00    +0.000 A 
ATOM     11  C   UNL     1       5.190   6.296  15.975  0.00  0.00    +0.000 C 
ATOM     12  C   UNL     1       4.570   3.937  16.731  0.00  0.00    +0.000 A 
ATOM     13  C   UNL     1       3.712   3.371  17.681  0.00  0.00    +0.000 A 
ATOM     14  C   UNL     1       2.999   4.396  18.272  0.00  0.00    +0.000 A 
ATOM     15  C   UNL     1       1.905   4.222  19.272  0.00  0.00    +0.000 C 
ATOM     16  S   UNL     1       2.286   7.308  19.520  0.00  0.00    +0.000 S 
ATOM     17  C   UNL     1       1.220  11.217  19.201  0.00  0.00    +0.000 C 
ATOM     18  C   UNL     1      -0.195  11.435  18.681  0.00  0.00    +0.000 C 
ENDROOT
BRANCH   1  20
ATOM     19  N   UNL     1      -2.133  12.155  21.783  0.00  0.00    +0.000 N 
ATOM     20  C   UNL     1      -1.742  12.398  20.464  0.00  0.00    +0.000 C 
ATOM     21  O   UNL     1      -1.747  13.489  19.905  0.00  0.00    +0.000 OA
ATOM     22  H   UNL     1      -2.310  11.196  22.047  0.00  0.00    +0.000 HD
BRANCH  19  27
ATOM     23  C   UNL     1      -1.537  14.716  24.431  0.00  0.00    +0.000 A 
ATOM     24  C   UNL     1      -2.848  15.062  24.762  0.00  0.00    +0.000 A 
ATOM     25  C   UNL     1      -3.922  14.477  24.103  0.00  0.00    +0.000 A 
ATOM     26  C   UNL     1      -3.697  13.512  23.119  0.00  0.00    +0.000 A 
ATOM     27  C   UNL     1      -2.397  13.130  22.782  0.00  0.00    +0.000 A 
ATOM     28  C   UNL     1      -1.312  13.766  23.422  0.00  0.00    +0.000 A 
BRANCH  23  30
ATOM     29  C   UNL     1      -1.019  16.068  26.340  0.00  0.00    +0.000 C 
ATOM     30  O   UNL     1      -0.601  15.373  25.177  0.00  0.00    +0.000 OA
ENDBRANCH  23  30
ENDBRANCH  19  27
ENDBRANCH   1  20
TORSDOF 3
ENDMDL
MODEL 2
REMARK VINA RESULT:      -7.6      1.114      1.388
REMARK  Name = 
REMARK  6 active torsions:
REMARK  status: ('A' for Active; 'I' for Inactive)
REMARK    1  A    between atoms: C_1  and  O_2
REMARK    2  A    between atoms: O_2  and  C_3
REMARK    3  A    between atoms: C_7  and  N_8
REMARK    4  A    between atoms: C_9  and  C_11
REMARK    5  A    between atoms: C_20  and  C_21
REMARK    6  A    between atoms: C_24  and  C_25
REMARK                            x       y       z     vdW  Elec       q    Type
REMARK                         _______ _______ _______ _____ _____    ______ ____
ROOT
ATOM      1  C   UNL     1      -0.864  10.647  19.710  0.00  0.00    +0.000 C 
ATOM      2  C   UNL     1      -0.617   9.664  20.884  0.00  0.00    +0.000 C 
ATOM      3  C   UNL     1       0.809   9.128  21.084  0.00  0.00    +0.000 C 
ATOM      4  N   UNL     1       1.511   9.010  19.822  0.00  0.00    +0.000 N 
ATOM      5  C   UNL     1       1.901   7.822  19.252  0.00  0.00    +0.000 A 
ATOM      6  N   UNL     1       2.226   7.657  17.980  0.00  0.00    +0.000 NA
ATOM      7  N   UNL     1       2.597   6.358  17.663  0.00  0.00    +0.000 NA
ATOM      8  C   UNL     1       2.506   5.563  18.702  0.00  0.00    +0.000 A 
ATOM      9  N   UNL     1       2.784   4.178  18.683  0.00  0.00    +0.000 N 
ATOM     10  C   UNL     1       3.635   3.521  17.779  0.00  0.00    +0.000 A 
ATOM     11  C   UNL     1       4.496   4.188  16.755  0.00  0.00    +0.000 C 
ATOM     12  C   UNL     1       3.609   2.163  18.035  0.00  0.00    +0.000 A 
ATOM     13  C   UNL     1       2.763   1.949  19.128  0.00  0.00    +0.000 A 
ATOM     14  C   UNL     1       2.258   3.173  19.521  0.00  0.00    +0.000 A 
ATOM     15  C   UNL     1       1.239   3.384  20.590  0.00  0.00    +0.000 C 
ATOM     16  S   UNL     1       2.079   6.354  20.145  0.00  0.00    +0.000 S 
ATOM     17  C   UNL     1       1.563  10.233  19.044  0.00  0.00    +0.000 C 
ATOM     18  C   UNL     1       0.155  10.561  18.563  0.00  0.00    +0.000 C 
ENDROOT
BRANCH   1  20
ATOM     19  N   UNL     1      -1.897  12.200  21.304  0.00  0.00    +0.000 N 
ATOM     20  C   UNL     1      -1.080  12.103  20.175  0.00  0.00    +0.000 C 
ATOM     21  O   UNL     1      -0.562  13.043  19.583  0.00  0.00    +0.000 OA
ATOM     22  H   UNL     1      -2.448  11.390  21.550  0.00  0.00    +0.000 HD
BRANCH  19  27
ATOM     23  C   UNL     1      -1.395  14.756  23.975  0.00  0.00    +0.000 A 
ATOM     24  C   UNL     1      -2.460  15.620  23.716  0.00  0.00    +0.000 A 
ATOM     25  C   UNL     1      -3.324  15.379  22.655  0.00  0.00    +0.000 A 
ATOM     26  C   UNL     1      -3.149  14.249  21.854  0.00  0.00    +0.000 A 
ATOM     27  C   UNL     1      -2.105  13.356  22.102  0.00  0.00    +0.000 A 
ATOM     28  C   UNL     1      -1.205  13.635  23.151  0.00  0.00    +0.000 A 
BRANCH  23  30
ATOM     29  C   UNL     1      -1.299  15.742  26.157  0.00  0.00    +0.000 C 
ATOM     30  O   UNL     1      -0.649  15.129  25.056  0.00  0.00    +0.000 OA
ENDBRANCH  23  30
ENDBRANCH  19  27
ENDBRANCH   1  20
TORSDOF 3
ENDMDL
MODEL 3
REMARK VINA RESULT:      -7.5      1.411      2.046
REMARK  Name = 
REMARK  6 active torsions:
REMARK  status: ('A' for Active; 'I' for Inactive)
REMARK    1  A    between atoms: C_1  and  O_2
REMARK    2  A    between atoms: O_2  and  C_3
REMARK    3  A    between atoms: C_7  and  N_8
REMARK    4  A    between atoms: C_9  and  C_11
REMARK    5  A    between atoms: C_20  and  C_21
REMARK    6  A    between atoms: C_24  and  C_25
REMARK                            x       y       z     vdW  Elec       q    Type
REMARK                         _______ _______ _______ _____ _____    ______ ____
ROOT
ATOM      1  C   UNL     1      -0.770  10.432  19.755  0.00  0.00    +0.000 C 
ATOM      2  C   UNL     1      -0.500   9.472  20.943  0.00  0.00    +0.000 C 
ATOM      3  C   UNL     1       0.926   8.927  21.118  0.00  0.00    +0.000 C 
ATOM      4  N   UNL     1       1.594   8.776  19.841  0.00  0.00    +0.000 N 
ATOM      5  C   UNL     1       1.958   7.572  19.286  0.00  0.00    +0.000 A 
ATOM      6  N   UNL     1       2.248   7.378  18.010  0.00  0.00    +0.000 NA
ATOM      7  N   UNL     1       2.600   6.070  17.711  0.00  0.00    +0.000 NA
ATOM      8  C   UNL     1       2.529   5.297  18.769  0.00  0.00    +0.000 A 
ATOM      9  N   UNL     1       2.795   3.910  18.772  0.00  0.00    +0.000 N 
ATOM     10  C   UNL     1       3.616   3.226  17.860  0.00  0.00    +0.000 A 
ATOM     11  C   UNL     1       4.456   3.864  16.800  0.00  0.00    +0.000 C 
ATOM     12  C   UNL     1       3.586   1.874  18.145  0.00  0.00    +0.000 A 
ATOM     13  C   UNL     1       2.766   1.691  19.265  0.00  0.00    +0.000 A 
ATOM     14  C   UNL     1       2.282   2.927  19.644  0.00  0.00    +0.000 A 
ATOM     15  C   UNL     1       1.293   3.170  20.735  0.00  0.00    +0.000 C 
ATOM     16  S   UNL     1       2.147   6.123  20.205  0.00  0.00    +0.000 S 
ATOM     17  C   UNL     1       1.635   9.982  19.036  0.00  0.00    +0.000 C 
ATOM     18  C   UNL     1       0.219  10.312  18.585  0.00  0.00    +0.000 C 
ENDROOT
BRANCH   1  20
ATOM     19  N   UNL     1      -0.665  12.107  21.544  0.00  0.00    +0.000 N 
ATOM     20  C   UNL     1      -0.961  11.899  20.195  0.00  0.00    +0.000 C 
ATOM     21  O   UNL     1      -1.331  12.757  19.403  0.00  0.00    +0.000 OA
ATOM     22  H   UNL     1      -0.605  11.293  22.139  0.00  0.00    +0.000 HD
BRANCH  19  27
ATOM     23  C   UNL     1      -1.218  14.872  23.989  0.00  0.00    +0.000 A 
ATOM     24  C   UNL     1      -0.298  15.815  23.532  0.00  0.00    +0.000 A 
ATOM     25  C   UNL     1       0.518  15.538  22.442  0.00  0.00    +0.000 A 
ATOM     26  C   UNL     1       0.401  14.317  21.775  0.00  0.00    +0.000 A 
ATOM     27  C   UNL     1      -0.525  13.361  22.198  0.00  0.00    +0.000 A 
ATOM     28  C   UNL     1      -1.314  13.633  23.335  0.00  0.00    +0.000 A 
BRANCH  23  30
ATOM     29  C   UNL     1      -1.260  15.734  26.224  0.00  0.00    +0.000 C 
ATOM     30  O   UNL     1      -1.946  15.303  25.061  0.00  0.00    +0.000 OA
ENDBRANCH  23  30
ENDBRANCH  19  27
ENDBRANCH   1  20
TORSDOF 3
ENDMDL
MODEL 4
REMARK VINA RESULT:      -7.4      1.503      2.100
REMARK  Name = 
REMARK  6 active torsions:
REMARK  status: ('A' for Active; 'I' for Inactive)
REMARK    1  A    between atoms: C_1  and  O_2
REMARK    2  A    between atoms: O_2  and  C_3
REMARK    3  A    between atoms: C_7  and  N_8
REMARK    4  A    between atoms: C_9  and  C_11
REMARK    5  A    between atoms: C_20  and  C_21
REMARK    6  A    between atoms: C_24  and  C_25
REMARK                            x       y       z     vdW  Elec       q    Type
REMARK                         _______ _______ _______ _____ _____    ______ ____
ROOT
ATOM      1  C   UNL     1      -0.758  10.419  20.040  0.00  0.00    +0.000 C 
ATOM      2  C   UNL     1      -0.499   9.394  21.176  0.00  0.00    +0.000 C 
ATOM      3  C   UNL     1       0.922   8.831  21.325  0.00  0.00    +0.000 C 
ATOM      4  N   UNL     1       1.593   8.743  20.044  0.00  0.00    +0.000 N 
ATOM      5  C   UNL     1       1.950   7.568  19.427  0.00  0.00    +0.000 A 
ATOM      6  N   UNL     1       2.244   7.441  18.143  0.00  0.00    +0.000 NA
ATOM      7  N   UNL     1       2.587   6.147  17.775  0.00  0.00    +0.000 NA
ATOM      8  C   UNL     1       2.507   5.320  18.790  0.00  0.00    +0.000 A 
ATOM      9  N   UNL     1       2.763   3.932  18.719  0.00  0.00    +0.000 N 
ATOM     10  C   UNL     1       3.582   3.292  17.775  0.00  0.00    +0.000 A 
ATOM     11  C   UNL     1       4.430   3.979  16.754  0.00  0.00    +0.000 C 
ATOM     12  C   UNL     1       3.540   1.927  17.988  0.00  0.00    +0.000 A 
ATOM     13  C   UNL     1       2.716   1.690  19.093  0.00  0.00    +0.000 A 
ATOM     14  C   UNL     1       2.239   2.908  19.536  0.00  0.00    +0.000 A 
ATOM     15  C   UNL     1       1.249   3.100  20.636  0.00  0.00    +0.000 C 
ATOM     16  S   UNL     1       2.126   6.070  20.267  0.00  0.00    +0.000 S 
ATOM     17  C   UNL     1       1.646   9.990  19.305  0.00  0.00    +0.000 C 
ATOM     18  C   UNL     1       0.234  10.354  18.868  0.00  0.00    +0.000 C 
ENDROOT
BRANCH   1  20
ATOM     19  N   UNL     1      -1.872  11.957  21.593  0.00  0.00    +0.000 N 
ATOM     20  C   UNL     1      -0.940  11.862  20.557  0.00  0.00    +0.000 C 
ATOM     21  O   UNL     1      -0.305  12.794  20.077  0.00  0.00    +0.000 OA
ATOM     22  H   UNL     1      -2.494  11.173  21.733  0.00  0.00    +0.000 HD
BRANCH  19  27
ATOM     23  C   UNL     1      -3.620  14.840  23.192  0.00  0.00    +0.000 A 
ATOM     24  C   UNL     1      -2.620  15.316  24.041  0.00  0.00    +0.000 A 
ATOM     25  C   UNL     1      -1.387  14.679  24.108  0.00  0.00    +0.000 A 
ATOM     26  C   UNL     1      -1.128  13.571  23.300  0.00  0.00    +0.000 A 
ATOM     27  C   UNL     1      -2.102  13.085  22.425  0.00  0.00    +0.000 A 
ATOM     28  C   UNL     1      -3.367  13.709  22.400  0.00  0.00    +0.000 A 
BRANCH  23  30
ATOM     29  C   UNL     1      -5.043  16.337  24.406  0.00  0.00    +0.000 C 
ATOM     30  O   UNL     1      -4.765  15.582  23.238  0.00  0.00    +0.000 OA
ENDBRANCH  23  30
ENDBRANCH  19  27
ENDBRANCH   1  20
TORSDOF 3
ENDMDL
MODEL 5
REMARK VINA RESULT:      -7.4      3.221     10.804
REMARK  Name = 
REMARK  6 active torsions:
REMARK  status: ('A' for Active; 'I' for Inactive)
REMARK    1  A    between atoms: C_1  and  O_2
REMARK    2  A    between atoms: O_2  and  C_3
REMARK    3  A    between atoms: C_7  and  N_8
REMARK    4  A    between atoms: C_9  and  C_11
REMARK    5  A    between atoms: C_20  and  C_21
REMARK    6  A    between atoms: C_24  and  C_25
REMARK                            x       y       z     vdW  Elec       q    Type
REMARK                         _______ _______ _______ _____ _____    ______ ____
ROOT
ATOM      1  C   UNL     1       0.497   9.478  19.314  0.00  0.00    +0.000 C 
ATOM      2  C   UNL     1      -0.377  10.532  18.585  0.00  0.00    +0.000 C 
ATOM      3  C   UNL     1      -0.200  12.007  18.974  0.00  0.00    +0.000 C 
ATOM      4  N   UNL     1       0.164  12.146  20.370  0.00  0.00    +0.000 N 
ATOM      5  C   UNL     1      -0.631  12.718  21.333  0.00  0.00    +0.000 A 
ATOM      6  N   UNL     1      -0.482  12.556  22.638  0.00  0.00    +0.000 NA
ATOM      7  N   UNL     1      -1.411  13.256  23.395  0.00  0.00    +0.000 NA
ATOM      8  C   UNL     1      -2.266  13.901  22.636  0.00  0.00    +0.000 A 
ATOM      9  N   UNL     1      -3.346  14.673  23.117  0.00  0.00    +0.000 N 
ATOM     10  C   UNL     1      -3.423  15.288  24.378  0.00  0.00    +0.000 A 
ATOM     11  C   UNL     1      -2.322  15.340  25.387  0.00  0.00    +0.000 C 
ATOM     12  C   UNL     1      -4.653  15.905  24.509  0.00  0.00    +0.000 A 
ATOM     13  C   UNL     1      -5.358  15.712  23.316  0.00  0.00    +0.000 A 
ATOM     14  C   UNL     1      -4.566  14.961  22.470  0.00  0.00    +0.000 A 
ATOM     15  C   UNL     1      -4.977  14.447  21.131  0.00  0.00    +0.000 C 
ATOM     16  S   UNL     1      -1.931  13.796  20.973  0.00  0.00    +0.000 S 
ATOM     17  C   UNL     1       1.346  11.400  20.761  0.00  0.00    +0.000 C 
ATOM     18  C   UNL     1       1.025   9.913  20.690  0.00  0.00    +0.000 C 
ENDROOT
BRANCH   1  20
ATOM     19  N   UNL     1       2.096   7.670  18.876  0.00  0.00    +0.000 N 
ATOM     20  C   UNL     1       1.620   8.904  18.425  0.00  0.00    +0.000 C 
ATOM     21  O   UNL     1       2.016   9.505  17.434  0.00  0.00    +0.000 OA
ATOM     22  H   UNL     1       1.863   7.399  19.821  0.00  0.00    +0.000 HD
BRANCH  19  27
ATOM     23  C   UNL     1       3.493   4.501  17.489  0.00  0.00    +0.000 A 
ATOM     24  C   UNL     1       4.609   4.983  16.803  0.00  0.00    +0.000 A 
ATOM     25  C   UNL     1       4.888   6.344  16.775  0.00  0.00    +0.000 A 
ATOM     26  C   UNL     1       4.066   7.240  17.461  0.00  0.00    +0.000 A 
ATOM     27  C   UNL     1       2.955   6.785  18.172  0.00  0.00    +0.000 A 
ATOM     28  C   UNL     1       2.652   5.407  18.154  0.00  0.00    +0.000 A 
BRANCH  23  30
ATOM     29  C   UNL     1       2.186   2.542  17.930  0.00  0.00    +0.000 C 
ATOM     30  O   UNL     1       3.367   3.143  17.426  0.00  0.00    +0.000 OA
ENDBRANCH  23  30
ENDBRANCH  19  27
ENDBRANCH   1  20
TORSDOF 3
ENDMDL
MODEL 6
REMARK VINA RESULT:      -7.3      3.170     10.673
REMARK  Name = 
REMARK  6 active torsions:
REMARK  status: ('A' for Active; 'I' for Inactive)
REMARK    1  A    between atoms: C_1  and  O_2
REMARK    2  A    between atoms: O_2  and  C_3
REMARK    3  A    between atoms: C_7  and  N_8
REMARK    4  A    between atoms: C_9  and  C_11
REMARK    5  A    between atoms: C_20  and  C_21
REMARK    6  A    between atoms: C_24  and  C_25
REMARK                            x       y       z     vdW  Elec       q    Type
REMARK                         _______ _______ _______ _____ _____    ______ ____
ROOT
ATOM      1  C   UNL     1       0.437   9.524  19.276  0.00  0.00    +0.000 C 
ATOM      2  C   UNL     1      -0.442  10.561  18.527  0.00  0.00    +0.000 C 
ATOM      3  C   UNL     1      -0.274  12.043  18.893  0.00  0.00    +0.000 C 
ATOM      4  N   UNL     1       0.086  12.206  20.287  0.00  0.00    +0.000 N 
ATOM      5  C   UNL     1      -0.715  12.789  21.239  0.00  0.00    +0.000 A 
ATOM      6  N   UNL     1      -0.569  12.649  22.547  0.00  0.00    +0.000 NA
ATOM      7  N   UNL     1      -1.504  13.355  23.291  0.00  0.00    +0.000 NA
ATOM      8  C   UNL     1      -2.360  13.983  22.519  0.00  0.00    +0.000 A 
ATOM      9  N   UNL     1      -3.446  14.757  22.985  0.00  0.00    +0.000 N 
ATOM     10  C   UNL     1      -3.529  15.392  24.235  0.00  0.00    +0.000 A 
ATOM     11  C   UNL     1      -2.431  15.466  25.247  0.00  0.00    +0.000 C 
ATOM     12  C   UNL     1      -4.763  16.003  24.354  0.00  0.00    +0.000 A 
ATOM     13  C   UNL     1      -5.465  15.788  23.162  0.00  0.00    +0.000 A 
ATOM     14  C   UNL     1      -4.666  15.027  22.331  0.00  0.00    +0.000 A 
ATOM     15  C   UNL     1      -5.070  14.490  20.999  0.00  0.00    +0.000 C 
ATOM     16  S   UNL     1      -2.020  13.853  20.859  0.00  0.00    +0.000 S 
ATOM     17  C   UNL     1       1.271  11.474  20.693  0.00  0.00    +0.000 C 
ATOM     18  C   UNL     1       0.959   9.984  20.646  0.00  0.00    +0.000 C 
ENDROOT
BRANCH   1  20
ATOM     19  N   UNL     1       2.068   7.734  18.888  0.00  0.00    +0.000 N 
ATOM     20  C   UNL     1       1.565   8.942  18.399  0.00  0.00    +0.000 C 
ATOM     21  O   UNL     1       1.944   9.517  17.385  0.00  0.00    +0.000 OA
ATOM     22  H   UNL     1       1.847   7.490  19.843  0.00  0.00    +0.000 HD
BRANCH  19  27
ATOM     23  C   UNL     1       5.073   6.463  17.077  0.00  0.00    +0.000 A 
ATOM     24  C   UNL     1       4.707   5.134  16.860  0.00  0.00    +0.000 A 
ATOM     25  C   UNL     1       3.491   4.650  17.326  0.00  0.00    +0.000 A 
ATOM     26  C   UNL     1       2.609   5.502  17.993  0.00  0.00    +0.000 A 
ATOM     27  C   UNL     1       2.940   6.842  18.208  0.00  0.00    +0.000 A 
ATOM     28  C   UNL     1       4.198   7.311  17.774  0.00  0.00    +0.000 A 
BRANCH  23  30
ATOM     29  C   UNL     1       7.264   7.381  17.388  0.00  0.00    +0.000 C 
ATOM     30  O   UNL     1       6.292   6.780  16.549  0.00  0.00    +0.000 OA
ENDBRANCH  23  30
ENDBRANCH  19  27
ENDBRANCH   1  20
TORSDOF 3
ENDMDL
MODEL 7
REMARK VINA RESULT:      -7.3      2.830      3.718
REMARK  Name = 
REMARK  6 active torsions:
REMARK  status: ('A' for Active; 'I' for Inactive)
REMARK    1  A    between atoms: C_1  and  O_2
REMARK    2  A    between atoms: O_2  and  C_3
REMARK    3  A    between atoms: C_7  and  N_8
REMARK    4  A    between atoms: C_9  and  C_11
REMARK    5  A    between atoms: C_20  and  C_21
REMARK    6  A    between atoms: C_24  and  C_25
REMARK                            x       y       z     vdW  Elec       q    Type
REMARK                         _______ _______ _______ _____ _____    ______ ____
ROOT
ATOM      1  C   UNL     1      -0.639  10.514  19.647  0.00  0.00    +0.000 C 
ATOM      2  C   UNL     1      -0.455   9.527  20.829  0.00  0.00    +0.000 C 
ATOM      3  C   UNL     1       0.944   8.937  21.061  0.00  0.00    +0.000 C 
ATOM      4  N   UNL     1       1.668   8.785  19.815  0.00  0.00    +0.000 N 
ATOM      5  C   UNL     1       2.022   7.581  19.257  0.00  0.00    +0.000 A 
ATOM      6  N   UNL     1       2.367   7.399  17.992  0.00  0.00    +0.000 NA
ATOM      7  N   UNL     1       2.694   6.086  17.687  0.00  0.00    +0.000 NA
ATOM      8  C   UNL     1       2.550   5.298  18.727  0.00  0.00    +0.000 A 
ATOM      9  N   UNL     1       2.774   3.904  18.717  0.00  0.00    +0.000 N 
ATOM     10  C   UNL     1       3.617   3.210  17.834  0.00  0.00    +0.000 A 
ATOM     11  C   UNL     1       4.525   3.839  16.826  0.00  0.00    +0.000 C 
ATOM     12  C   UNL     1       3.533   1.855  18.093  0.00  0.00    +0.000 A 
ATOM     13  C   UNL     1       2.656   1.678  19.169  0.00  0.00    +0.000 A 
ATOM     14  C   UNL     1       2.191   2.923  19.547  0.00  0.00    +0.000 A 
ATOM     15  C   UNL     1       1.159   3.178  20.594  0.00  0.00    +0.000 C 
ATOM     16  S   UNL     1       2.124   6.111  20.158  0.00  0.00    +0.000 S 
ATOM     17  C   UNL     1       1.783  10.003  19.034  0.00  0.00    +0.000 C 
ATOM     18  C   UNL     1       0.400  10.383  18.523  0.00  0.00    +0.000 C 
ENDROOT
BRANCH   1  20
ATOM     19  N   UNL     1       0.249  12.801  19.700  0.00  0.00    +0.000 N 
ATOM     20  C   UNL     1      -0.807  11.979  20.103  0.00  0.00    +0.000 C 
ATOM     21  O   UNL     1      -1.786  12.336  20.747  0.00  0.00    +0.000 OA
ATOM     22  H   UNL     1       1.098  12.349  19.390  0.00  0.00    +0.000 HD
BRANCH  19  27
ATOM     23  C   UNL     1      -0.308  16.371  18.771  0.00  0.00    +0.000 A 
ATOM     24  C   UNL     1       0.335  17.021  19.825  0.00  0.00    +0.000 A 
ATOM     25  C   UNL     1       0.927  16.292  20.849  0.00  0.00    +0.000 A 
ATOM     26  C   UNL     1       0.908  14.897  20.815  0.00  0.00    +0.000 A 
ATOM     27  C   UNL     1       0.290  14.219  19.763  0.00  0.00    +0.000 A 
ATOM     28  C   UNL     1      -0.351  14.968  18.753  0.00  0.00    +0.000 A 
BRANCH  23  30
ATOM     29  C   UNL     1       0.036  18.162  17.217  0.00  0.00    +0.000 C 
ATOM     30  O   UNL     1      -0.828  17.230  17.845  0.00  0.00    +0.000 OA
ENDBRANCH  23  30
ENDBRANCH  19  27
ENDBRANCH   1  20
TORSDOF 3
ENDMDL
MODEL 8
REMARK VINA RESULT:      -7.3      3.216     10.561
REMARK  Name = 
REMARK  6 active torsions:
REMARK  status: ('A' for Active; 'I' for Inactive)
REMARK    1  A    between atoms: C_1  and  O_2
REMARK    2  A    between atoms: O_2  and  C_3
REMARK    3  A    between atoms: C_7  and  N_8
REMARK    4  A    between atoms: C_9  and  C_11
REMARK    5  A    between atoms: C_20  and  C_21
REMARK    6  A    between atoms: C_24  and  C_25
REMARK                            x       y       z     vdW  Elec       q    Type
REMARK                         _______ _______ _______ _____ _____    ______ ____
ROOT
ATOM      1  C   UNL     1       0.620   8.919  18.936  0.00  0.00    +0.000 C 
ATOM      2  C   UNL     1      -0.272   9.911  18.144  0.00  0.00    +0.000 C 
ATOM      3  C   UNL     1      -0.310  11.374  18.611  0.00  0.00    +0.000 C 
ATOM      4  N   UNL     1      -0.137  11.475  20.046  0.00  0.00    +0.000 N 
ATOM      5  C   UNL     1      -1.103  11.906  20.923  0.00  0.00    +0.000 A 
ATOM      6  N   UNL     1      -1.098  11.692  22.229  0.00  0.00    +0.000 NA
ATOM      7  N   UNL     1      -2.185  12.247  22.889  0.00  0.00    +0.000 NA
ATOM      8  C   UNL     1      -3.007  12.837  22.054  0.00  0.00    +0.000 A 
ATOM      9  N   UNL     1      -4.218  13.462  22.424  0.00  0.00    +0.000 N 
ATOM     10  C   UNL     1      -4.517  13.997  23.688  0.00  0.00    +0.000 A 
ATOM     11  C   UNL     1      -3.561  14.112  24.830  0.00  0.00    +0.000 C 
ATOM     12  C   UNL     1      -5.816  14.470  23.686  0.00  0.00    +0.000 A 
ATOM     13  C   UNL     1      -6.344  14.268  22.406  0.00  0.00    +0.000 A 
ATOM     14  C   UNL     1      -5.375  13.652  21.639  0.00  0.00    +0.000 A 
ATOM     15  C   UNL     1      -5.559  13.170  20.239  0.00  0.00    +0.000 C 
ATOM     16  S   UNL     1      -2.463  12.857  20.443  0.00  0.00    +0.000 S 
ATOM     17  C   UNL     1       1.065  10.841  20.554  0.00  0.00    +0.000 C 
ATOM     18  C   UNL     1       0.925   9.334  20.384  0.00  0.00    +0.000 C 
ENDROOT
BRANCH   1  20
ATOM     19  N   UNL     1       2.424   7.292  18.596  0.00  0.00    +0.000 N 
ATOM     20  C   UNL     1       1.901   8.517  18.175  0.00  0.00    +0.000 C 
ATOM     21  O   UNL     1       2.370   9.231  17.296  0.00  0.00    +0.000 OA
ATOM     22  H   UNL     1       2.093   6.922  19.476  0.00  0.00    +0.000 HD
BRANCH  19  27
ATOM     23  C   UNL     1       5.707   6.463  17.028  0.00  0.00    +0.000 A 
ATOM     24  C   UNL     1       5.509   5.122  16.697  0.00  0.00    +0.000 A 
ATOM     25  C   UNL     1       4.315   4.485  17.009  0.00  0.00    +0.000 A 
ATOM     26  C   UNL     1       3.287   5.194  17.633  0.00  0.00    +0.000 A 
ATOM     27  C   UNL     1       3.448   6.543  17.957  0.00  0.00    +0.000 A 
ATOM     28  C   UNL     1       4.682   7.167  17.680  0.00  0.00    +0.000 A 
BRANCH  23  30
ATOM     29  C   UNL     1       7.627   7.810  17.518  0.00  0.00    +0.000 C 
ATOM     30  O   UNL     1       6.928   6.939  16.644  0.00  0.00    +0.000 OA
ENDBRANCH  23  30
ENDBRANCH  19  27
ENDBRANCH   1  20
TORSDOF 3
ENDMDL
MODEL 9
REMARK VINA RESULT:      -7.2      2.055      2.561
REMARK  Name = 
REMARK  6 active torsions:
REMARK  status: ('A' for Active; 'I' for Inactive)
REMARK    1  A    between atoms: C_1  and  O_2
REMARK    2  A    between atoms: O_2  and  C_3
REMARK    3  A    between atoms: C_7  and  N_8
REMARK    4  A    between atoms: C_9  and  C_11
REMARK    5  A    between atoms: C_20  and  C_21
REMARK    6  A    between atoms: C_24  and  C_25
REMARK                            x       y       z     vdW  Elec       q    Type
REMARK                         _______ _______ _______ _____ _____    ______ ____
ROOT
ATOM      1  C   UNL     1      -0.727  10.130  20.543  0.00  0.00    +0.000 C 
ATOM      2  C   UNL     1      -0.413   9.037  21.599  0.00  0.00    +0.000 C 
ATOM      3  C   UNL     1       1.022   8.493  21.664  0.00  0.00    +0.000 C 
ATOM      4  N   UNL     1       1.651   8.502  20.359  0.00  0.00    +0.000 N 
ATOM      5  C   UNL     1       2.007   7.378  19.654  0.00  0.00    +0.000 A 
ATOM      6  N   UNL     1       2.259   7.342  18.355  0.00  0.00    +0.000 NA
ATOM      7  N   UNL     1       2.612   6.083  17.891  0.00  0.00    +0.000 NA
ATOM      8  C   UNL     1       2.580   5.188  18.851  0.00  0.00    +0.000 A 
ATOM      9  N   UNL     1       2.857   3.814  18.679  0.00  0.00    +0.000 N 
ATOM     10  C   UNL     1       3.655   3.254  17.668  0.00  0.00    +0.000 A 
ATOM     11  C   UNL     1       4.457   4.023  16.668  0.00  0.00    +0.000 C 
ATOM     12  C   UNL     1       3.645   1.877  17.790  0.00  0.00    +0.000 A 
ATOM     13  C   UNL     1       2.862   1.551  18.904  0.00  0.00    +0.000 A 
ATOM     14  C   UNL     1       2.380   2.728  19.442  0.00  0.00    +0.000 A 
ATOM     15  C   UNL     1       1.423   2.827  20.584  0.00  0.00    +0.000 C 
ATOM     16  S   UNL     1       2.237   5.832  20.386  0.00  0.00    +0.000 S 
ATOM     17  C   UNL     1       1.658   9.796  19.703  0.00  0.00    +0.000 C 
ATOM     18  C   UNL     1       0.226  10.162  19.338  0.00  0.00    +0.000 C 
ENDROOT
BRANCH   1  20
ATOM     19  N   UNL     1      -2.070  12.176  20.708  0.00  0.00    +0.000 N 
ATOM     20  C   UNL     1      -0.916  11.531  21.160  0.00  0.00    +0.000 C 
ATOM     21  O   UNL     1      -0.110  11.986  21.964  0.00  0.00    +0.000 OA
ATOM     22  H   UNL     1      -2.516  11.806  19.880  0.00  0.00    +0.000 HD
BRANCH  19  27
ATOM     23  C   UNL     1      -4.261  14.406  22.746  0.00  0.00    +0.000 A 
ATOM     24  C   UNL     1      -3.814  15.662  22.333  0.00  0.00    +0.000 A 
ATOM     25  C   UNL     1      -2.783  15.778  21.410  0.00  0.00    +0.000 A 
ATOM     26  C   UNL     1      -2.202  14.632  20.863  0.00  0.00    +0.000 A 
ATOM     27  C   UNL     1      -2.643  13.362  21.241  0.00  0.00    +0.000 A 
ATOM     28  C   UNL     1      -3.657  13.255  22.216  0.00  0.00    +0.000 A 
BRANCH  23  30
ATOM     29  C   UNL     1      -6.149  13.350  23.777  0.00  0.00    +0.000 C 
ATOM     30  O   UNL     1      -5.284  14.466  23.648  0.00  0.00    +0.000 OA
ENDBRANCH  23  30
ENDBRANCH  19  27
ENDBRANCH   1  20
TORSDOF 3
ENDMDL
