MODEL 1
REMARK VINA RESULT:      -8.3      0.000      0.000
REMARK  Name = 
REMARK  6 active torsions:
REMARK  status: ('A' for Active; 'I' for Inactive)
REMARK    1  A    between atoms: C_1  and  C_2
REMARK    2  A    between atoms: C_2  and  C_3
REMARK    3  A    between atoms: C_2  and  C_14
REMARK    4  A    between atoms: C_8  and  C_9
REMARK    5  A    between atoms: C_17  and  N_18
REMARK    6  A    between atoms: N_21  and  C_22
REMARK                            x       y       z     vdW  Elec       q    Type
REMARK                         _______ _______ _______ _____ _____    ______ ____
ROOT
ATOM      1  C   UNL     1       1.151   4.850  20.521  0.00  0.00    +0.000 C 
ATOM      2  C   UNL     1       2.396   5.719  20.305  0.00  0.00    +0.000 C 
ENDROOT
BRANCH   2   3
ATOM      3  C   UNL     1       3.319   5.115  19.234  0.00  0.00    +0.000 C 
ATOM      4  O   UNL     1       2.934   4.219  18.483  0.00  0.00    +0.000 OA
ATOM      5  N   UNL     1       4.609   5.627  19.231  0.00  0.00    +0.000 N 
ATOM      6  C   UNL     1       5.548   5.139  18.347  0.00  0.00    +0.000 A 
ATOM      7  C   UNL     1       5.423   4.990  16.944  0.00  0.00    +0.000 A 
ATOM      8  C   UNL     1       6.587   4.374  16.548  0.00  0.00    +0.000 A 
ATOM      9  N   UNL     1       7.311   4.194  17.689  0.00  0.00    +0.000 N 
ATOM     10  N   UNL     1       6.756   4.767  18.776  0.00  0.00    +0.000 NA
ATOM     11  H   UNL     1       4.993   5.949  20.107  0.00  0.00    +0.000 HD
ATOM     12  H   UNL     1       8.193   3.705  17.792  0.00  0.00    +0.000 HD
BRANCH   8  13
ATOM     13  C   UNL     1       6.939   3.951  15.136  0.00  0.00    +0.000 C 
ATOM     14  C   UNL     1       5.921   4.111  14.026  0.00  0.00    +0.000 C 
ATOM     15  C   UNL     1       7.085   5.038  14.091  0.00  0.00    +0.000 C 
ENDBRANCH   8  13
ENDBRANCH   2   3
BRANCH   2  16
ATOM     16  C   UNL     1       1.960   7.142  19.999  0.00  0.00    +0.000 A 
ATOM     17  C   UNL     1       1.365   7.926  20.993  0.00  0.00    +0.000 A 
ATOM     18  C   UNL     1       0.947   9.231  20.722  0.00  0.00    +0.000 A 
ATOM     19  C   UNL     1       1.119   9.806  19.459  0.00  0.00    +0.000 A 
ATOM     20  C   UNL     1       1.676   9.007  18.454  0.00  0.00    +0.000 A 
ATOM     21  C   UNL     1       2.090   7.687  18.714  0.00  0.00    +0.000 A 
BRANCH  19  22
ATOM     22  N   UNL     1       0.798  11.170  19.219  0.00  0.00    +0.000 N 
ATOM     23  C   UNL     1       1.774  12.160  18.805  0.00  0.00    +0.000 C 
ATOM     24  C   UNL     1       1.211  13.441  19.390  0.00  0.00    +0.000 C 
ATOM     25  N   UNL     1      -0.207  13.208  19.352  0.00  0.00    +0.000 N 
ATOM     26  C   UNL     1      -1.149  14.149  19.901  0.00  0.00    +0.000 C 
ATOM     27  C   UNL     1      -0.441  11.813  19.451  0.00  0.00    +0.000 C 
ATOM     28  O   UNL     1      -1.525  11.325  19.732  0.00  0.00    +0.000 OA
ENDBRANCH  19  22
ENDBRANCH   2  16
TORSDOF 4
ENDMDL
MODEL 2
REMARK VINA RESULT:      -8.3      1.026      1.156
REMARK  Name = 
REMARK  6 active torsions:
REMARK  status: ('A' for Active; 'I' for Inactive)
REMARK    1  A    between atoms: C_1  and  C_2
REMARK    2  A    between atoms: C_2  and  C_3
REMARK    3  A    between atoms: C_2  and  C_14
REMARK    4  A    between atoms: C_8  and  C_9
REMARK    5  A    between atoms: C_17  and  N_18
REMARK    6  A    between atoms: N_21  and  C_22
REMARK                            x       y       z     vdW  Elec       q    Type
REMARK                         _______ _______ _______ _____ _____    ______ ____
ROOT
ATOM      1  C   UNL     1       1.147   4.659  20.808  0.00  0.00    +0.000 C 
ATOM      2  C   UNL     1       2.353   5.571  20.551  0.00  0.00    +0.000 C 
ENDROOT
BRANCH   2   3
ATOM      3  C   UNL     1       3.251   5.009  19.437  0.00  0.00    +0.000 C 
ATOM      4  O   UNL     1       2.848   4.142  18.662  0.00  0.00    +0.000 OA
ATOM      5  N   UNL     1       4.539   5.523  19.422  0.00  0.00    +0.000 N 
ATOM      6  C   UNL     1       5.457   5.070  18.498  0.00  0.00    +0.000 A 
ATOM      7  C   UNL     1       5.299   4.974  17.094  0.00  0.00    +0.000 A 
ATOM      8  C   UNL     1       6.453   4.376  16.646  0.00  0.00    +0.000 A 
ATOM      9  N   UNL     1       7.205   4.153  17.763  0.00  0.00    +0.000 N 
ATOM     10  N   UNL     1       6.676   4.684  18.883  0.00  0.00    +0.000 NA
ATOM     11  H   UNL     1       4.945   5.812  20.301  0.00  0.00    +0.000 HD
ATOM     12  H   UNL     1       8.089   3.662  17.826  0.00  0.00    +0.000 HD
BRANCH   8  13
ATOM     13  C   UNL     1       6.772   4.007  15.212  0.00  0.00    +0.000 C 
ATOM     14  C   UNL     1       5.811   4.390  14.105  0.00  0.00    +0.000 C 
ATOM     15  C   UNL     1       7.094   5.132  14.250  0.00  0.00    +0.000 C 
ENDBRANCH   8  13
ENDBRANCH   2   3
BRANCH   2  16
ATOM     16  C   UNL     1       1.859   6.983  20.281  0.00  0.00    +0.000 A 
ATOM     17  C   UNL     1       1.070   7.646  21.227  0.00  0.00    +0.000 A 
ATOM     18  C   UNL     1       0.598   8.938  20.985  0.00  0.00    +0.000 A 
ATOM     19  C   UNL     1       0.904   9.619  19.802  0.00  0.00    +0.000 A 
ATOM     20  C   UNL     1       1.658   8.939  18.840  0.00  0.00    +0.000 A 
ATOM     21  C   UNL     1       2.129   7.633  19.069  0.00  0.00    +0.000 A 
BRANCH  19  22
ATOM     22  N   UNL     1       0.519  10.974  19.610  0.00  0.00    +0.000 N 
ATOM     23  C   UNL     1      -0.461  11.394  18.626  0.00  0.00    +0.000 C 
ATOM     24  C   UNL     1       0.002  12.796  18.279  0.00  0.00    +0.000 C 
ATOM     25  N   UNL     1       0.591  13.247  19.510  0.00  0.00    +0.000 N 
ATOM     26  C   UNL     1       1.251  14.524  19.617  0.00  0.00    +0.000 C 
ATOM     27  C   UNL     1       1.083  12.121  20.218  0.00  0.00    +0.000 C 
ATOM     28  O   UNL     1       1.877  12.194  21.143  0.00  0.00    +0.000 OA
ENDBRANCH  19  22
ENDBRANCH   2  16
TORSDOF 4
ENDMDL
MODEL 3
REMARK VINA RESULT:      -8.3      3.003      9.544
REMARK  Name = 
REMARK  6 active torsions:
REMARK  status: ('A' for Active; 'I' for Inactive)
REMARK    1  A    between atoms: C_1  and  C_2
REMARK    2  A    between atoms: C_2  and  C_3
REMARK    3  A    between atoms: C_2  and  C_14
REMARK    4  A    between atoms: C_8  and  C_9
REMARK    5  A    between atoms: C_17  and  N_18
REMARK    6  A    between atoms: N_21  and  C_22
REMARK                            x       y       z     vdW  Elec       q    Type
REMARK                         _______ _______ _______ _____ _____    ______ ____
ROOT
ATOM      1  C   UNL     1       1.695  11.464  18.287  0.00  0.00    +0.000 C 
ATOM      2  C   UNL     1       0.895  10.576  19.247  0.00  0.00    +0.000 C 
ENDROOT
BRANCH   2   3
ATOM      3  C   UNL     1      -0.606  10.605  18.916  0.00  0.00    +0.000 C 
ATOM      4  O   UNL     1      -1.434  10.043  19.631  0.00  0.00    +0.000 OA
ATOM      5  N   UNL     1      -0.922  11.265  17.737  0.00  0.00    +0.000 N 
ATOM      6  C   UNL     1      -2.230  11.325  17.304  0.00  0.00    +0.000 A 
ATOM      7  C   UNL     1      -3.368  11.739  18.038  0.00  0.00    +0.000 A 
ATOM      8  C   UNL     1      -4.433  11.522  17.196  0.00  0.00    +0.000 A 
ATOM      9  N   UNL     1      -3.894  11.007  16.053  0.00  0.00    +0.000 N 
ATOM     10  N   UNL     1      -2.546  11.001  16.048  0.00  0.00    +0.000 NA
ATOM     11  H   UNL     1      -0.240  11.259  16.992  0.00  0.00    +0.000 HD
ATOM     12  H   UNL     1      -4.387  10.659  15.238  0.00  0.00    +0.000 HD
BRANCH   8  13
ATOM     13  C   UNL     1      -5.893  11.765  17.518  0.00  0.00    +0.000 C 
ATOM     14  C   UNL     1      -6.273  12.821  18.536  0.00  0.00    +0.000 C 
ATOM     15  C   UNL     1      -6.499  13.085  17.087  0.00  0.00    +0.000 C 
ENDBRANCH   8  13
ENDBRANCH   2   3
BRANCH   2  16
ATOM     16  C   UNL     1       1.492   9.178  19.244  0.00  0.00    +0.000 A 
ATOM     17  C   UNL     1       2.049   8.653  18.074  0.00  0.00    +0.000 A 
ATOM     18  C   UNL     1       2.588   7.364  18.053  0.00  0.00    +0.000 A 
ATOM     19  C   UNL     1       2.604   6.560  19.197  0.00  0.00    +0.000 A 
ATOM     20  C   UNL     1       2.009   7.071  20.356  0.00  0.00    +0.000 A 
ATOM     21  C   UNL     1       1.453   8.363  20.384  0.00  0.00    +0.000 A 
BRANCH  19  22
ATOM     22  N   UNL     1       3.256   5.296  19.202  0.00  0.00    +0.000 N 
ATOM     23  C   UNL     1       4.695   5.139  19.286  0.00  0.00    +0.000 C 
ATOM     24  C   UNL     1       4.929   3.842  18.536  0.00  0.00    +0.000 C 
ATOM     25  N   UNL     1       3.722   3.105  18.798  0.00  0.00    +0.000 N 
ATOM     26  C   UNL     1       3.468   1.821  18.197  0.00  0.00    +0.000 C 
ATOM     27  C   UNL     1       2.664   4.026  19.006  0.00  0.00    +0.000 C 
ATOM     28  O   UNL     1       1.482   3.721  18.966  0.00  0.00    +0.000 OA
ENDBRANCH  19  22
ENDBRANCH   2  16
TORSDOF 4
ENDMDL
MODEL 4
REMARK VINA RESULT:      -8.2      1.425      2.071
REMARK  Name = 
REMARK  6 active torsions:
REMARK  status: ('A' for Active; 'I' for Inactive)
REMARK    1  A    between atoms: C_1  and  C_2
REMARK    2  A    between atoms: C_2  and  C_3
REMARK    3  A    between atoms: C_2  and  C_14
REMARK    4  A    between atoms: C_8  and  C_9
REMARK    5  A    between atoms: C_17  and  N_18
REMARK    6  A    between atoms: N_21  and  C_22
REMARK                            x       y       z     vdW  Elec       q    Type
REMARK                         _______ _______ _______ _____ _____    ______ ____
ROOT
ATOM      1  C   UNL     1       2.541   4.566  20.015  0.00  0.00    +0.000 C 
ATOM      2  C   UNL     1       3.403   5.676  19.401  0.00  0.00    +0.000 C 
ENDROOT
BRANCH   2   3
ATOM      3  C   UNL     1       3.983   5.246  18.044  0.00  0.00    +0.000 C 
ATOM      4  O   UNL     1       3.366   4.496  17.289  0.00  0.00    +0.000 OA
ATOM      5  N   UNL     1       5.257   5.730  17.784  0.00  0.00    +0.000 N 
ATOM      6  C   UNL     1       5.907   5.382  16.618  0.00  0.00    +0.000 A 
ATOM      7  C   UNL     1       5.418   5.474  15.292  0.00  0.00    +0.000 A 
ATOM      8  C   UNL     1       6.402   4.915  14.511  0.00  0.00    +0.000 A 
ATOM      9  N   UNL     1       7.383   4.533  15.379  0.00  0.00    +0.000 N 
ATOM     10  N   UNL     1       7.161   4.924  16.650  0.00  0.00    +0.000 NA
ATOM     11  H   UNL     1       5.872   5.893  18.567  0.00  0.00    +0.000 HD
ATOM     12  H   UNL     1       8.231   4.020  15.168  0.00  0.00    +0.000 HD
BRANCH   8  13
ATOM     13  C   UNL     1       6.355   4.730  13.008  0.00  0.00    +0.000 C 
ATOM     14  C   UNL     1       7.191   3.647  12.357  0.00  0.00    +0.000 C 
ATOM     15  C   UNL     1       5.717   3.464  12.474  0.00  0.00    +0.000 C 
ENDBRANCH   8  13
ENDBRANCH   2   3
BRANCH   2  16
ATOM     16  C   UNL     1       2.590   6.958  19.336  0.00  0.00    +0.000 A 
ATOM     17  C   UNL     1       2.510   7.682  18.142  0.00  0.00    +0.000 A 
ATOM     18  C   UNL     1       1.778   8.869  18.072  0.00  0.00    +0.000 A 
ATOM     19  C   UNL     1       1.088   9.369  19.181  0.00  0.00    +0.000 A 
ATOM     20  C   UNL     1       1.202   8.666  20.385  0.00  0.00    +0.000 A 
ATOM     21  C   UNL     1       1.948   7.475  20.469  0.00  0.00    +0.000 A 
BRANCH  19  22
ATOM     22  N   UNL     1       0.252  10.514  19.076  0.00  0.00    +0.000 N 
ATOM     23  C   UNL     1      -1.098  10.472  18.547  0.00  0.00    +0.000 C 
ATOM     24  C   UNL     1      -1.264  11.858  17.955  0.00  0.00    +0.000 C 
ATOM     25  N   UNL     1      -0.441  12.667  18.813  0.00  0.00    +0.000 N 
ATOM     26  C   UNL     1      -0.228  14.070  18.564  0.00  0.00    +0.000 C 
ATOM     27  C   UNL     1       0.605  11.860  19.331  0.00  0.00    +0.000 C 
ATOM     28  O   UNL     1       1.614  12.310  19.851  0.00  0.00    +0.000 OA
ENDBRANCH  19  22
ENDBRANCH   2  16
TORSDOF 4
ENDMDL
MODEL 5
REMARK VINA RESULT:      -8.2      1.580      2.225
REMARK  Name = 
REMARK  6 active torsions:
REMARK  status: ('A' for Active; 'I' for Inactive)
REMARK    1  A    between atoms: C_1  and  C_2
REMARK    2  A    between atoms: C_2  and  C_3
REMARK    3  A    between atoms: C_2  and  C_14
REMARK    4  A    between atoms: C_8  and  C_9
REMARK    5  A    between atoms: C_17  and  N_18
REMARK    6  A    between atoms: N_21  and  C_22
REMARK                            x       y       z     vdW  Elec       q    Type
REMARK                         _______ _______ _______ _____ _____    ______ ____
ROOT
ATOM      1  C   UNL     1       2.742   4.226  19.767  0.00  0.00    +0.000 C 
ATOM      2  C   UNL     1       3.630   5.325  19.170  0.00  0.00    +0.000 C 
ENDROOT
BRANCH   2   3
ATOM      3  C   UNL     1       4.203   4.902  17.808  0.00  0.00    +0.000 C 
ATOM      4  O   UNL     1       3.663   4.031  17.125  0.00  0.00    +0.000 OA
ATOM      5  N   UNL     1       5.382   5.542  17.456  0.00  0.00    +0.000 N 
ATOM      6  C   UNL     1       6.021   5.221  16.277  0.00  0.00    +0.000 A 
ATOM      7  C   UNL     1       5.464   5.168  14.975  0.00  0.00    +0.000 A 
ATOM      8  C   UNL     1       6.480   4.707  14.173  0.00  0.00    +0.000 A 
ATOM      9  N   UNL     1       7.544   4.515  15.005  0.00  0.00    +0.000 N 
ATOM     10  N   UNL     1       7.327   4.944  16.265  0.00  0.00    +0.000 NA
ATOM     11  H   UNL     1       6.003   5.834  18.197  0.00  0.00    +0.000 HD
ATOM     12  H   UNL     1       8.445   4.113  14.776  0.00  0.00    +0.000 HD
BRANCH   8  13
ATOM     13  C   UNL     1       6.392   4.431  12.685  0.00  0.00    +0.000 C 
ATOM     14  C   UNL     1       6.805   3.077  12.146  0.00  0.00    +0.000 C 
ATOM     15  C   UNL     1       5.358   3.426  12.216  0.00  0.00    +0.000 C 
ENDBRANCH   8  13
ENDBRANCH   2   3
BRANCH   2  16
ATOM     16  C   UNL     1       2.845   6.625  19.123  0.00  0.00    +0.000 A 
ATOM     17  C   UNL     1       2.861   7.416  17.969  0.00  0.00    +0.000 A 
ATOM     18  C   UNL     1       2.155   8.620  17.917  0.00  0.00    +0.000 A 
ATOM     19  C   UNL     1       1.399   9.072  19.003  0.00  0.00    +0.000 A 
ATOM     20  C   UNL     1       1.418   8.301  20.171  0.00  0.00    +0.000 A 
ATOM     21  C   UNL     1       2.135   7.092  20.237  0.00  0.00    +0.000 A 
BRANCH  19  22
ATOM     22  N   UNL     1       0.591  10.238  18.907  0.00  0.00    +0.000 N 
ATOM     23  C   UNL     1       0.862  11.461  19.639  0.00  0.00    +0.000 C 
ATOM     24  C   UNL     1      -0.524  12.049  19.820  0.00  0.00    +0.000 C 
ATOM     25  N   UNL     1      -1.214  11.600  18.641  0.00  0.00    +0.000 N 
ATOM     26  C   UNL     1      -2.616  11.858  18.433  0.00  0.00    +0.000 C 
ATOM     27  C   UNL     1      -0.636  10.376  18.216  0.00  0.00    +0.000 C 
ATOM     28  O   UNL     1      -1.172   9.610  17.430  0.00  0.00    +0.000 OA
ENDBRANCH  19  22
ENDBRANCH   2  16
TORSDOF 4
ENDMDL
MODEL 6
REMARK VINA RESULT:      -8.2      1.381      1.707
REMARK  Name = 
REMARK  6 active torsions:
REMARK  status: ('A' for Active; 'I' for Inactive)
REMARK    1  A    between atoms: C_1  and  C_2
REMARK    2  A    between atoms: C_2  and  C_3
REMARK    3  A    between atoms: C_2  and  C_14
REMARK    4  A    between atoms: C_8  and  C_9
REMARK    5  A    between atoms: C_17  and  N_18
REMARK    6  A    between atoms: N_21  and  C_22
REMARK                            x       y       z     vdW  Elec       q    Type
REMARK                         _______ _______ _______ _____ _____    ______ ____
ROOT
ATOM      1  C   UNL     1       2.693   4.459  20.085  0.00  0.00    +0.000 C 
ATOM      2  C   UNL     1       3.531   5.568  19.439  0.00  0.00    +0.000 C 
ENDROOT
BRANCH   2   3
ATOM      3  C   UNL     1       4.066   5.136  18.065  0.00  0.00    +0.000 C 
ATOM      4  O   UNL     1       3.449   4.342  17.355  0.00  0.00    +0.000 OA
ATOM      5  N   UNL     1       5.302   5.672  17.733  0.00  0.00    +0.000 N 
ATOM      6  C   UNL     1       5.911   5.329  16.545  0.00  0.00    +0.000 A 
ATOM      7  C   UNL     1       5.356   5.369  15.242  0.00  0.00    +0.000 A 
ATOM      8  C   UNL     1       6.327   4.838  14.426  0.00  0.00    +0.000 A 
ATOM      9  N   UNL     1       7.365   4.521  15.253  0.00  0.00    +0.000 N 
ATOM     10  N   UNL     1       7.185   4.930  16.525  0.00  0.00    +0.000 NA
ATOM     11  H   UNL     1       5.945   5.880  18.483  0.00  0.00    +0.000 HD
ATOM     12  H   UNL     1       8.225   4.042  15.011  0.00  0.00    +0.000 HD
BRANCH   8  13
ATOM     13  C   UNL     1       6.218   4.618  12.931  0.00  0.00    +0.000 C 
ATOM     14  C   UNL     1       7.141   3.631  12.246  0.00  0.00    +0.000 C 
ATOM     15  C   UNL     1       5.710   3.273  12.453  0.00  0.00    +0.000 C 
ENDBRANCH   8  13
ENDBRANCH   2   3
BRANCH   2  16
ATOM     16  C   UNL     1       2.713   6.848  19.398  0.00  0.00    +0.000 A 
ATOM     17  C   UNL     1       2.000   7.265  20.527  0.00  0.00    +0.000 A 
ATOM     18  C   UNL     1       1.233   8.432  20.499  0.00  0.00    +0.000 A 
ATOM     19  C   UNL     1       1.158   9.230  19.353  0.00  0.00    +0.000 A 
ATOM     20  C   UNL     1       1.838   8.790  18.212  0.00  0.00    +0.000 A 
ATOM     21  C   UNL     1       2.604   7.610  18.227  0.00  0.00    +0.000 A 
BRANCH  19  22
ATOM     22  N   UNL     1       0.471  10.475  19.363  0.00  0.00    +0.000 N 
ATOM     23  C   UNL     1       1.008  11.680  19.966  0.00  0.00    +0.000 C 
ATOM     24  C   UNL     1      -0.245  12.421  20.392  0.00  0.00    +0.000 C 
ATOM     25  N   UNL     1      -1.203  12.017  19.399  0.00  0.00    +0.000 N 
ATOM     26  C   UNL     1      -2.584  12.422  19.464  0.00  0.00    +0.000 C 
ATOM     27  C   UNL     1      -0.852  10.727  18.927  0.00  0.00    +0.000 C 
ATOM     28  O   UNL     1      -1.612  10.003  18.303  0.00  0.00    +0.000 OA
ENDBRANCH  19  22
ENDBRANCH   2  16
TORSDOF 4
ENDMDL
MODEL 7
REMARK VINA RESULT:      -8.1      1.160      1.420
REMARK  Name = 
REMARK  6 active torsions:
REMARK  status: ('A' for Active; 'I' for Inactive)
REMARK    1  A    between atoms: C_1  and  C_2
REMARK    2  A    between atoms: C_2  and  C_3
REMARK    3  A    between atoms: C_2  and  C_14
REMARK    4  A    between atoms: C_8  and  C_9
REMARK    5  A    between atoms: C_17  and  N_18
REMARK    6  A    between atoms: N_21  and  C_22
REMARK                            x       y       z     vdW  Elec       q    Type
REMARK                         _______ _______ _______ _____ _____    ______ ____
ROOT
ATOM      1  C   UNL     1       1.589   4.986  20.365  0.00  0.00    +0.000 C 
ATOM      2  C   UNL     1       2.667   5.967  19.890  0.00  0.00    +0.000 C 
ENDROOT
BRANCH   2   3
ATOM      3  C   UNL     1       3.334   5.478  18.594  0.00  0.00    +0.000 C 
ATOM      4  O   UNL     1       2.690   4.910  17.713  0.00  0.00    +0.000 OA
ATOM      5  N   UNL     1       4.705   5.688  18.538  0.00  0.00    +0.000 N 
ATOM      6  C   UNL     1       5.429   5.257  17.447  0.00  0.00    +0.000 A 
ATOM      7  C   UNL     1       5.165   5.505  16.077  0.00  0.00    +0.000 A 
ATOM      8  C   UNL     1       6.113   4.781  15.395  0.00  0.00    +0.000 A 
ATOM      9  N   UNL     1       6.860   4.162  16.355  0.00  0.00    +0.000 N 
ATOM     10  N   UNL     1       6.543   4.540  17.610  0.00  0.00    +0.000 NA
ATOM     11  H   UNL     1       5.221   5.684  19.405  0.00  0.00    +0.000 HD
ATOM     12  H   UNL     1       7.604   3.488  16.222  0.00  0.00    +0.000 HD
BRANCH   8  13
ATOM     13  C   UNL     1       6.245   4.672  13.890  0.00  0.00    +0.000 C 
ATOM     14  C   UNL     1       6.475   3.317  13.251  0.00  0.00    +0.000 C 
ATOM     15  C   UNL     1       5.138   3.963  13.136  0.00  0.00    +0.000 C 
ENDBRANCH   8  13
ENDBRANCH   2   3
BRANCH   2  16
ATOM     16  C   UNL     1       2.059   7.355  19.775  0.00  0.00    +0.000 A 
ATOM     17  C   UNL     1       1.357   7.908  20.851  0.00  0.00    +0.000 A 
ATOM     18  C   UNL     1       0.782   9.177  20.754  0.00  0.00    +0.000 A 
ATOM     19  C   UNL     1       0.896   9.945  19.590  0.00  0.00    +0.000 A 
ATOM     20  C   UNL     1       1.562   9.373  18.501  0.00  0.00    +0.000 A 
ATOM     21  C   UNL     1       2.135   8.091  18.585  0.00  0.00    +0.000 A 
BRANCH  19  22
ATOM     22  N   UNL     1       0.408  11.279  19.535  0.00  0.00    +0.000 N 
ATOM     23  C   UNL     1      -0.673  11.700  18.665  0.00  0.00    +0.000 C 
ATOM     24  C   UNL     1      -0.333  13.152  18.396  0.00  0.00    +0.000 C 
ATOM     25  N   UNL     1       0.324  13.553  19.610  0.00  0.00    +0.000 N 
ATOM     26  C   UNL     1       0.906  14.861  19.767  0.00  0.00    +0.000 C 
ATOM     27  C   UNL     1       0.944  12.415  20.187  0.00  0.00    +0.000 C 
ATOM     28  O   UNL     1       1.804  12.476  21.052  0.00  0.00    +0.000 OA
ENDBRANCH  19  22
ENDBRANCH   2  16
TORSDOF 4
ENDMDL
MODEL 8
REMARK VINA RESULT:      -8.0      1.474      1.852
REMARK  Name = 
REMARK  6 active torsions:
REMARK  status: ('A' for Active; 'I' for Inactive)
REMARK    1  A    between atoms: C_1  and  C_2
REMARK    2  A    between atoms: C_2  and  C_3
REMARK    3  A    between atoms: C_2  and  C_14
REMARK    4  A    between atoms: C_8  and  C_9
REMARK    5  A    between atoms: C_17  and  N_18
REMARK    6  A    between atoms: N_21  and  C_22
REMARK                            x       y       z     vdW  Elec       q    Type
REMARK                         _______ _______ _______ _____ _____    ______ ____
ROOT
ATOM      1  C   UNL     1       2.630   4.108  19.915  0.00  0.00    +0.000 C 
ATOM      2  C   UNL     1       3.522   5.236  19.384  0.00  0.00    +0.000 C 
ENDROOT
BRANCH   2   3
ATOM      3  C   UNL     1       4.102   4.886  18.004  0.00  0.00    +0.000 C 
ATOM      4  O   UNL     1       3.521   4.119  17.237  0.00  0.00    +0.000 OA
ATOM      5  N   UNL     1       5.335   5.463  17.735  0.00  0.00    +0.000 N 
ATOM      6  C   UNL     1       5.983   5.194  16.548  0.00  0.00    +0.000 A 
ATOM      7  C   UNL     1       5.463   5.291  15.234  0.00  0.00    +0.000 A 
ATOM      8  C   UNL     1       6.466   4.823  14.419  0.00  0.00    +0.000 A 
ATOM      9  N   UNL     1       7.488   4.483  15.257  0.00  0.00    +0.000 N 
ATOM     10  N   UNL     1       7.265   4.821  16.543  0.00  0.00    +0.000 NA
ATOM     11  H   UNL     1       5.954   5.644  18.512  0.00  0.00    +0.000 HD
ATOM     12  H   UNL     1       8.364   4.034  15.015  0.00  0.00    +0.000 HD
BRANCH   8  13
ATOM     13  C   UNL     1       6.401   4.679  12.912  0.00  0.00    +0.000 C 
ATOM     14  C   UNL     1       7.145   3.549  12.232  0.00  0.00    +0.000 C 
ATOM     15  C   UNL     1       5.662   3.482  12.350  0.00  0.00    +0.000 C 
ENDBRANCH   8  13
ENDBRANCH   2   3
BRANCH   2  16
ATOM     16  C   UNL     1       2.739   6.538  19.402  0.00  0.00    +0.000 A 
ATOM     17  C   UNL     1       2.028   6.917  20.546  0.00  0.00    +0.000 A 
ATOM     18  C   UNL     1       1.293   8.104  20.571  0.00  0.00    +0.000 A 
ATOM     19  C   UNL     1       1.250   8.961  19.467  0.00  0.00    +0.000 A 
ATOM     20  C   UNL     1       1.927   8.561  18.310  0.00  0.00    +0.000 A 
ATOM     21  C   UNL     1       2.661   7.361  18.270  0.00  0.00    +0.000 A 
BRANCH  19  22
ATOM     22  N   UNL     1       0.596  10.222  19.536  0.00  0.00    +0.000 N 
ATOM     23  C   UNL     1      -0.252  10.741  18.480  0.00  0.00    +0.000 C 
ATOM     24  C   UNL     1      -0.080  12.240  18.626  0.00  0.00    +0.000 C 
ATOM     25  N   UNL     1       0.142  12.395  20.038  0.00  0.00    +0.000 N 
ATOM     26  C   UNL     1       0.447  13.675  20.626  0.00  0.00    +0.000 C 
ATOM     27  C   UNL     1       0.746  11.212  20.535  0.00  0.00    +0.000 C 
ATOM     28  O   UNL     1       1.311  11.141  21.616  0.00  0.00    +0.000 OA
ENDBRANCH  19  22
ENDBRANCH   2  16
TORSDOF 4
ENDMDL
MODEL 9
REMARK VINA RESULT:      -7.9      3.049      9.522
REMARK  Name = 
REMARK  6 active torsions:
REMARK  status: ('A' for Active; 'I' for Inactive)
REMARK    1  A    between atoms: C_1  and  C_2
REMARK    2  A    between atoms: C_2  and  C_3
REMARK    3  A    between atoms: C_2  and  C_14
REMARK    4  A    between atoms: C_8  and  C_9
REMARK    5  A    between atoms: C_17  and  N_18
REMARK    6  A    between atoms: N_21  and  C_22
REMARK                            x       y       z     vdW  Elec       q    Type
REMARK                         _______ _______ _______ _____ _____    ______ ____
ROOT
ATOM      1  C   UNL     1       2.006  10.995  18.033  0.00  0.00    +0.000 C 
ATOM      2  C   UNL     1       1.283  10.268  19.173  0.00  0.00    +0.000 C 
ENDROOT
BRANCH   2   3
ATOM      3  C   UNL     1      -0.237  10.492  19.104  0.00  0.00    +0.000 C 
ATOM      4  O   UNL     1      -0.936  10.477  20.116  0.00  0.00    +0.000 OA
ATOM      5  N   UNL     1      -0.736  10.659  17.820  0.00  0.00    +0.000 N 
ATOM      6  C   UNL     1      -2.090  10.827  17.618  0.00  0.00    +0.000 A 
ATOM      7  C   UNL     1      -2.954  11.750  18.256  0.00  0.00    +0.000 A 
ATOM      8  C   UNL     1      -4.208  11.449  17.780  0.00  0.00    +0.000 A 
ATOM      9  N   UNL     1      -4.032  10.403  16.923  0.00  0.00    +0.000 N 
ATOM     10  N   UNL     1      -2.737  10.093  16.710  0.00  0.00    +0.000 NA
ATOM     11  H   UNL     1      -0.259  10.194  17.062  0.00  0.00    +0.000 HD
ATOM     12  H   UNL     1      -4.746   9.869  16.441  0.00  0.00    +0.000 HD
BRANCH   8  13
ATOM     13  C   UNL     1      -5.504  12.123  18.184  0.00  0.00    +0.000 C 
ATOM     14  C   UNL     1      -6.796  11.332  18.182  0.00  0.00    +0.000 C 
ATOM     15  C   UNL     1      -6.154  11.682  19.479  0.00  0.00    +0.000 C 
ENDBRANCH   8  13
ENDBRANCH   2   3
BRANCH   2  16
ATOM     16  C   UNL     1       1.682   8.801  19.157  0.00  0.00    +0.000 A 
ATOM     17  C   UNL     1       1.648   8.050  20.337  0.00  0.00    +0.000 A 
ATOM     18  C   UNL     1       2.025   6.705  20.339  0.00  0.00    +0.000 A 
ATOM     19  C   UNL     1       2.436   6.058  19.169  0.00  0.00    +0.000 A 
ATOM     20  C   UNL     1       2.510   6.822  17.999  0.00  0.00    +0.000 A 
ATOM     21  C   UNL     1       2.143   8.181  17.989  0.00  0.00    +0.000 A 
BRANCH  19  22
ATOM     22  N   UNL     1       2.709   4.663  19.154  0.00  0.00    +0.000 N 
ATOM     23  C   UNL     1       1.681   3.649  19.018  0.00  0.00    +0.000 C 
ATOM     24  C   UNL     1       2.275   2.476  19.773  0.00  0.00    +0.000 C 
ATOM     25  N   UNL     1       3.686   2.649  19.563  0.00  0.00    +0.000 N 
ATOM     26  C   UNL     1       4.660   1.790  20.187  0.00  0.00    +0.000 C 
ATOM     27  C   UNL     1       3.953   4.030  19.385  0.00  0.00    +0.000 C 
ATOM     28  O   UNL     1       5.067   4.523  19.472  0.00  0.00    +0.000 OA
ENDBRANCH  19  22
ENDBRANCH   2  16
TORSDOF 4
ENDMDL
