MODEL 1
REMARK VINA RESULT:      -7.8      0.000      0.000
REMARK  Name = 
REMARK  3 active torsions:
REMARK  status: ('A' for Active; 'I' for Inactive)
REMARK    1  A    between atoms: C_1  and  C_2
REMARK    2  A    between atoms: C_2  and  C_3
REMARK    3  A    between atoms: C_2  and  N_4
REMARK                            x       y       z     vdW  Elec       q    Type
REMARK                         _______ _______ _______ _____ _____    ______ ____
ROOT
ATOM      1  N   UNL     1       5.747   6.364  18.181  0.00  0.00    +0.000 N 
ATOM      2  C   UNL     1       4.906   5.318  17.814  0.00  0.00    +0.000 C 
ATOM      3  O   UNL     1       5.326   4.376  17.136  0.00  0.00    +0.000 OA
ATOM      4  N   UNL     1       3.622   5.435  18.376  0.00  0.00    +0.000 N 
ATOM      5  C   UNL     1       3.003   6.719  18.571  0.00  0.00    +0.000 A 
ATOM      6  C   UNL     1       3.245   7.745  17.639  0.00  0.00    +0.000 A 
ATOM      7  C   UNL     1       2.592   8.972  17.735  0.00  0.00    +0.000 A 
ATOM      8  C   UNL     1       1.710   9.206  18.785  0.00  0.00    +0.000 A 
ATOM      9  C   UNL     1       1.468   8.204  19.724  0.00  0.00    +0.000 A 
ATOM     10  C   UNL     1       2.091   6.957  19.610  0.00  0.00    +0.000 A 
ATOM     11  S   UNL     1       1.707   5.689  20.791  0.00  0.00    +0.000 S 
ATOM     12  C   UNL     1       1.853   4.296  19.687  0.00  0.00    +0.000 A 
ATOM     13  C   UNL     1       1.047   3.178  19.940  0.00  0.00    +0.000 A 
ATOM     14  C   UNL     1       1.107   2.065  19.106  0.00  0.00    +0.000 A 
ATOM     15  C   UNL     1       1.982   2.062  18.026  0.00  0.00    +0.000 A 
ATOM     16  C   UNL     1       2.816   3.161  17.791  0.00  0.00    +0.000 A 
ATOM     17  C   UNL     1       2.769   4.298  18.613  0.00  0.00    +0.000 A 
ATOM     18  H   UNL     1       5.447   6.872  19.002  0.00  0.00    +0.000 HD
ENDROOT
BRANCH   1  20
ATOM     19  C   UNL     1       7.546   7.867  17.488  0.00  0.00    +0.000 C 
ATOM     20  C   UNL     1       7.152   6.427  17.812  0.00  0.00    +0.000 C 
ATOM     21  C   UNL     1       8.069   5.894  18.914  0.00  0.00    +0.000 C 
ENDBRANCH   1  20
TORSDOF 1
ENDMDL
MODEL 2
REMARK VINA RESULT:      -7.5      2.249      4.365
REMARK  Name = 
REMARK  3 active torsions:
REMARK  status: ('A' for Active; 'I' for Inactive)
REMARK    1  A    between atoms: C_1  and  C_2
REMARK    2  A    between atoms: C_2  and  C_3
REMARK    3  A    between atoms: C_2  and  N_4
REMARK                            x       y       z     vdW  Elec       q    Type
REMARK                         _______ _______ _______ _____ _____    ______ ____
ROOT
ATOM      1  N   UNL     1       2.103   8.119  18.360  0.00  0.00    +0.000 N 
ATOM      2  C   UNL     1       2.218   7.210  19.406  0.00  0.00    +0.000 C 
ATOM      3  O   UNL     1       1.815   7.491  20.538  0.00  0.00    +0.000 OA
ATOM      4  N   UNL     1       2.732   5.968  18.989  0.00  0.00    +0.000 N 
ATOM      5  C   UNL     1       3.722   5.879  17.948  0.00  0.00    +0.000 A 
ATOM      6  C   UNL     1       4.688   6.895  17.833  0.00  0.00    +0.000 A 
ATOM      7  C   UNL     1       5.722   6.802  16.902  0.00  0.00    +0.000 A 
ATOM      8  C   UNL     1       5.787   5.706  16.049  0.00  0.00    +0.000 A 
ATOM      9  C   UNL     1       4.830   4.696  16.141  0.00  0.00    +0.000 A 
ATOM     10  C   UNL     1       3.813   4.766  17.099  0.00  0.00    +0.000 A 
ATOM     11  S   UNL     1       2.653   3.429  17.226  0.00  0.00    +0.000 S 
ATOM     12  C   UNL     1       2.398   3.512  18.989  0.00  0.00    +0.000 A 
ATOM     13  C   UNL     1       2.099   2.319  19.660  0.00  0.00    +0.000 A 
ATOM     14  C   UNL     1       1.903   2.318  21.038  0.00  0.00    +0.000 A 
ATOM     15  C   UNL     1       1.990   3.512  21.745  0.00  0.00    +0.000 A 
ATOM     16  C   UNL     1       2.251   4.711  21.074  0.00  0.00    +0.000 A 
ATOM     17  C   UNL     1       2.461   4.738  19.686  0.00  0.00    +0.000 A 
ATOM     18  H   UNL     1       2.106   7.700  17.440  0.00  0.00    +0.000 HD
ENDROOT
BRANCH   1  20
ATOM     19  C   UNL     1       2.398  10.492  17.850  0.00  0.00    +0.000 C 
ATOM     20  C   UNL     1       1.510   9.438  18.509  0.00  0.00    +0.000 C 
ATOM     21  C   UNL     1       0.107   9.519  17.905  0.00  0.00    +0.000 C 
ENDBRANCH   1  20
TORSDOF 1
ENDMDL
MODEL 3
REMARK VINA RESULT:      -7.2      2.292      5.402
REMARK  Name = 
REMARK  3 active torsions:
REMARK  status: ('A' for Active; 'I' for Inactive)
REMARK    1  A    between atoms: C_1  and  C_2
REMARK    2  A    between atoms: C_2  and  C_3
REMARK    3  A    between atoms: C_2  and  N_4
REMARK                            x       y       z     vdW  Elec       q    Type
REMARK                         _______ _______ _______ _____ _____    ______ ____
ROOT
ATOM      1  N   UNL     1       1.812   7.452  20.647  0.00  0.00    +0.000 N 
ATOM      2  C   UNL     1       2.308   7.389  19.349  0.00  0.00    +0.000 C 
ATOM      3  O   UNL     1       2.206   8.351  18.583  0.00  0.00    +0.000 OA
ATOM      4  N   UNL     1       2.989   6.185  19.089  0.00  0.00    +0.000 N 
ATOM      5  C   UNL     1       2.563   4.942  19.676  0.00  0.00    +0.000 A 
ATOM      6  C   UNL     1       1.189   4.717  19.881  0.00  0.00    +0.000 A 
ATOM      7  C   UNL     1       0.726   3.492  20.357  0.00  0.00    +0.000 A 
ATOM      8  C   UNL     1       1.631   2.482  20.667  0.00  0.00    +0.000 A 
ATOM      9  C   UNL     1       2.997   2.694  20.481  0.00  0.00    +0.000 A 
ATOM     10  C   UNL     1       3.464   3.908  19.968  0.00  0.00    +0.000 A 
ATOM     11  S   UNL     1       5.205   4.113  19.687  0.00  0.00    +0.000 S 
ATOM     12  C   UNL     1       5.083   5.161  18.249  0.00  0.00    +0.000 A 
ATOM     13  C   UNL     1       6.104   5.074  17.293  0.00  0.00    +0.000 A 
ATOM     14  C   UNL     1       6.058   5.857  16.143  0.00  0.00    +0.000 A 
ATOM     15  C   UNL     1       5.000   6.738  15.954  0.00  0.00    +0.000 A 
ATOM     16  C   UNL     1       3.999   6.856  16.924  0.00  0.00    +0.000 A 
ATOM     17  C   UNL     1       4.017   6.072  18.088  0.00  0.00    +0.000 A 
ATOM     18  H   UNL     1       2.245   6.806  21.292  0.00  0.00    +0.000 HD
ENDROOT
BRANCH   1  20
ATOM     19  C   UNL     1      -0.324   8.337  21.441  0.00  0.00    +0.000 C 
ATOM     20  C   UNL     1       1.155   8.629  21.195  0.00  0.00    +0.000 C 
ATOM     21  C   UNL     1       1.795   9.100  22.501  0.00  0.00    +0.000 C 
ENDBRANCH   1  20
TORSDOF 1
ENDMDL
MODEL 4
REMARK VINA RESULT:      -6.8      1.747      5.031
REMARK  Name = 
REMARK  3 active torsions:
REMARK  status: ('A' for Active; 'I' for Inactive)
REMARK    1  A    between atoms: C_1  and  C_2
REMARK    2  A    between atoms: C_2  and  C_3
REMARK    3  A    between atoms: C_2  and  N_4
REMARK                            x       y       z     vdW  Elec       q    Type
REMARK                         _______ _______ _______ _____ _____    ______ ____
ROOT
ATOM      1  N   UNL     1       2.259   3.865  19.544  0.00  0.00    +0.000 N 
ATOM      2  C   UNL     1       3.608   4.193  19.636  0.00  0.00    +0.000 C 
ATOM      3  O   UNL     1       4.434   3.373  20.047  0.00  0.00    +0.000 OA
ATOM      4  N   UNL     1       3.887   5.476  19.130  0.00  0.00    +0.000 N 
ATOM      5  C   UNL     1       2.950   6.559  19.274  0.00  0.00    +0.000 A 
ATOM      6  C   UNL     1       2.161   6.631  20.437  0.00  0.00    +0.000 A 
ATOM      7  C   UNL     1       1.311   7.712  20.662  0.00  0.00    +0.000 A 
ATOM      8  C   UNL     1       1.211   8.723  19.713  0.00  0.00    +0.000 A 
ATOM      9  C   UNL     1       1.978   8.661  18.549  0.00  0.00    +0.000 A 
ATOM     10  C   UNL     1       2.861   7.597  18.336  0.00  0.00    +0.000 A 
ATOM     11  S   UNL     1       3.864   7.589  16.872  0.00  0.00    +0.000 S 
ATOM     12  C   UNL     1       5.298   6.801  17.582  0.00  0.00    +0.000 A 
ATOM     13  C   UNL     1       6.552   7.137  17.054  0.00  0.00    +0.000 A 
ATOM     14  C   UNL     1       7.709   6.564  17.576  0.00  0.00    +0.000 A 
ATOM     15  C   UNL     1       7.614   5.644  18.613  0.00  0.00    +0.000 A 
ATOM     16  C   UNL     1       6.361   5.277  19.117  0.00  0.00    +0.000 A 
ATOM     17  C   UNL     1       5.180   5.846  18.615  0.00  0.00    +0.000 A 
ATOM     18  H   UNL     1       1.738   4.423  18.882  0.00  0.00    +0.000 HD
ENDROOT
BRANCH   1  20
ATOM     19  C   UNL     1       1.257   2.573  21.362  0.00  0.00    +0.000 C 
ATOM     20  C   UNL     1       1.728   2.561  19.909  0.00  0.00    +0.000 C 
ATOM     21  C   UNL     1       0.567   2.132  19.011  0.00  0.00    +0.000 C 
ENDBRANCH   1  20
TORSDOF 1
ENDMDL
MODEL 5
REMARK VINA RESULT:      -6.1      6.578      9.022
REMARK  Name = 
REMARK  3 active torsions:
REMARK  status: ('A' for Active; 'I' for Inactive)
REMARK    1  A    between atoms: C_1  and  C_2
REMARK    2  A    between atoms: C_2  and  C_3
REMARK    3  A    between atoms: C_2  and  N_4
REMARK                            x       y       z     vdW  Elec       q    Type
REMARK                         _______ _______ _______ _____ _____    ______ ____
ROOT
ATOM      1  N   UNL     1      -0.860  13.498  21.653  0.00  0.00    +0.000 N 
ATOM      2  C   UNL     1      -1.878  12.974  20.863  0.00  0.00    +0.000 C 
ATOM      3  O   UNL     1      -2.932  13.593  20.694  0.00  0.00    +0.000 OA
ATOM      4  N   UNL     1      -1.513  11.764  20.244  0.00  0.00    +0.000 N 
ATOM      5  C   UNL     1      -0.657  10.814  20.903  0.00  0.00    +0.000 A 
ATOM      6  C   UNL     1      -0.746  10.665  22.299  0.00  0.00    +0.000 A 
ATOM      7  C   UNL     1      -0.006   9.691  22.967  0.00  0.00    +0.000 A 
ATOM      8  C   UNL     1       0.861   8.870  22.253  0.00  0.00    +0.000 A 
ATOM      9  C   UNL     1       0.971   9.013  20.869  0.00  0.00    +0.000 A 
ATOM     10  C   UNL     1       0.201   9.964  20.190  0.00  0.00    +0.000 A 
ATOM     11  S   UNL     1       0.325  10.070  18.423  0.00  0.00    +0.000 S 
ATOM     12  C   UNL     1      -1.370  10.525  18.102  0.00  0.00    +0.000 A 
ATOM     13  C   UNL     1      -1.937  10.108  16.890  0.00  0.00    +0.000 A 
ATOM     14  C   UNL     1      -3.259  10.421  16.589  0.00  0.00    +0.000 A 
ATOM     15  C   UNL     1      -4.012  11.164  17.491  0.00  0.00    +0.000 A 
ATOM     16  C   UNL     1      -3.438  11.615  18.685  0.00  0.00    +0.000 A 
ATOM     17  C   UNL     1      -2.110  11.306  19.016  0.00  0.00    +0.000 A 
ATOM     18  H   UNL     1       0.060  13.132  21.446  0.00  0.00    +0.000 HD
ENDROOT
BRANCH   1  20
ATOM     19  C   UNL     1      -1.342  14.592  23.786  0.00  0.00    +0.000 C 
ATOM     20  C   UNL     1      -0.950  14.786  22.322  0.00  0.00    +0.000 C 
ATOM     21  C   UNL     1       0.360  15.571  22.255  0.00  0.00    +0.000 C 
ENDBRANCH   1  20
TORSDOF 1
ENDMDL
MODEL 6
REMARK VINA RESULT:      -6.0      8.198     10.453
REMARK  Name = 
REMARK  3 active torsions:
REMARK  status: ('A' for Active; 'I' for Inactive)
REMARK    1  A    between atoms: C_1  and  C_2
REMARK    2  A    between atoms: C_2  and  C_3
REMARK    3  A    between atoms: C_2  and  N_4
REMARK                            x       y       z     vdW  Elec       q    Type
REMARK                         _______ _______ _______ _____ _____    ______ ____
ROOT
ATOM      1  N   UNL     1      -1.504  13.730  19.428  0.00  0.00    +0.000 N 
ATOM      2  C   UNL     1      -2.541  13.309  20.254  0.00  0.00    +0.000 C 
ATOM      3  O   UNL     1      -2.596  13.665  21.435  0.00  0.00    +0.000 OA
ATOM      4  N   UNL     1      -3.507  12.553  19.566  0.00  0.00    +0.000 N 
ATOM      5  C   UNL     1      -3.140  11.667  18.493  0.00  0.00    +0.000 A 
ATOM      6  C   UNL     1      -1.911  10.985  18.558  0.00  0.00    +0.000 A 
ATOM      7  C   UNL     1      -1.558  10.046  17.591  0.00  0.00    +0.000 A 
ATOM      8  C   UNL     1      -2.414   9.797  16.523  0.00  0.00    +0.000 A 
ATOM      9  C   UNL     1      -3.631  10.474  16.437  0.00  0.00    +0.000 A 
ATOM     10  C   UNL     1      -4.006  11.389  17.426  0.00  0.00    +0.000 A 
ATOM     11  S   UNL     1      -5.590  12.181  17.311  0.00  0.00    +0.000 S 
ATOM     12  C   UNL     1      -5.919  12.291  19.060  0.00  0.00    +0.000 A 
ATOM     13  C   UNL     1      -7.257  12.236  19.476  0.00  0.00    +0.000 A 
ATOM     14  C   UNL     1      -7.575  12.303  20.829  0.00  0.00    +0.000 A 
ATOM     15  C   UNL     1      -6.560  12.441  21.768  0.00  0.00    +0.000 A 
ATOM     16  C   UNL     1      -5.226  12.534  21.356  0.00  0.00    +0.000 A 
ATOM     17  C   UNL     1      -4.877  12.461  19.998  0.00  0.00    +0.000 A 
ATOM     18  H   UNL     1      -1.721  13.709  18.441  0.00  0.00    +0.000 HD
ENDROOT
BRANCH   1  20
ATOM     19  C   UNL     1       0.894  13.845  19.896  0.00  0.00    +0.000 C 
ATOM     20  C   UNL     1      -0.431  14.606  19.875  0.00  0.00    +0.000 C 
ATOM     21  C   UNL     1      -0.282  15.844  18.990  0.00  0.00    +0.000 C 
ENDBRANCH   1  20
TORSDOF 1
ENDMDL
MODEL 7
REMARK VINA RESULT:      -6.0      8.102     10.367
REMARK  Name = 
REMARK  3 active torsions:
REMARK  status: ('A' for Active; 'I' for Inactive)
REMARK    1  A    between atoms: C_1  and  C_2
REMARK    2  A    between atoms: C_2  and  C_3
REMARK    3  A    between atoms: C_2  and  N_4
REMARK                            x       y       z     vdW  Elec       q    Type
REMARK                         _______ _______ _______ _____ _____    ______ ____
ROOT
ATOM      1  N   UNL     1      -1.118  14.149  19.276  0.00  0.00    +0.000 N 
ATOM      2  C   UNL     1      -1.913  13.791  20.360  0.00  0.00    +0.000 C 
ATOM      3  O   UNL     1      -1.742  14.304  21.469  0.00  0.00    +0.000 OA
ATOM      4  N   UNL     1      -2.938  12.894  20.005  0.00  0.00    +0.000 N 
ATOM      5  C   UNL     1      -2.738  11.889  18.995  0.00  0.00    +0.000 A 
ATOM      6  C   UNL     1      -1.471  11.292  18.865  0.00  0.00    +0.000 A 
ATOM      7  C   UNL     1      -1.258  10.248  17.966  0.00  0.00    +0.000 A 
ATOM      8  C   UNL     1      -2.300   9.807  17.158  0.00  0.00    +0.000 A 
ATOM      9  C   UNL     1      -3.559  10.397  17.266  0.00  0.00    +0.000 A 
ATOM     10  C   UNL     1      -3.788  11.418  18.193  0.00  0.00    +0.000 A 
ATOM     11  S   UNL     1      -5.421  12.099  18.342  0.00  0.00    +0.000 S 
ATOM     12  C   UNL     1      -5.372  12.432  20.093  0.00  0.00    +0.000 A 
ATOM     13  C   UNL     1      -6.578  12.362  20.803  0.00  0.00    +0.000 A 
ATOM     14  C   UNL     1      -6.601  12.599  22.174  0.00  0.00    +0.000 A 
ATOM     15  C   UNL     1      -5.422  12.921  22.836  0.00  0.00    +0.000 A 
ATOM     16  C   UNL     1      -4.222  13.030  22.125  0.00  0.00    +0.000 A 
ATOM     17  C   UNL     1      -4.170  12.788  20.743  0.00  0.00    +0.000 A 
ATOM     18  H   UNL     1      -1.541  13.979  18.374  0.00  0.00    +0.000 HD
ENDROOT
BRANCH   1  20
ATOM     19  C   UNL     1       1.265  14.527  18.881  0.00  0.00    +0.000 C 
ATOM     20  C   UNL     1      -0.053  15.135  19.358  0.00  0.00    +0.000 C 
ATOM     21  C   UNL     1      -0.352  16.387  18.532  0.00  0.00    +0.000 C 
ENDBRANCH   1  20
TORSDOF 1
ENDMDL
MODEL 8
REMARK VINA RESULT:      -6.0      7.038      9.784
REMARK  Name = 
REMARK  3 active torsions:
REMARK  status: ('A' for Active; 'I' for Inactive)
REMARK    1  A    between atoms: C_1  and  C_2
REMARK    2  A    between atoms: C_2  and  C_3
REMARK    3  A    between atoms: C_2  and  N_4
REMARK                            x       y       z     vdW  Elec       q    Type
REMARK                         _______ _______ _______ _____ _____    ______ ____
ROOT
ATOM      1  N   UNL     1      -2.025  11.527  18.547  0.00  0.00    +0.000 N 
ATOM      2  C   UNL     1      -1.052  12.493  18.780  0.00  0.00    +0.000 C 
ATOM      3  O   UNL     1      -0.641  13.212  17.865  0.00  0.00    +0.000 OA
ATOM      4  N   UNL     1      -0.703  12.593  20.139  0.00  0.00    +0.000 N 
ATOM      5  C   UNL     1      -0.675  11.434  20.992  0.00  0.00    +0.000 A 
ATOM      6  C   UNL     1      -0.278  10.197  20.454  0.00  0.00    +0.000 A 
ATOM      7  C   UNL     1      -0.144   9.070  21.263  0.00  0.00    +0.000 A 
ATOM      8  C   UNL     1      -0.437   9.154  22.620  0.00  0.00    +0.000 A 
ATOM      9  C   UNL     1      -0.845  10.371  23.168  0.00  0.00    +0.000 A 
ATOM     10  C   UNL     1      -0.944  11.513  22.366  0.00  0.00    +0.000 A 
ATOM     11  S   UNL     1      -1.405  13.055  23.115  0.00  0.00    +0.000 S 
ATOM     12  C   UNL     1      -0.425  14.118  22.072  0.00  0.00    +0.000 A 
ATOM     13  C   UNL     1       0.063  15.308  22.632  0.00  0.00    +0.000 A 
ATOM     14  C   UNL     1       0.845  16.172  21.870  0.00  0.00    +0.000 A 
ATOM     15  C   UNL     1       1.128  15.858  20.547  0.00  0.00    +0.000 A 
ATOM     16  C   UNL     1       0.613  14.690  19.974  0.00  0.00    +0.000 A 
ATOM     17  C   UNL     1      -0.172  13.798  20.721  0.00  0.00    +0.000 A 
ATOM     18  H   UNL     1      -2.550  11.257  19.368  0.00  0.00    +0.000 HD
ENDROOT
BRANCH   1  20
ATOM     19  C   UNL     1      -2.272   9.896  16.742  0.00  0.00    +0.000 C 
ATOM     20  C   UNL     1      -2.626  11.295  17.243  0.00  0.00    +0.000 C 
ATOM     21  C   UNL     1      -4.148  11.447  17.267  0.00  0.00    +0.000 C 
ENDBRANCH   1  20
TORSDOF 1
ENDMDL
MODEL 9
REMARK VINA RESULT:      -5.8      7.459     10.090
REMARK  Name = 
REMARK  3 active torsions:
REMARK  status: ('A' for Active; 'I' for Inactive)
REMARK    1  A    between atoms: C_1  and  C_2
REMARK    2  A    between atoms: C_2  and  C_3
REMARK    3  A    between atoms: C_2  and  N_4
REMARK                            x       y       z     vdW  Elec       q    Type
REMARK                         _______ _______ _______ _____ _____    ______ ____
ROOT
ATOM      1  N   UNL     1      -2.862  12.643  21.253  0.00  0.00    +0.000 N 
ATOM      2  C   UNL     1      -1.972  13.489  20.598  0.00  0.00    +0.000 C 
ATOM      3  O   UNL     1      -1.836  14.663  20.952  0.00  0.00    +0.000 OA
ATOM      4  N   UNL     1      -1.227  12.826  19.606  0.00  0.00    +0.000 N 
ATOM      5  C   UNL     1      -1.801  11.765  18.821  0.00  0.00    +0.000 A 
ATOM      6  C   UNL     1      -3.165  11.828  18.478  0.00  0.00    +0.000 A 
ATOM      7  C   UNL     1      -3.740  10.874  17.641  0.00  0.00    +0.000 A 
ATOM      8  C   UNL     1      -2.969   9.821  17.159  0.00  0.00    +0.000 A 
ATOM      9  C   UNL     1      -1.619   9.737  17.500  0.00  0.00    +0.000 A 
ATOM     10  C   UNL     1      -1.028  10.713  18.309  0.00  0.00    +0.000 A 
ATOM     11  S   UNL     1       0.707  10.603  18.667  0.00  0.00    +0.000 S 
ATOM     12  C   UNL     1       1.041  12.354  18.725  0.00  0.00    +0.000 A 
ATOM     13  C   UNL     1       2.317  12.785  18.338  0.00  0.00    +0.000 A 
ATOM     14  C   UNL     1       2.633  14.141  18.350  0.00  0.00    +0.000 A 
ATOM     15  C   UNL     1       1.680  15.065  18.762  0.00  0.00    +0.000 A 
ATOM     16  C   UNL     1       0.418  14.636  19.185  0.00  0.00    +0.000 A 
ATOM     17  C   UNL     1       0.071  13.275  19.175  0.00  0.00    +0.000 A 
ATOM     18  H   UNL     1      -2.651  11.660  21.156  0.00  0.00    +0.000 HD
ENDROOT
BRANCH   1  20
ATOM     19  C   UNL     1      -5.158  12.872  22.060  0.00  0.00    +0.000 C 
ATOM     20  C   UNL     1      -3.677  13.061  22.382  0.00  0.00    +0.000 C 
ATOM     21  C   UNL     1      -3.342  12.292  23.661  0.00  0.00    +0.000 C 
ENDBRANCH   1  20
TORSDOF 1
ENDMDL
