MODEL 1
REMARK VINA RESULT:      -9.3      0.000      0.000
REMARK  Name = 
REMARK  8 active torsions:
REMARK  status: ('A' for Active; 'I' for Inactive)
REMARK    1  A    between atoms: C_1  and  C_2
REMARK    2  A    between atoms: C_4  and  C_5
REMARK    3  A    between atoms: C_7  and  O_8
REMARK    4  A    between atoms: O_8  and  C_9
REMARK    5  A    between atoms: C_9  and  C_10
REMARK    6  A    between atoms: C_10  and  C_11
REMARK    7  A    between atoms: C_11  and  N_12
REMARK    8  A    between atoms: C_17  and  C_18
REMARK                            x       y       z     vdW  Elec       q    Type
REMARK                         _______ _______ _______ _____ _____    ______ ____
ROOT
ATOM      1  N   UNL     1       2.883   5.889  18.914  0.00  0.00    +0.000 N 
ATOM      2  C   UNL     1       2.300   4.648  19.025  0.00  0.00    +0.000 A 
ATOM      3  C   UNL     1       2.855   3.824  18.067  0.00  0.00    +0.000 A 
ATOM      4  C   UNL     1       3.772   4.593  17.312  0.00  0.00    +0.000 A 
ATOM      5  C   UNL     1       4.583   4.297  16.205  0.00  0.00    +0.000 A 
ATOM      6  C   UNL     1       5.405   5.288  15.662  0.00  0.00    +0.000 A 
ATOM      7  C   UNL     1       5.424   6.568  16.224  0.00  0.00    +0.000 A 
ATOM      8  C   UNL     1       4.612   6.889  17.323  0.00  0.00    +0.000 A 
ATOM      9  C   UNL     1       3.785   5.884  17.857  0.00  0.00    +0.000 A 
ATOM     10  C   UNL     1       2.472   2.394  17.890  0.00  0.00    +0.000 C 
ATOM     11  C   UNL     1       1.721   1.871  19.122  0.00  0.00    +0.000 C 
ATOM     12  C   UNL     1       0.652   2.872  19.593  0.00  0.00    +0.000 C 
ATOM     13  C   UNL     1       1.267   4.222  20.019  0.00  0.00    +0.000 C 
ENDROOT
BRANCH   6  14
ATOM     14  C   UNL     1       6.222   4.934  14.487  0.00  0.00    +0.000 C 
ATOM     15  N   UNL     1       7.402   5.400  14.219  0.00  0.00    +0.000 NA
ATOM     16  C   UNL     1       7.743   4.770  12.942  0.00  0.00    +0.000 C 
ATOM     17  C   UNL     1       6.653   3.753  12.689  0.00  0.00    +0.000 C 
ATOM     18  O   UNL     1       5.648   4.044  13.646  0.00  0.00    +0.000 OA
ENDBRANCH   6  14
BRANCH   1  19
ATOM     19  C   UNL     1       2.557   7.051  19.725  0.00  0.00    +0.000 C 
BRANCH  19  20
ATOM     20  C   UNL     1       2.005   8.239  18.945  0.00  0.00    +0.000 C 
BRANCH  20  21
ATOM     21  C   UNL     1       1.023   9.113  19.723  0.00  0.00    +0.000 C 
BRANCH  21  22
ATOM     22  O   UNL     1       0.860  10.309  18.960  0.00  0.00    +0.000 OA
BRANCH  22  29
ATOM     23  C   UNL     1      -2.883   9.831  16.039  0.00  0.00    +0.000 C 
ATOM     24  C   UNL     1      -2.272  10.408  17.280  0.00  0.00    +0.000 A 
ATOM     25  C   UNL     1      -2.987  11.266  18.094  0.00  0.00    +0.000 A 
ATOM     26  C   UNL     1      -2.332  11.756  19.207  0.00  0.00    +0.000 A 
ATOM     27  C   UNL     1      -3.014  12.682  20.167  0.00  0.00    +0.000 C 
ATOM     28  N   UNL     1      -1.057  11.429  19.494  0.00  0.00    +0.000 NA
ATOM     29  C   UNL     1      -0.453  10.581  18.653  0.00  0.00    +0.000 A 
ATOM     30  N   UNL     1      -1.001  10.047  17.551  0.00  0.00    +0.000 NA
ENDBRANCH  22  29
ENDBRANCH  21  22
ENDBRANCH  20  21
ENDBRANCH  19  20
ENDBRANCH   1  19
TORSDOF 6
ENDMDL
MODEL 2
REMARK VINA RESULT:      -9.2      0.628      1.720
REMARK  Name = 
REMARK  8 active torsions:
REMARK  status: ('A' for Active; 'I' for Inactive)
REMARK    1  A    between atoms: C_1  and  C_2
REMARK    2  A    between atoms: C_4  and  C_5
REMARK    3  A    between atoms: C_7  and  O_8
REMARK    4  A    between atoms: O_8  and  C_9
REMARK    5  A    between atoms: C_9  and  C_10
REMARK    6  A    between atoms: C_10  and  C_11
REMARK    7  A    between atoms: C_11  and  N_12
REMARK    8  A    between atoms: C_17  and  C_18
REMARK                            x       y       z     vdW  Elec       q    Type
REMARK                         _______ _______ _______ _____ _____    ______ ____
ROOT
ATOM      1  N   UNL     1       2.951   5.956  18.831  0.00  0.00    +0.000 N 
ATOM      2  C   UNL     1       2.387   4.718  19.039  0.00  0.00    +0.000 A 
ATOM      3  C   UNL     1       2.909   3.846  18.105  0.00  0.00    +0.000 A 
ATOM      4  C   UNL     1       3.782   4.579  17.266  0.00  0.00    +0.000 A 
ATOM      5  C   UNL     1       4.547   4.227  16.143  0.00  0.00    +0.000 A 
ATOM      6  C   UNL     1       5.332   5.192  15.508  0.00  0.00    +0.000 A 
ATOM      7  C   UNL     1       5.361   6.503  15.995  0.00  0.00    +0.000 A 
ATOM      8  C   UNL     1       4.595   6.878  17.110  0.00  0.00    +0.000 A 
ATOM      9  C   UNL     1       3.804   5.898  17.736  0.00  0.00    +0.000 A 
ATOM     10  C   UNL     1       2.536   2.404  18.027  0.00  0.00    +0.000 C 
ATOM     11  C   UNL     1       1.846   1.945  19.319  0.00  0.00    +0.000 C 
ATOM     12  C   UNL     1       0.787   2.962  19.781  0.00  0.00    +0.000 C 
ATOM     13  C   UNL     1       1.405   4.340  20.100  0.00  0.00    +0.000 C 
ENDROOT
BRANCH   6  14
ATOM     14  C   UNL     1       6.100   4.779  14.319  0.00  0.00    +0.000 C 
ATOM     15  N   UNL     1       5.759   3.847  13.486  0.00  0.00    +0.000 NA
ATOM     16  C   UNL     1       6.868   3.811  12.530  0.00  0.00    +0.000 C 
ATOM     17  C   UNL     1       7.737   4.999  12.875  0.00  0.00    +0.000 C 
ATOM     18  O   UNL     1       7.253   5.459  14.126  0.00  0.00    +0.000 OA
ENDBRANCH   6  14
BRANCH   1  19
ATOM     19  C   UNL     1       2.648   7.159  19.589  0.00  0.00    +0.000 C 
BRANCH  19  20
ATOM     20  C   UNL     1       1.965   8.263  18.788  0.00  0.00    +0.000 C 
BRANCH  20  21
ATOM     21  C   UNL     1       1.047   9.170  19.604  0.00  0.00    +0.000 C 
BRANCH  21  22
ATOM     22  O   UNL     1       0.922  10.385  18.863  0.00  0.00    +0.000 OA
BRANCH  22  29
ATOM     23  C   UNL     1      -2.822  12.971  20.298  0.00  0.00    +0.000 C 
ATOM     24  C   UNL     1      -2.217  11.981  19.349  0.00  0.00    +0.000 A 
ATOM     25  C   UNL     1      -2.969  11.408  18.340  0.00  0.00    +0.000 A 
ATOM     26  C   UNL     1      -2.324  10.497  17.526  0.00  0.00    +0.000 A 
ATOM     27  C   UNL     1      -3.037   9.825  16.393  0.00  0.00    +0.000 C 
ATOM     28  N   UNL     1      -1.031  10.166  17.700  0.00  0.00    +0.000 NA
ATOM     29  C   UNL     1      -0.383  10.785  18.695  0.00  0.00    +0.000 A 
ATOM     30  N   UNL     1      -0.915  11.685  19.535  0.00  0.00    +0.000 NA
ENDBRANCH  22  29
ENDBRANCH  21  22
ENDBRANCH  20  21
ENDBRANCH  19  20
ENDBRANCH   1  19
TORSDOF 6
ENDMDL
MODEL 3
REMARK VINA RESULT:      -9.2      2.388      8.821
REMARK  Name = 
REMARK  8 active torsions:
REMARK  status: ('A' for Active; 'I' for Inactive)
REMARK    1  A    between atoms: C_1  and  C_2
REMARK    2  A    between atoms: C_4  and  C_5
REMARK    3  A    between atoms: C_7  and  O_8
REMARK    4  A    between atoms: O_8  and  C_9
REMARK    5  A    between atoms: C_9  and  C_10
REMARK    6  A    between atoms: C_10  and  C_11
REMARK    7  A    between atoms: C_11  and  N_12
REMARK    8  A    between atoms: C_17  and  C_18
REMARK                            x       y       z     vdW  Elec       q    Type
REMARK                         _______ _______ _______ _____ _____    ______ ____
ROOT
ATOM      1  N   UNL     1       3.477   5.902  18.213  0.00  0.00    +0.000 N 
ATOM      2  C   UNL     1       3.425   4.816  19.057  0.00  0.00    +0.000 A 
ATOM      3  C   UNL     1       2.619   5.142  20.128  0.00  0.00    +0.000 A 
ATOM      4  C   UNL     1       2.202   6.485  19.965  0.00  0.00    +0.000 A 
ATOM      5  C   UNL     1       1.418   7.344  20.750  0.00  0.00    +0.000 A 
ATOM      6  C   UNL     1       1.172   8.649  20.317  0.00  0.00    +0.000 A 
ATOM      7  C   UNL     1       1.700   9.096  19.102  0.00  0.00    +0.000 A 
ATOM      8  C   UNL     1       2.497   8.256  18.307  0.00  0.00    +0.000 A 
ATOM      9  C   UNL     1       2.741   6.946  18.757  0.00  0.00    +0.000 A 
ATOM     10  C   UNL     1       2.321   4.205  21.250  0.00  0.00    +0.000 C 
ATOM     11  C   UNL     1       2.673   2.761  20.866  0.00  0.00    +0.000 C 
ATOM     12  C   UNL     1       4.047   2.683  20.178  0.00  0.00    +0.000 C 
ATOM     13  C   UNL     1       4.086   3.489  18.863  0.00  0.00    +0.000 C 
ENDROOT
BRANCH   6  14
ATOM     14  C   UNL     1       0.360   9.520  21.188  0.00  0.00    +0.000 C 
ATOM     15  N   UNL     1      -0.316  10.556  20.801  0.00  0.00    +0.000 NA
ATOM     16  C   UNL     1      -0.896  11.076  22.041  0.00  0.00    +0.000 C 
ATOM     17  C   UNL     1      -0.585  10.041  23.098  0.00  0.00    +0.000 C 
ATOM     18  O   UNL     1       0.353   9.167  22.493  0.00  0.00    +0.000 OA
ENDBRANCH   6  14
BRANCH   1  19
ATOM     19  C   UNL     1       4.242   5.975  16.979  0.00  0.00    +0.000 C 
BRANCH  19  20
ATOM     20  C   UNL     1       5.626   6.601  17.122  0.00  0.00    +0.000 C 
BRANCH  20  21
ATOM     21  C   UNL     1       6.785   5.680  16.750  0.00  0.00    +0.000 C 
BRANCH  21  22
ATOM     22  O   UNL     1       6.206   4.545  16.106  0.00  0.00    +0.000 OA
BRANCH  22  29
ATOM     23  C   UNL     1       5.416   2.635  11.806  0.00  0.00    +0.000 C 
ATOM     24  C   UNL     1       6.168   3.592  12.682  0.00  0.00    +0.000 A 
ATOM     25  C   UNL     1       7.188   4.374  12.173  0.00  0.00    +0.000 A 
ATOM     26  C   UNL     1       7.829   5.213  13.064  0.00  0.00    +0.000 A 
ATOM     27  C   UNL     1       8.940   6.116  12.620  0.00  0.00    +0.000 C 
ATOM     28  N   UNL     1       7.494   5.271  14.366  0.00  0.00    +0.000 NA
ATOM     29  C   UNL     1       6.485   4.485  14.761  0.00  0.00    +0.000 A 
ATOM     30  N   UNL     1       5.796   3.642  13.977  0.00  0.00    +0.000 NA
ENDBRANCH  22  29
ENDBRANCH  21  22
ENDBRANCH  20  21
ENDBRANCH  19  20
ENDBRANCH   1  19
TORSDOF 6
ENDMDL
MODEL 4
REMARK VINA RESULT:      -9.0      2.511      8.989
REMARK  Name = 
REMARK  8 active torsions:
REMARK  status: ('A' for Active; 'I' for Inactive)
REMARK    1  A    between atoms: C_1  and  C_2
REMARK    2  A    between atoms: C_4  and  C_5
REMARK    3  A    between atoms: C_7  and  O_8
REMARK    4  A    between atoms: O_8  and  C_9
REMARK    5  A    between atoms: C_9  and  C_10
REMARK    6  A    between atoms: C_10  and  C_11
REMARK    7  A    between atoms: C_11  and  N_12
REMARK    8  A    between atoms: C_17  and  C_18
REMARK                            x       y       z     vdW  Elec       q    Type
REMARK                         _______ _______ _______ _____ _____    ______ ____
ROOT
ATOM      1  N   UNL     1       3.280   5.916  18.436  0.00  0.00    +0.000 N 
ATOM      2  C   UNL     1       3.205   4.811  19.252  0.00  0.00    +0.000 A 
ATOM      3  C   UNL     1       2.406   5.126  20.332  0.00  0.00    +0.000 A 
ATOM      4  C   UNL     1       2.018   6.481  20.204  0.00  0.00    +0.000 A 
ATOM      5  C   UNL     1       1.251   7.336  21.012  0.00  0.00    +0.000 A 
ATOM      6  C   UNL     1       1.033   8.656  20.613  0.00  0.00    +0.000 A 
ATOM      7  C   UNL     1       1.571   9.123  19.410  0.00  0.00    +0.000 A 
ATOM      8  C   UNL     1       2.349   8.288  18.593  0.00  0.00    +0.000 A 
ATOM      9  C   UNL     1       2.566   6.962  19.008  0.00  0.00    +0.000 A 
ATOM     10  C   UNL     1       2.089   4.166  21.429  0.00  0.00    +0.000 C 
ATOM     11  C   UNL     1       2.410   2.726  21.007  0.00  0.00    +0.000 C 
ATOM     12  C   UNL     1       3.781   2.636  20.317  0.00  0.00    +0.000 C 
ATOM     13  C   UNL     1       3.837   3.475  19.023  0.00  0.00    +0.000 C 
ENDROOT
BRANCH   6  14
ATOM     14  C   UNL     1       0.240   9.521  21.507  0.00  0.00    +0.000 C 
ATOM     15  N   UNL     1      -0.160   9.210  22.700  0.00  0.00    +0.000 NA
ATOM     16  C   UNL     1      -0.929  10.381  23.126  0.00  0.00    +0.000 C 
ATOM     17  C   UNL     1      -0.698  11.426  22.058  0.00  0.00    +0.000 C 
ATOM     18  O   UNL     1      -0.073  10.731  20.992  0.00  0.00    +0.000 OA
ENDBRANCH   6  14
BRANCH   1  19
ATOM     19  C   UNL     1       4.046   6.006  17.204  0.00  0.00    +0.000 C 
BRANCH  19  20
ATOM     20  C   UNL     1       5.551   6.154  17.398  0.00  0.00    +0.000 C 
BRANCH  20  21
ATOM     21  C   UNL     1       6.390   5.054  16.752  0.00  0.00    +0.000 C 
BRANCH  21  22
ATOM     22  O   UNL     1       5.554   4.434  15.774  0.00  0.00    +0.000 OA
BRANCH  22  29
ATOM     23  C   UNL     1       8.777   5.996  12.622  0.00  0.00    +0.000 C 
ATOM     24  C   UNL     1       7.647   5.076  12.974  0.00  0.00    +0.000 A 
ATOM     25  C   UNL     1       7.136   4.187  12.046  0.00  0.00    +0.000 A 
ATOM     26  C   UNL     1       6.086   3.391  12.462  0.00  0.00    +0.000 A 
ATOM     27  C   UNL     1       5.463   2.382  11.546  0.00  0.00    +0.000 C 
ATOM     28  N   UNL     1       5.570   3.472  13.703  0.00  0.00    +0.000 NA
ATOM     29  C   UNL     1       6.141   4.354  14.533  0.00  0.00    +0.000 A 
ATOM     30  N   UNL     1       7.165   5.166  14.229  0.00  0.00    +0.000 NA
ENDBRANCH  22  29
ENDBRANCH  21  22
ENDBRANCH  20  21
ENDBRANCH  19  20
ENDBRANCH   1  19
TORSDOF 6
ENDMDL
MODEL 5
REMARK VINA RESULT:      -8.9      0.850      1.780
REMARK  Name = 
REMARK  8 active torsions:
REMARK  status: ('A' for Active; 'I' for Inactive)
REMARK    1  A    between atoms: C_1  and  C_2
REMARK    2  A    between atoms: C_4  and  C_5
REMARK    3  A    between atoms: C_7  and  O_8
REMARK    4  A    between atoms: O_8  and  C_9
REMARK    5  A    between atoms: C_9  and  C_10
REMARK    6  A    between atoms: C_10  and  C_11
REMARK    7  A    between atoms: C_11  and  N_12
REMARK    8  A    between atoms: C_17  and  C_18
REMARK                            x       y       z     vdW  Elec       q    Type
REMARK                         _______ _______ _______ _____ _____    ______ ____
ROOT
ATOM      1  N   UNL     1       3.183   5.762  18.958  0.00  0.00    +0.000 N 
ATOM      2  C   UNL     1       2.490   4.573  18.993  0.00  0.00    +0.000 A 
ATOM      3  C   UNL     1       2.944   3.781  17.958  0.00  0.00    +0.000 A 
ATOM      4  C   UNL     1       3.908   4.522  17.234  0.00  0.00    +0.000 A 
ATOM      5  C   UNL     1       4.662   4.242  16.083  0.00  0.00    +0.000 A 
ATOM      6  C   UNL     1       5.558   5.194  15.592  0.00  0.00    +0.000 A 
ATOM      7  C   UNL     1       5.709   6.419  16.249  0.00  0.00    +0.000 A 
ATOM      8  C   UNL     1       4.957   6.724  17.395  0.00  0.00    +0.000 A 
ATOM      9  C   UNL     1       4.054   5.758  17.876  0.00  0.00    +0.000 A 
ATOM     10  C   UNL     1       2.426   2.409  17.684  0.00  0.00    +0.000 C 
ATOM     11  C   UNL     1       1.660   1.861  18.895  0.00  0.00    +0.000 C 
ATOM     12  C   UNL     1       0.700   2.914  19.475  0.00  0.00    +0.000 C 
ATOM     13  C   UNL     1       1.447   4.165  19.982  0.00  0.00    +0.000 C 
ENDROOT
BRANCH   6  14
ATOM     14  C   UNL     1       6.311   4.862  14.368  0.00  0.00    +0.000 C 
ATOM     15  N   UNL     1       7.459   5.358  14.029  0.00  0.00    +0.000 NA
ATOM     16  C   UNL     1       7.737   4.737  12.732  0.00  0.00    +0.000 C 
ATOM     17  C   UNL     1       6.660   3.694  12.544  0.00  0.00    +0.000 C 
ATOM     18  O   UNL     1       5.709   3.958  13.562  0.00  0.00    +0.000 OA
ENDBRANCH   6  14
BRANCH   1  19
ATOM     19  C   UNL     1       2.985   6.880  19.866  0.00  0.00    +0.000 C 
BRANCH  19  20
ATOM     20  C   UNL     1       1.869   7.839  19.464  0.00  0.00    +0.000 C 
BRANCH  20  21
ATOM     21  C   UNL     1       1.964   8.366  18.034  0.00  0.00    +0.000 C 
BRANCH  21  22
ATOM     22  O   UNL     1       1.964   9.791  18.131  0.00  0.00    +0.000 OA
BRANCH  22  29
ATOM     23  C   UNL     1      -0.678  12.428  21.102  0.00  0.00    +0.000 C 
ATOM     24  C   UNL     1      -0.577  11.537  19.901  0.00  0.00    +0.000 A 
ATOM     25  C   UNL     1      -1.702  11.170  19.188  0.00  0.00    +0.000 A 
ATOM     26  C   UNL     1      -1.507  10.334  18.106  0.00  0.00    +0.000 A 
ATOM     27  C   UNL     1      -2.653   9.883  17.253  0.00  0.00    +0.000 C 
ATOM     28  N   UNL     1      -0.287   9.885  17.755  0.00  0.00    +0.000 NA
ATOM     29  C   UNL     1       0.743  10.308  18.498  0.00  0.00    +0.000 A 
ATOM     30  N   UNL     1       0.660  11.120  19.562  0.00  0.00    +0.000 NA
ENDBRANCH  22  29
ENDBRANCH  21  22
ENDBRANCH  20  21
ENDBRANCH  19  20
ENDBRANCH   1  19
TORSDOF 6
ENDMDL
MODEL 6
REMARK VINA RESULT:      -8.8      1.627      2.287
REMARK  Name = 
REMARK  8 active torsions:
REMARK  status: ('A' for Active; 'I' for Inactive)
REMARK    1  A    between atoms: C_1  and  C_2
REMARK    2  A    between atoms: C_4  and  C_5
REMARK    3  A    between atoms: C_7  and  O_8
REMARK    4  A    between atoms: O_8  and  C_9
REMARK    5  A    between atoms: C_9  and  C_10
REMARK    6  A    between atoms: C_10  and  C_11
REMARK    7  A    between atoms: C_11  and  N_12
REMARK    8  A    between atoms: C_17  and  C_18
REMARK                            x       y       z     vdW  Elec       q    Type
REMARK                         _______ _______ _______ _____ _____    ______ ____
ROOT
ATOM      1  N   UNL     1       2.860   6.000  18.528  0.00  0.00    +0.000 N 
ATOM      2  C   UNL     1       2.378   4.743  18.817  0.00  0.00    +0.000 A 
ATOM      3  C   UNL     1       2.983   3.844  17.963  0.00  0.00    +0.000 A 
ATOM      4  C   UNL     1       3.826   4.573  17.090  0.00  0.00    +0.000 A 
ATOM      5  C   UNL     1       4.643   4.194  16.013  0.00  0.00    +0.000 A 
ATOM      6  C   UNL     1       5.376   5.163  15.324  0.00  0.00    +0.000 A 
ATOM      7  C   UNL     1       5.301   6.505  15.711  0.00  0.00    +0.000 A 
ATOM      8  C   UNL     1       4.482   6.906  16.778  0.00  0.00    +0.000 A 
ATOM      9  C   UNL     1       3.744   5.922  17.460  0.00  0.00    +0.000 A 
ATOM     10  C   UNL     1       2.713   2.377  17.986  0.00  0.00    +0.000 C 
ATOM     11  C   UNL     1       2.022   1.968  19.294  0.00  0.00    +0.000 C 
ATOM     12  C   UNL     1       0.884   2.938  19.655  0.00  0.00    +0.000 C 
ATOM     13  C   UNL     1       1.396   4.376  19.883  0.00  0.00    +0.000 C 
ENDROOT
BRANCH   6  14
ATOM     14  C   UNL     1       6.203   4.719  14.187  0.00  0.00    +0.000 C 
ATOM     15  N   UNL     1       5.933   3.724  13.401  0.00  0.00    +0.000 NA
ATOM     16  C   UNL     1       7.074   3.686  12.483  0.00  0.00    +0.000 C 
ATOM     17  C   UNL     1       7.875   4.933  12.783  0.00  0.00    +0.000 C 
ATOM     18  O   UNL     1       7.328   5.441  13.988  0.00  0.00    +0.000 OA
ENDBRANCH   6  14
BRANCH   1  19
ATOM     19  C   UNL     1       2.454   7.231  19.186  0.00  0.00    +0.000 C 
BRANCH  19  20
ATOM     20  C   UNL     1       1.655   8.190  18.310  0.00  0.00    +0.000 C 
BRANCH  20  21
ATOM     21  C   UNL     1       1.620   9.632  18.808  0.00  0.00    +0.000 C 
BRANCH  21  22
ATOM     22  O   UNL     1       0.247  10.025  18.803  0.00  0.00    +0.000 OA
BRANCH  22  29
ATOM     23  C   UNL     1      -0.030   9.488  23.536  0.00  0.00    +0.000 C 
ATOM     24  C   UNL     1      -0.381  10.252  22.294  0.00  0.00    +0.000 A 
ATOM     25  C   UNL     1      -1.198  11.365  22.349  0.00  0.00    +0.000 A 
ATOM     26  C   UNL     1      -1.475  11.992  21.149  0.00  0.00    +0.000 A 
ATOM     27  C   UNL     1      -2.337  13.216  21.091  0.00  0.00    +0.000 C 
ATOM     28  N   UNL     1      -0.986  11.547  19.976  0.00  0.00    +0.000 NA
ATOM     29  C   UNL     1      -0.193  10.470  20.028  0.00  0.00    +0.000 A 
ATOM     30  N   UNL     1       0.139   9.794  21.138  0.00  0.00    +0.000 NA
ENDBRANCH  22  29
ENDBRANCH  21  22
ENDBRANCH  20  21
ENDBRANCH  19  20
ENDBRANCH   1  19
TORSDOF 6
ENDMDL
MODEL 7
REMARK VINA RESULT:      -8.8      0.990      1.061
REMARK  Name = 
REMARK  8 active torsions:
REMARK  status: ('A' for Active; 'I' for Inactive)
REMARK    1  A    between atoms: C_1  and  C_2
REMARK    2  A    between atoms: C_4  and  C_5
REMARK    3  A    between atoms: C_7  and  O_8
REMARK    4  A    between atoms: O_8  and  C_9
REMARK    5  A    between atoms: C_9  and  C_10
REMARK    6  A    between atoms: C_10  and  C_11
REMARK    7  A    between atoms: C_11  and  N_12
REMARK    8  A    between atoms: C_17  and  C_18
REMARK                            x       y       z     vdW  Elec       q    Type
REMARK                         _______ _______ _______ _____ _____    ______ ____
ROOT
ATOM      1  N   UNL     1       3.007   5.898  19.043  0.00  0.00    +0.000 N 
ATOM      2  C   UNL     1       2.377   4.678  19.139  0.00  0.00    +0.000 A 
ATOM      3  C   UNL     1       2.872   3.858  18.146  0.00  0.00    +0.000 A 
ATOM      4  C   UNL     1       3.799   4.610  17.385  0.00  0.00    +0.000 A 
ATOM      5  C   UNL     1       4.568   4.311  16.249  0.00  0.00    +0.000 A 
ATOM      6  C   UNL     1       5.415   5.282  15.709  0.00  0.00    +0.000 A 
ATOM      7  C   UNL     1       5.501   6.545  16.302  0.00  0.00    +0.000 A 
ATOM      8  C   UNL     1       4.732   6.869  17.431  0.00  0.00    +0.000 A 
ATOM      9  C   UNL     1       3.879   5.884  17.962  0.00  0.00    +0.000 A 
ATOM     10  C   UNL     1       2.427   2.450  17.943  0.00  0.00    +0.000 C 
ATOM     11  C   UNL     1       1.688   1.924  19.181  0.00  0.00    +0.000 C 
ATOM     12  C   UNL     1       0.674   2.955  19.707  0.00  0.00    +0.000 C 
ATOM     13  C   UNL     1       1.354   4.267  20.149  0.00  0.00    +0.000 C 
ENDROOT
BRANCH   6  14
ATOM     14  C   UNL     1       6.186   4.927  14.503  0.00  0.00    +0.000 C 
ATOM     15  N   UNL     1       7.354   5.392  14.189  0.00  0.00    +0.000 NA
ATOM     16  C   UNL     1       7.645   4.761  12.900  0.00  0.00    +0.000 C 
ATOM     17  C   UNL     1       6.546   3.745  12.690  0.00  0.00    +0.000 C 
ATOM     18  O   UNL     1       5.579   4.037  13.686  0.00  0.00    +0.000 OA
ENDBRANCH   6  14
BRANCH   1  19
ATOM     19  C   UNL     1       2.750   7.049  19.893  0.00  0.00    +0.000 C 
BRANCH  19  20
ATOM     20  C   UNL     1       1.727   8.035  19.338  0.00  0.00    +0.000 C 
BRANCH  20  21
ATOM     21  C   UNL     1       0.917   8.779  20.398  0.00  0.00    +0.000 C 
BRANCH  21  22
ATOM     22  O   UNL     1       1.205  10.167  20.221  0.00  0.00    +0.000 OA
BRANCH  22  29
ATOM     23  C   UNL     1      -2.736  10.077  17.532  0.00  0.00    +0.000 C 
ATOM     24  C   UNL     1      -1.627  10.848  18.182  0.00  0.00    +0.000 A 
ATOM     25  C   UNL     1      -1.513  12.214  18.011  0.00  0.00    +0.000 A 
ATOM     26  C   UNL     1      -0.448  12.832  18.639  0.00  0.00    +0.000 A 
ATOM     27  C   UNL     1      -0.235  14.312  18.534  0.00  0.00    +0.000 C 
ATOM     28  N   UNL     1       0.446  12.149  19.377  0.00  0.00    +0.000 NA
ATOM     29  C   UNL     1       0.244  10.831  19.495  0.00  0.00    +0.000 A 
ATOM     30  N   UNL     1      -0.758  10.139  18.931  0.00  0.00    +0.000 NA
ENDBRANCH  22  29
ENDBRANCH  21  22
ENDBRANCH  20  21
ENDBRANCH  19  20
ENDBRANCH   1  19
TORSDOF 6
ENDMDL
MODEL 8
REMARK VINA RESULT:      -8.7      1.855      2.559
REMARK  Name = 
REMARK  8 active torsions:
REMARK  status: ('A' for Active; 'I' for Inactive)
REMARK    1  A    between atoms: C_1  and  C_2
REMARK    2  A    between atoms: C_4  and  C_5
REMARK    3  A    between atoms: C_7  and  O_8
REMARK    4  A    between atoms: O_8  and  C_9
REMARK    5  A    between atoms: C_9  and  C_10
REMARK    6  A    between atoms: C_10  and  C_11
REMARK    7  A    between atoms: C_11  and  N_12
REMARK    8  A    between atoms: C_17  and  C_18
REMARK                            x       y       z     vdW  Elec       q    Type
REMARK                         _______ _______ _______ _____ _____    ______ ____
ROOT
ATOM      1  N   UNL     1       3.068   5.900  18.830  0.00  0.00    +0.000 N 
ATOM      2  C   UNL     1       2.456   4.680  19.006  0.00  0.00    +0.000 A 
ATOM      3  C   UNL     1       2.938   3.815  18.045  0.00  0.00    +0.000 A 
ATOM      4  C   UNL     1       3.836   4.535  17.222  0.00  0.00    +0.000 A 
ATOM      5  C   UNL     1       4.581   4.185  16.085  0.00  0.00    +0.000 A 
ATOM      6  C   UNL     1       5.403   5.135  15.474  0.00  0.00    +0.000 A 
ATOM      7  C   UNL     1       5.487   6.429  15.997  0.00  0.00    +0.000 A 
ATOM      8  C   UNL     1       4.741   6.803  17.126  0.00  0.00    +0.000 A 
ATOM      9  C   UNL     1       3.914   5.839  17.729  0.00  0.00    +0.000 A 
ATOM     10  C   UNL     1       2.506   2.392  17.929  0.00  0.00    +0.000 C 
ATOM     11  C   UNL     1       1.804   1.925  19.211  0.00  0.00    +0.000 C 
ATOM     12  C   UNL     1       0.790   2.970  19.707  0.00  0.00    +0.000 C 
ATOM     13  C   UNL     1       1.463   4.312  20.061  0.00  0.00    +0.000 C 
ENDROOT
BRANCH   6  14
ATOM     14  C   UNL     1       6.148   4.725  14.269  0.00  0.00    +0.000 C 
ATOM     15  N   UNL     1       5.803   3.779  13.453  0.00  0.00    +0.000 NA
ATOM     16  C   UNL     1       6.888   3.754  12.470  0.00  0.00    +0.000 C 
ATOM     17  C   UNL     1       7.744   4.961  12.783  0.00  0.00    +0.000 C 
ATOM     18  O   UNL     1       7.283   5.423  14.041  0.00  0.00    +0.000 OA
ENDBRANCH   6  14
BRANCH   1  19
ATOM     19  C   UNL     1       2.817   7.093  19.623  0.00  0.00    +0.000 C 
BRANCH  19  20
ATOM     20  C   UNL     1       1.643   7.941  19.145  0.00  0.00    +0.000 C 
BRANCH  20  21
ATOM     21  C   UNL     1       1.994   8.973  18.076  0.00  0.00    +0.000 C 
BRANCH  21  22
ATOM     22  O   UNL     1       0.898   9.888  18.028  0.00  0.00    +0.000 OA
BRANCH  22  29
ATOM     23  C   UNL     1      -0.518  12.034  22.048  0.00  0.00    +0.000 C 
ATOM     24  C   UNL     1       0.361  12.004  20.834  0.00  0.00    +0.000 A 
ATOM     25  C   UNL     1       1.246  13.032  20.569  0.00  0.00    +0.000 A 
ATOM     26  C   UNL     1       2.003  12.919  19.418  0.00  0.00    +0.000 A 
ATOM     27  C   UNL     1       3.004  13.967  19.039  0.00  0.00    +0.000 C 
ATOM     28  N   UNL     1       1.888  11.870  18.582  0.00  0.00    +0.000 NA
ATOM     29  C   UNL     1       1.013  10.919  18.932  0.00  0.00    +0.000 A 
ATOM     30  N   UNL     1       0.238  10.931  20.027  0.00  0.00    +0.000 NA
ENDBRANCH  22  29
ENDBRANCH  21  22
ENDBRANCH  20  21
ENDBRANCH  19  20
ENDBRANCH   1  19
TORSDOF 6
ENDMDL
MODEL 9
REMARK VINA RESULT:      -8.7      1.992      2.541
REMARK  Name = 
REMARK  8 active torsions:
REMARK  status: ('A' for Active; 'I' for Inactive)
REMARK    1  A    between atoms: C_1  and  C_2
REMARK    2  A    between atoms: C_4  and  C_5
REMARK    3  A    between atoms: C_7  and  O_8
REMARK    4  A    between atoms: O_8  and  C_9
REMARK    5  A    between atoms: C_9  and  C_10
REMARK    6  A    between atoms: C_10  and  C_11
REMARK    7  A    between atoms: C_11  and  N_12
REMARK    8  A    between atoms: C_17  and  C_18
REMARK                            x       y       z     vdW  Elec       q    Type
REMARK                         _______ _______ _______ _____ _____    ______ ____
ROOT
ATOM      1  N   UNL     1       2.766   5.965  18.889  0.00  0.00    +0.000 N 
ATOM      2  C   UNL     1       2.257   4.701  19.083  0.00  0.00    +0.000 A 
ATOM      3  C   UNL     1       2.859   3.852  18.177  0.00  0.00    +0.000 A 
ATOM      4  C   UNL     1       3.727   4.623  17.368  0.00  0.00    +0.000 A 
ATOM      5  C   UNL     1       4.552   4.305  16.278  0.00  0.00    +0.000 A 
ATOM      6  C   UNL     1       5.313   5.305  15.668  0.00  0.00    +0.000 A 
ATOM      7  C   UNL     1       5.257   6.618  16.146  0.00  0.00    +0.000 A 
ATOM      8  C   UNL     1       4.429   6.960  17.227  0.00  0.00    +0.000 A 
ATOM      9  C   UNL     1       3.664   5.944  17.829  0.00  0.00    +0.000 A 
ATOM     10  C   UNL     1       2.561   2.392  18.094  0.00  0.00    +0.000 C 
ATOM     11  C   UNL     1       1.845   1.906  19.361  0.00  0.00    +0.000 C 
ATOM     12  C   UNL     1       0.719   2.871  19.774  0.00  0.00    +0.000 C 
ATOM     13  C   UNL     1       1.253   4.279  20.108  0.00  0.00    +0.000 C 
ENDROOT
BRANCH   6  14
ATOM     14  C   UNL     1       6.147   4.925  14.513  0.00  0.00    +0.000 C 
ATOM     15  N   UNL     1       7.345   5.358  14.272  0.00  0.00    +0.000 NA
ATOM     16  C   UNL     1       7.699   4.714  13.005  0.00  0.00    +0.000 C 
ATOM     17  C   UNL     1       6.587   3.727  12.729  0.00  0.00    +0.000 C 
ATOM     18  O   UNL     1       5.569   4.049  13.661  0.00  0.00    +0.000 OA
ENDBRANCH   6  14
BRANCH   1  19
ATOM     19  C   UNL     1       2.373   7.155  19.626  0.00  0.00    +0.000 C 
BRANCH  19  20
ATOM     20  C   UNL     1       1.966   8.339  18.755  0.00  0.00    +0.000 C 
BRANCH  20  21
ATOM     21  C   UNL     1       1.235   9.456  19.497  0.00  0.00    +0.000 C 
BRANCH  21  22
ATOM     22  O   UNL     1       0.973  10.474  18.531  0.00  0.00    +0.000 OA
BRANCH  22  29
ATOM     23  C   UNL     1       3.526  14.487  18.149  0.00  0.00    +0.000 C 
ATOM     24  C   UNL     1       2.488  13.673  18.862  0.00  0.00    +0.000 A 
ATOM     25  C   UNL     1       1.875  14.144  20.008  0.00  0.00    +0.000 A 
ATOM     26  C   UNL     1       0.943  13.313  20.599  0.00  0.00    +0.000 A 
ATOM     27  C   UNL     1       0.206  13.727  21.836  0.00  0.00    +0.000 C 
ATOM     28  N   UNL     1       0.642  12.100  20.100  0.00  0.00    +0.000 NA
ATOM     29  C   UNL     1       1.279  11.738  18.980  0.00  0.00    +0.000 A 
ATOM     30  N   UNL     1       2.194  12.471  18.328  0.00  0.00    +0.000 NA
ENDBRANCH  22  29
ENDBRANCH  21  22
ENDBRANCH  20  21
ENDBRANCH  19  20
ENDBRANCH   1  19
TORSDOF 6
ENDMDL
