MODEL 1
REMARK VINA RESULT:      -7.8      0.000      0.000
REMARK  Name = 
REMARK  4 active torsions:
REMARK  status: ('A' for Active; 'I' for Inactive)
REMARK    1  A    between atoms: C_1  and  O_2
REMARK    2  A    between atoms: O_2  and  C_3
REMARK    3  A    between atoms: C_14  and  N_15
REMARK    4  A    between atoms: C_16  and  C_17
REMARK                            x       y       z     vdW  Elec       q    Type
REMARK                         _______ _______ _______ _____ _____    ______ ____
ROOT
ATOM      1  C   UNL     1       3.736   3.620  19.583  0.00  0.00    +0.000 A 
ATOM      2  C   UNL     1       2.687   3.940  20.428  0.00  0.00    +0.000 A 
ATOM      3  C   UNL     1       2.067   5.172  20.359  0.00  0.00    +0.000 A 
ATOM      4  C   UNL     1       2.494   6.124  19.425  0.00  0.00    +0.000 A 
ATOM      5  C   UNL     1       1.821   7.357  19.366  0.00  0.00    +0.000 A 
ATOM      6  C   UNL     1       2.223   8.322  18.439  0.00  0.00    +0.000 A 
ATOM      7  C   UNL     1       3.271   8.054  17.567  0.00  0.00    +0.000 A 
ATOM      8  C   UNL     1       3.953   6.818  17.610  0.00  0.00    +0.000 A 
ATOM      9  C   UNL     1       3.579   5.838  18.560  0.00  0.00    +0.000 A 
ATOM     10  C   UNL     1       4.215   4.591  18.660  0.00  0.00    +0.000 A 
ATOM     11  C   UNL     1       5.392   4.273  17.772  0.00  0.00    +0.000 C 
ATOM     12  C   UNL     1       5.775   5.228  16.610  0.00  0.00    +0.000 C 
ATOM     13  C   UNL     1       5.085   6.608  16.631  0.00  0.00    +0.000 C 
ENDROOT
BRANCH  12  14
ATOM     14  N   UNL     1       5.633   4.537  15.297  0.00  0.00    +0.000 N 
ATOM     15  C   UNL     1       6.557   4.616  14.279  0.00  0.00    +0.000 C 
ATOM     16  C   UNL     1       6.245   3.825  13.019  0.00  0.00    +0.000 C 
ATOM     17  O   UNL     1       7.591   5.270  14.343  0.00  0.00    +0.000 OA
ATOM     18  H   UNL     1       4.816   3.965  15.155  0.00  0.00    +0.000 HD
ENDBRANCH  12  14
BRANCH   1  20
ATOM     19  C   UNL     1       3.569   1.388  18.820  0.00  0.00    +0.000 C 
ATOM     20  O   UNL     1       4.286   2.351  19.612  0.00  0.00    +0.000 OA
ENDBRANCH   1  20
TORSDOF 2
ENDMDL
MODEL 2
REMARK VINA RESULT:      -7.5      2.242      4.271
REMARK  Name = 
REMARK  4 active torsions:
REMARK  status: ('A' for Active; 'I' for Inactive)
REMARK    1  A    between atoms: C_1  and  O_2
REMARK    2  A    between atoms: O_2  and  C_3
REMARK    3  A    between atoms: C_14  and  N_15
REMARK    4  A    between atoms: C_16  and  C_17
REMARK                            x       y       z     vdW  Elec       q    Type
REMARK                         _______ _______ _______ _____ _____    ______ ____
ROOT
ATOM      1  C   UNL     1       2.023   6.420  19.919  0.00  0.00    +0.000 A 
ATOM      2  C   UNL     1       1.271   5.589  20.732  0.00  0.00    +0.000 A 
ATOM      3  C   UNL     1       1.303   4.217  20.571  0.00  0.00    +0.000 A 
ATOM      4  C   UNL     1       2.105   3.643  19.577  0.00  0.00    +0.000 A 
ATOM      5  C   UNL     1       2.134   2.242  19.463  0.00  0.00    +0.000 A 
ATOM      6  C   UNL     1       2.930   1.643  18.483  0.00  0.00    +0.000 A 
ATOM      7  C   UNL     1       3.704   2.431  17.640  0.00  0.00    +0.000 A 
ATOM      8  C   UNL     1       3.690   3.838  17.747  0.00  0.00    +0.000 A 
ATOM      9  C   UNL     1       2.870   4.466  18.715  0.00  0.00    +0.000 A 
ATOM     10  C   UNL     1       2.806   5.859  18.873  0.00  0.00    +0.000 A 
ATOM     11  C   UNL     1       3.587   6.757  17.947  0.00  0.00    +0.000 C 
ATOM     12  C   UNL     1       4.619   6.154  16.957  0.00  0.00    +0.000 C 
ATOM     13  C   UNL     1       4.557   4.622  16.788  0.00  0.00    +0.000 C 
ENDROOT
BRANCH  12  14
ATOM     14  N   UNL     1       5.992   6.641  17.272  0.00  0.00    +0.000 N 
ATOM     15  C   UNL     1       6.720   6.240  18.370  0.00  0.00    +0.000 C 
ATOM     16  C   UNL     1       8.112   6.834  18.512  0.00  0.00    +0.000 C 
ATOM     17  O   UNL     1       6.313   5.444  19.208  0.00  0.00    +0.000 OA
ATOM     18  H   UNL     1       6.415   7.293  16.632  0.00  0.00    +0.000 HD
ENDBRANCH  12  14
BRANCH   1  20
ATOM     19  C   UNL     1       1.138   8.208  21.190  0.00  0.00    +0.000 C 
ATOM     20  O   UNL     1       2.040   7.784  20.151  0.00  0.00    +0.000 OA
ENDBRANCH   1  20
TORSDOF 2
ENDMDL
MODEL 3
REMARK VINA RESULT:      -7.3      2.193      4.224
REMARK  Name = 
REMARK  4 active torsions:
REMARK  status: ('A' for Active; 'I' for Inactive)
REMARK    1  A    between atoms: C_1  and  O_2
REMARK    2  A    between atoms: O_2  and  C_3
REMARK    3  A    between atoms: C_14  and  N_15
REMARK    4  A    between atoms: C_16  and  C_17
REMARK                            x       y       z     vdW  Elec       q    Type
REMARK                         _______ _______ _______ _____ _____    ______ ____
ROOT
ATOM      1  C   UNL     1       2.573   7.029  18.878  0.00  0.00    +0.000 A 
ATOM      2  C   UNL     1       1.788   7.200  20.006  0.00  0.00    +0.000 A 
ATOM      3  C   UNL     1       1.388   6.118  20.766  0.00  0.00    +0.000 A 
ATOM      4  C   UNL     1       1.776   4.821  20.404  0.00  0.00    +0.000 A 
ATOM      5  C   UNL     1       1.374   3.748  21.218  0.00  0.00    +0.000 A 
ATOM      6  C   UNL     1       1.752   2.445  20.883  0.00  0.00    +0.000 A 
ATOM      7  C   UNL     1       2.539   2.217  19.762  0.00  0.00    +0.000 A 
ATOM      8  C   UNL     1       2.957   3.286  18.938  0.00  0.00    +0.000 A 
ATOM      9  C   UNL     1       2.561   4.610  19.245  0.00  0.00    +0.000 A 
ATOM     10  C   UNL     1       2.938   5.717  18.469  0.00  0.00    +0.000 A 
ATOM     11  C   UNL     1       3.748   5.515  17.213  0.00  0.00    +0.000 C 
ATOM     12  C   UNL     1       4.343   4.121  16.882  0.00  0.00    +0.000 C 
ATOM     13  C   UNL     1       3.807   2.951  17.735  0.00  0.00    +0.000 C 
ENDROOT
BRANCH  12  14
ATOM     14  N   UNL     1       5.833   4.180  16.862  0.00  0.00    +0.000 N 
ATOM     15  C   UNL     1       6.609   4.453  17.967  0.00  0.00    +0.000 C 
ATOM     16  C   UNL     1       8.113   4.452  17.753  0.00  0.00    +0.000 C 
ATOM     17  O   UNL     1       6.155   4.684  19.082  0.00  0.00    +0.000 OA
ATOM     18  H   UNL     1       6.297   3.994  15.988  0.00  0.00    +0.000 HD
ENDBRANCH  12  14
BRANCH   1  20
ATOM     19  C   UNL     1       2.003   9.090  17.868  0.00  0.00    +0.000 C 
ATOM     20  O   UNL     1       3.031   8.133  18.181  0.00  0.00    +0.000 OA
ENDBRANCH   1  20
TORSDOF 2
ENDMDL
MODEL 4
REMARK VINA RESULT:      -7.2      1.052      1.276
REMARK  Name = 
REMARK  4 active torsions:
REMARK  status: ('A' for Active; 'I' for Inactive)
REMARK    1  A    between atoms: C_1  and  O_2
REMARK    2  A    between atoms: O_2  and  C_3
REMARK    3  A    between atoms: C_14  and  N_15
REMARK    4  A    between atoms: C_16  and  C_17
REMARK                            x       y       z     vdW  Elec       q    Type
REMARK                         _______ _______ _______ _____ _____    ______ ____
ROOT
ATOM      1  C   UNL     1       3.877   2.856  20.081  0.00  0.00    +0.000 A 
ATOM      2  C   UNL     1       2.864   2.900  21.024  0.00  0.00    +0.000 A 
ATOM      3  C   UNL     1       2.096   4.036  21.191  0.00  0.00    +0.000 A 
ATOM      4  C   UNL     1       2.332   5.168  20.401  0.00  0.00    +0.000 A 
ATOM      5  C   UNL     1       1.511   6.296  20.579  0.00  0.00    +0.000 A 
ATOM      6  C   UNL     1       1.721   7.436  19.800  0.00  0.00    +0.000 A 
ATOM      7  C   UNL     1       2.725   7.445  18.840  0.00  0.00    +0.000 A 
ATOM      8  C   UNL     1       3.553   6.319  18.644  0.00  0.00    +0.000 A 
ATOM      9  C   UNL     1       3.374   5.163  19.442  0.00  0.00    +0.000 A 
ATOM     10  C   UNL     1       4.163   4.011  19.302  0.00  0.00    +0.000 A 
ATOM     11  C   UNL     1       5.299   3.992  18.310  0.00  0.00    +0.000 C 
ATOM     12  C   UNL     1       5.474   5.156  17.299  0.00  0.00    +0.000 C 
ATOM     13  C   UNL     1       4.624   6.413  17.582  0.00  0.00    +0.000 C 
ENDROOT
BRANCH  12  14
ATOM     14  N   UNL     1       5.317   4.662  15.901  0.00  0.00    +0.000 N 
ATOM     15  C   UNL     1       6.365   4.476  15.026  0.00  0.00    +0.000 C 
ATOM     16  C   UNL     1       6.008   3.947  13.647  0.00  0.00    +0.000 C 
ATOM     17  O   UNL     1       7.536   4.706  15.303  0.00  0.00    +0.000 OA
ATOM     18  H   UNL     1       4.388   4.437  15.586  0.00  0.00    +0.000 HD
ENDBRANCH  12  14
BRANCH   1  20
ATOM     19  C   UNL     1       5.273   1.205  21.041  0.00  0.00    +0.000 C 
ATOM     20  O   UNL     1       4.578   1.681  19.874  0.00  0.00    +0.000 OA
ENDBRANCH   1  20
TORSDOF 2
ENDMDL
MODEL 5
REMARK VINA RESULT:      -7.2      1.231      1.241
REMARK  Name = 
REMARK  4 active torsions:
REMARK  status: ('A' for Active; 'I' for Inactive)
REMARK    1  A    between atoms: C_1  and  O_2
REMARK    2  A    between atoms: O_2  and  C_3
REMARK    3  A    between atoms: C_14  and  N_15
REMARK    4  A    between atoms: C_16  and  C_17
REMARK                            x       y       z     vdW  Elec       q    Type
REMARK                         _______ _______ _______ _____ _____    ______ ____
ROOT
ATOM      1  C   UNL     1       3.189   2.965  17.985  0.00  0.00    +0.000 A 
ATOM      2  C   UNL     1       2.052   3.314  18.694  0.00  0.00    +0.000 A 
ATOM      3  C   UNL     1       1.688   4.637  18.850  0.00  0.00    +0.000 A 
ATOM      4  C   UNL     1       2.469   5.654  18.287  0.00  0.00    +0.000 A 
ATOM      5  C   UNL     1       2.051   6.987  18.443  0.00  0.00    +0.000 A 
ATOM      6  C   UNL     1       2.809   8.020  17.887  0.00  0.00    +0.000 A 
ATOM      7  C   UNL     1       3.960   7.727  17.166  0.00  0.00    +0.000 A 
ATOM      8  C   UNL     1       4.389   6.393  16.995  0.00  0.00    +0.000 A 
ATOM      9  C   UNL     1       3.650   5.333  17.575  0.00  0.00    +0.000 A 
ATOM     10  C   UNL     1       4.021   3.986  17.447  0.00  0.00    +0.000 A 
ATOM     11  C   UNL     1       5.290   3.621  16.719  0.00  0.00    +0.000 C 
ATOM     12  C   UNL     1       6.080   4.701  15.934  0.00  0.00    +0.000 C 
ATOM     13  C   UNL     1       5.654   6.160  16.202  0.00  0.00    +0.000 C 
ENDROOT
BRANCH  12  14
ATOM     14  N   UNL     1       6.112   4.372  14.480  0.00  0.00    +0.000 N 
ATOM     15  C   UNL     1       7.102   4.785  13.616  0.00  0.00    +0.000 C 
ATOM     16  C   UNL     1       6.971   4.333  12.171  0.00  0.00    +0.000 C 
ATOM     17  O   UNL     1       8.059   5.474  13.952  0.00  0.00    +0.000 OA
ATOM     18  H   UNL     1       5.369   3.799  14.114  0.00  0.00    +0.000 HD
ENDBRANCH  12  14
BRANCH   1  20
ATOM     19  C   UNL     1       3.889   0.927  18.960  0.00  0.00    +0.000 C 
ATOM     20  O   UNL     1       3.489   1.632  17.771  0.00  0.00    +0.000 OA
ENDBRANCH   1  20
TORSDOF 2
ENDMDL
MODEL 6
REMARK VINA RESULT:      -7.1      2.989      5.789
REMARK  Name = 
REMARK  4 active torsions:
REMARK  status: ('A' for Active; 'I' for Inactive)
REMARK    1  A    between atoms: C_1  and  O_2
REMARK    2  A    between atoms: O_2  and  C_3
REMARK    3  A    between atoms: C_14  and  N_15
REMARK    4  A    between atoms: C_16  and  C_17
REMARK                            x       y       z     vdW  Elec       q    Type
REMARK                         _______ _______ _______ _____ _____    ______ ____
ROOT
ATOM      1  C   UNL     1       4.223   5.139  17.078  0.00  0.00    +0.000 A 
ATOM      2  C   UNL     1       4.324   3.782  16.820  0.00  0.00    +0.000 A 
ATOM      3  C   UNL     1       3.642   2.859  17.587  0.00  0.00    +0.000 A 
ATOM      4  C   UNL     1       2.829   3.285  18.646  0.00  0.00    +0.000 A 
ATOM      5  C   UNL     1       2.128   2.318  19.386  0.00  0.00    +0.000 A 
ATOM      6  C   UNL     1       1.306   2.716  20.444  0.00  0.00    +0.000 A 
ATOM      7  C   UNL     1       1.169   4.065  20.746  0.00  0.00    +0.000 A 
ATOM      8  C   UNL     1       1.862   5.049  20.008  0.00  0.00    +0.000 A 
ATOM      9  C   UNL     1       2.721   4.664  18.950  0.00  0.00    +0.000 A 
ATOM     10  C   UNL     1       3.441   5.588  18.178  0.00  0.00    +0.000 A 
ATOM     11  C   UNL     1       3.367   7.059  18.502  0.00  0.00    +0.000 C 
ATOM     12  C   UNL     1       2.343   7.580  19.546  0.00  0.00    +0.000 C 
ATOM     13  C   UNL     1       1.662   6.493  20.405  0.00  0.00    +0.000 C 
ENDROOT
BRANCH  12  14
ATOM     14  N   UNL     1       1.362   8.500  18.903  0.00  0.00    +0.000 N 
ATOM     15  C   UNL     1       0.778   9.572  19.539  0.00  0.00    +0.000 C 
ATOM     16  C   UNL     1      -0.186  10.407  18.712  0.00  0.00    +0.000 C 
ATOM     17  O   UNL     1       0.997   9.878  20.706  0.00  0.00    +0.000 OA
ATOM     18  H   UNL     1       1.127   8.332  17.938  0.00  0.00    +0.000 HD
ENDBRANCH  12  14
BRANCH   1  20
ATOM     19  C   UNL     1       5.616   5.443  15.191  0.00  0.00    +0.000 C 
ATOM     20  O   UNL     1       4.848   6.050  16.246  0.00  0.00    +0.000 OA
ENDBRANCH   1  20
TORSDOF 2
ENDMDL
MODEL 7
REMARK VINA RESULT:      -6.9      3.084      5.515
REMARK  Name = 
REMARK  4 active torsions:
REMARK  status: ('A' for Active; 'I' for Inactive)
REMARK    1  A    between atoms: C_1  and  O_2
REMARK    2  A    between atoms: O_2  and  C_3
REMARK    3  A    between atoms: C_14  and  N_15
REMARK    4  A    between atoms: C_16  and  C_17
REMARK                            x       y       z     vdW  Elec       q    Type
REMARK                         _______ _______ _______ _____ _____    ______ ____
ROOT
ATOM      1  C   UNL     1       2.071   3.149  19.307  0.00  0.00    +0.000 A 
ATOM      2  C   UNL     1       2.849   2.158  18.731  0.00  0.00    +0.000 A 
ATOM      3  C   UNL     1       3.857   2.471  17.840  0.00  0.00    +0.000 A 
ATOM      4  C   UNL     1       4.109   3.807  17.503  0.00  0.00    +0.000 A 
ATOM      5  C   UNL     1       5.161   4.088  16.614  0.00  0.00    +0.000 A 
ATOM      6  C   UNL     1       5.438   5.413  16.265  0.00  0.00    +0.000 A 
ATOM      7  C   UNL     1       4.688   6.446  16.813  0.00  0.00    +0.000 A 
ATOM      8  C   UNL     1       3.633   6.180  17.712  0.00  0.00    +0.000 A 
ATOM      9  C   UNL     1       3.319   4.843  18.056  0.00  0.00    +0.000 A 
ATOM     10  C   UNL     1       2.282   4.507  18.941  0.00  0.00    +0.000 A 
ATOM     11  C   UNL     1       1.406   5.590  19.519  0.00  0.00    +0.000 C 
ATOM     12  C   UNL     1       1.768   7.084  19.310  0.00  0.00    +0.000 C 
ATOM     13  C   UNL     1       2.863   7.360  18.258  0.00  0.00    +0.000 C 
ENDROOT
BRANCH  12  14
ATOM     14  N   UNL     1       2.053   7.741  20.618  0.00  0.00    +0.000 N 
ATOM     15  C   UNL     1       1.185   8.599  21.256  0.00  0.00    +0.000 C 
ATOM     16  C   UNL     1       1.645   9.156  22.593  0.00  0.00    +0.000 C 
ATOM     17  O   UNL     1       0.089   8.919  20.811  0.00  0.00    +0.000 OA
ATOM     18  H   UNL     1       2.929   7.530  21.067  0.00  0.00    +0.000 HD
ENDBRANCH  12  14
BRANCH   1  20
ATOM     19  C   UNL     1       1.670   2.612  21.575  0.00  0.00    +0.000 C 
ATOM     20  O   UNL     1       1.125   2.819  20.259  0.00  0.00    +0.000 OA
ENDBRANCH   1  20
TORSDOF 2
ENDMDL
MODEL 8
REMARK VINA RESULT:      -6.7      1.889      4.587
REMARK  Name = 
REMARK  4 active torsions:
REMARK  status: ('A' for Active; 'I' for Inactive)
REMARK    1  A    between atoms: C_1  and  O_2
REMARK    2  A    between atoms: O_2  and  C_3
REMARK    3  A    between atoms: C_14  and  N_15
REMARK    4  A    between atoms: C_16  and  C_17
REMARK                            x       y       z     vdW  Elec       q    Type
REMARK                         _______ _______ _______ _____ _____    ______ ____
ROOT
ATOM      1  C   UNL     1       5.198   4.594  15.917  0.00  0.00    +0.000 A 
ATOM      2  C   UNL     1       5.537   5.903  15.618  0.00  0.00    +0.000 A 
ATOM      3  C   UNL     1       4.918   6.961  16.254  0.00  0.00    +0.000 A 
ATOM      4  C   UNL     1       3.932   6.724  17.220  0.00  0.00    +0.000 A 
ATOM      5  C   UNL     1       3.345   7.825  17.866  0.00  0.00    +0.000 A 
ATOM      6  C   UNL     1       2.363   7.616  18.838  0.00  0.00    +0.000 A 
ATOM      7  C   UNL     1       1.984   6.322  19.175  0.00  0.00    +0.000 A 
ATOM      8  C   UNL     1       2.569   5.206  18.539  0.00  0.00    +0.000 A 
ATOM      9  C   UNL     1       3.547   5.398  17.533  0.00  0.00    +0.000 A 
ATOM     10  C   UNL     1       4.166   4.333  16.860  0.00  0.00    +0.000 A 
ATOM     11  C   UNL     1       3.750   2.914  17.153  0.00  0.00    +0.000 C 
ATOM     12  C   UNL     1       2.796   2.606  18.337  0.00  0.00    +0.000 C 
ATOM     13  C   UNL     1       2.098   3.833  18.961  0.00  0.00    +0.000 C 
ENDROOT
BRANCH  12  14
ATOM     14  N   UNL     1       3.480   1.758  19.354  0.00  0.00    +0.000 N 
ATOM     15  C   UNL     1       4.619   2.133  20.032  0.00  0.00    +0.000 C 
ATOM     16  C   UNL     1       5.161   1.139  21.046  0.00  0.00    +0.000 C 
ATOM     17  O   UNL     1       5.194   3.203  19.864  0.00  0.00    +0.000 OA
ATOM     18  H   UNL     1       3.073   0.862  19.566  0.00  0.00    +0.000 HD
ENDBRANCH  12  14
BRANCH   1  20
ATOM     19  C   UNL     1       6.308   3.817  13.978  0.00  0.00    +0.000 C 
ATOM     20  O   UNL     1       5.889   3.549  15.328  0.00  0.00    +0.000 OA
ENDBRANCH   1  20
TORSDOF 2
ENDMDL
MODEL 9
REMARK VINA RESULT:      -6.7      1.146      1.146
REMARK  Name = 
REMARK  4 active torsions:
REMARK  status: ('A' for Active; 'I' for Inactive)
REMARK    1  A    between atoms: C_1  and  O_2
REMARK    2  A    between atoms: O_2  and  C_3
REMARK    3  A    between atoms: C_14  and  N_15
REMARK    4  A    between atoms: C_16  and  C_17
REMARK                            x       y       z     vdW  Elec       q    Type
REMARK                         _______ _______ _______ _____ _____    ______ ____
ROOT
ATOM      1  C   UNL     1       4.377   3.643  19.436  0.00  0.00    +0.000 A 
ATOM      2  C   UNL     1       3.123   3.767  20.010  0.00  0.00    +0.000 A 
ATOM      3  C   UNL     1       2.349   4.891  19.796  0.00  0.00    +0.000 A 
ATOM      4  C   UNL     1       2.825   5.930  18.986  0.00  0.00    +0.000 A 
ATOM      5  C   UNL     1       1.997   7.045  18.768  0.00  0.00    +0.000 A 
ATOM      6  C   UNL     1       2.445   8.093  17.960  0.00  0.00    +0.000 A 
ATOM      7  C   UNL     1       3.696   8.021  17.361  0.00  0.00    +0.000 A 
ATOM      8  C   UNL     1       4.536   6.905  17.565  0.00  0.00    +0.000 A 
ATOM      9  C   UNL     1       4.112   5.845  18.402  0.00  0.00    +0.000 A 
ATOM     10  C   UNL     1       4.897   4.709  18.650  0.00  0.00    +0.000 A 
ATOM     11  C   UNL     1       6.283   4.609  18.065  0.00  0.00    +0.000 C 
ATOM     12  C   UNL     1       6.770   5.652  17.024  0.00  0.00    +0.000 C 
ATOM     13  C   UNL     1       5.884   6.907  16.880  0.00  0.00    +0.000 C 
ENDROOT
BRANCH  12  14
ATOM     14  N   UNL     1       7.048   4.994  15.715  0.00  0.00    +0.000 N 
ATOM     15  C   UNL     1       6.081   4.428  14.915  0.00  0.00    +0.000 C 
ATOM     16  C   UNL     1       6.558   3.820  13.606  0.00  0.00    +0.000 C 
ATOM     17  O   UNL     1       4.889   4.399  15.198  0.00  0.00    +0.000 OA
ATOM     18  H   UNL     1       8.002   4.978  15.394  0.00  0.00    +0.000 HD
ENDBRANCH  12  14
BRANCH   1  20
ATOM     19  C   UNL     1       4.700   1.696  20.739  0.00  0.00    +0.000 C 
ATOM     20  O   UNL     1       5.099   2.475  19.597  0.00  0.00    +0.000 OA
ENDBRANCH   1  20
TORSDOF 2
ENDMDL
