MODEL 1
REMARK VINA RESULT:      -8.0      0.000      0.000
REMARK  Name = 
REMARK  10 active torsions:
REMARK  status: ('A' for Active; 'I' for Inactive)
REMARK    1  A    between atoms: C_1  and  O_2
REMARK    2  A    between atoms: O_2  and  C_3
REMARK    3  A    between atoms: C_6  and  C_7
REMARK    4  A    between atoms: C_7  and  C_8
REMARK    5  A    between atoms: C_11  and  C_12
REMARK    6  A    between atoms: C_12  and  S_13
REMARK    7  A    between atoms: S_13  and  C_14
REMARK    8  A    between atoms: C_19  and  O_20
REMARK    9  A    between atoms: N_25  and  C_26
REMARK   10  A    between atoms: C_26  and  C_27
REMARK                            x       y       z     vdW  Elec       q    Type
REMARK                         _______ _______ _______ _____ _____    ______ ____
ROOT
ATOM      1  C   UNL     1       3.022   6.928  17.583  0.00  0.00    +0.000 A 
ATOM      2  N   UNL     1       4.188   7.428  17.328  0.00  0.00    +0.000 NA
ATOM      3  C   UNL     1       5.290   6.562  17.355  0.00  0.00    +0.000 A 
ATOM      4  C   UNL     1       6.581   7.090  17.437  0.00  0.00    +0.000 A 
ATOM      5  C   UNL     1       7.683   6.245  17.620  0.00  0.00    +0.000 A 
ATOM      6  C   UNL     1       7.495   4.868  17.679  0.00  0.00    +0.000 A 
ATOM      7  C   UNL     1       6.232   4.318  17.528  0.00  0.00    +0.000 A 
ATOM      8  C   UNL     1       5.140   5.179  17.389  0.00  0.00    +0.000 A 
ATOM      9  C   UNL     1       3.772   4.659  17.394  0.00  0.00    +0.000 A 
ATOM     10  O   UNL     1       3.573   3.491  17.073  0.00  0.00    +0.000 OA
ATOM     11  N   UNL     1       2.780   5.569  17.755  0.00  0.00    +0.000 N 
ENDROOT
BRANCH   6  12
ATOM     12  O   UNL     1       8.528   4.019  17.938  0.00  0.00    +0.000 OA
ATOM     13  H   UNL     1       9.336   4.541  18.081  0.00  0.00    +0.000 HD
ENDBRANCH   6  12
BRANCH   1  14
ATOM     14  S   UNL     1       1.670   8.052  17.729  0.00  0.00    +0.000 S 
BRANCH  14  15
ATOM     15  C   UNL     1       1.758   8.510  19.493  0.00  0.00    +0.000 C 
BRANCH  15  21
ATOM     16  C   UNL     1       0.609  10.146  21.161  0.00  0.00    +0.000 A 
ATOM     17  C   UNL     1      -0.437  11.053  21.409  0.00  0.00    +0.000 A 
ATOM     18  C   UNL     1      -1.359  11.413  20.421  0.00  0.00    +0.000 A 
ATOM     19  C   UNL     1      -1.258  10.857  19.152  0.00  0.00    +0.000 A 
ATOM     20  C   UNL     1      -0.197   9.963  18.892  0.00  0.00    +0.000 A 
ATOM     21  C   UNL     1       0.746   9.577  19.882  0.00  0.00    +0.000 A 
BRANCH  19  22
ATOM     22  C   UNL     1      -2.251  11.123  18.059  0.00  0.00    +0.000 C 
ATOM     23  C   UNL     1      -2.192  10.388  16.740  0.00  0.00    +0.000 C 
ATOM     24  O   UNL     1      -3.128  11.969  18.244  0.00  0.00    +0.000 OA
ENDBRANCH  19  22
BRANCH  16  26
ATOM     25  C   UNL     1       0.567   9.364  23.421  0.00  0.00    +0.000 C 
ATOM     26  O   UNL     1       1.296   9.835  22.300  0.00  0.00    +0.000 OA
ENDBRANCH  16  26
ENDBRANCH  15  21
ENDBRANCH  14  15
ENDBRANCH   1  14
BRANCH  11  27
ATOM     27  C   UNL     1       1.484   4.980  18.084  0.00  0.00    +0.000 C 
BRANCH  27  28
ATOM     28  C   UNL     1       1.504   4.256  19.407  0.00  0.00    +0.000 A 
ATOM     29  C   UNL     1       1.046   2.976  19.672  0.00  0.00    +0.000 A 
ATOM     30  C   UNL     1       1.371   2.537  20.987  0.00  0.00    +0.000 A 
ATOM     31  C   UNL     1       2.042   3.502  21.702  0.00  0.00    +0.000 A 
ATOM     32  S   UNL     1       2.267   4.933  20.788  0.00  0.00    +0.000 S 
ENDBRANCH  27  28
ENDBRANCH  11  27
TORSDOF 8
ENDMDL
MODEL 2
REMARK VINA RESULT:      -8.0      1.743      2.636
REMARK  Name = 
REMARK  10 active torsions:
REMARK  status: ('A' for Active; 'I' for Inactive)
REMARK    1  A    between atoms: C_1  and  O_2
REMARK    2  A    between atoms: O_2  and  C_3
REMARK    3  A    between atoms: C_6  and  C_7
REMARK    4  A    between atoms: C_7  and  C_8
REMARK    5  A    between atoms: C_11  and  C_12
REMARK    6  A    between atoms: C_12  and  S_13
REMARK    7  A    between atoms: S_13  and  C_14
REMARK    8  A    between atoms: C_19  and  O_20
REMARK    9  A    between atoms: N_25  and  C_26
REMARK   10  A    between atoms: C_26  and  C_27
REMARK                            x       y       z     vdW  Elec       q    Type
REMARK                         _______ _______ _______ _____ _____    ______ ____
ROOT
ATOM      1  C   UNL     1       2.791   6.895  17.773  0.00  0.00    +0.000 A 
ATOM      2  N   UNL     1       3.923   7.449  17.482  0.00  0.00    +0.000 NA
ATOM      3  C   UNL     1       5.043   6.615  17.355  0.00  0.00    +0.000 A 
ATOM      4  C   UNL     1       6.324   7.172  17.392  0.00  0.00    +0.000 A 
ATOM      5  C   UNL     1       7.456   6.346  17.421  0.00  0.00    +0.000 A 
ATOM      6  C   UNL     1       7.304   4.965  17.371  0.00  0.00    +0.000 A 
ATOM      7  C   UNL     1       6.046   4.393  17.261  0.00  0.00    +0.000 A 
ATOM      8  C   UNL     1       4.928   5.231  17.276  0.00  0.00    +0.000 A 
ATOM      9  C   UNL     1       3.576   4.674  17.332  0.00  0.00    +0.000 A 
ATOM     10  O   UNL     1       3.381   3.532  16.924  0.00  0.00    +0.000 OA
ATOM     11  N   UNL     1       2.593   5.520  17.841  0.00  0.00    +0.000 N 
ENDROOT
BRANCH   6  12
ATOM     12  O   UNL     1       8.372   4.127  17.480  0.00  0.00    +0.000 OA
ATOM     13  H   UNL     1       9.170   4.655  17.656  0.00  0.00    +0.000 HD
ENDBRANCH   6  12
BRANCH   1  14
ATOM     14  S   UNL     1       1.427   7.962  18.112  0.00  0.00    +0.000 S 
BRANCH  14  15
ATOM     15  C   UNL     1       2.200   9.609  17.966  0.00  0.00    +0.000 C 
BRANCH  15  21
ATOM     16  C   UNL     1       1.711  12.034  18.776  0.00  0.00    +0.000 A 
ATOM     17  C   UNL     1       1.178  12.871  19.773  0.00  0.00    +0.000 A 
ATOM     18  C   UNL     1       0.527  12.363  20.901  0.00  0.00    +0.000 A 
ATOM     19  C   UNL     1       0.403  10.988  21.062  0.00  0.00    +0.000 A 
ATOM     20  C   UNL     1       0.916  10.145  20.054  0.00  0.00    +0.000 A 
ATOM     21  C   UNL     1       1.589  10.639  18.903  0.00  0.00    +0.000 A 
BRANCH  19  22
ATOM     22  C   UNL     1      -0.207  10.357  22.279  0.00  0.00    +0.000 C 
ATOM     23  C   UNL     1      -0.449   8.868  22.361  0.00  0.00    +0.000 C 
ATOM     24  O   UNL     1      -0.523  11.076  23.228  0.00  0.00    +0.000 OA
ENDBRANCH  19  22
BRANCH  16  26
ATOM     25  C   UNL     1       3.270  13.782  18.292  0.00  0.00    +0.000 C 
ATOM     26  O   UNL     1       2.423  12.736  17.846  0.00  0.00    +0.000 OA
ENDBRANCH  16  26
ENDBRANCH  15  21
ENDBRANCH  14  15
ENDBRANCH   1  14
BRANCH  11  27
ATOM     27  C   UNL     1       1.338   4.867  18.207  0.00  0.00    +0.000 C 
BRANCH  27  28
ATOM     28  C   UNL     1       1.427   4.160  19.536  0.00  0.00    +0.000 A 
ATOM     29  C   UNL     1       0.971   2.888  19.844  0.00  0.00    +0.000 A 
ATOM     30  C   UNL     1       1.368   2.463  21.144  0.00  0.00    +0.000 A 
ATOM     31  C   UNL     1       2.089   3.429  21.806  0.00  0.00    +0.000 A 
ATOM     32  S   UNL     1       2.275   4.846  20.861  0.00  0.00    +0.000 S 
ENDBRANCH  27  28
ENDBRANCH  11  27
TORSDOF 8
ENDMDL
MODEL 3
REMARK VINA RESULT:      -7.7      0.883      1.013
REMARK  Name = 
REMARK  10 active torsions:
REMARK  status: ('A' for Active; 'I' for Inactive)
REMARK    1  A    between atoms: C_1  and  O_2
REMARK    2  A    between atoms: O_2  and  C_3
REMARK    3  A    between atoms: C_6  and  C_7
REMARK    4  A    between atoms: C_7  and  C_8
REMARK    5  A    between atoms: C_11  and  C_12
REMARK    6  A    between atoms: C_12  and  S_13
REMARK    7  A    between atoms: S_13  and  C_14
REMARK    8  A    between atoms: C_19  and  O_20
REMARK    9  A    between atoms: N_25  and  C_26
REMARK   10  A    between atoms: C_26  and  C_27
REMARK                            x       y       z     vdW  Elec       q    Type
REMARK                         _______ _______ _______ _____ _____    ______ ____
ROOT
ATOM      1  C   UNL     1       3.136   7.034  17.643  0.00  0.00    +0.000 A 
ATOM      2  N   UNL     1       4.302   7.503  17.337  0.00  0.00    +0.000 NA
ATOM      3  C   UNL     1       5.382   6.608  17.322  0.00  0.00    +0.000 A 
ATOM      4  C   UNL     1       6.688   7.104  17.347  0.00  0.00    +0.000 A 
ATOM      5  C   UNL     1       7.775   6.231  17.487  0.00  0.00    +0.000 A 
ATOM      6  C   UNL     1       7.555   4.860  17.560  0.00  0.00    +0.000 A 
ATOM      7  C   UNL     1       6.273   4.342  17.465  0.00  0.00    +0.000 A 
ATOM      8  C   UNL     1       5.199   5.230  17.369  0.00  0.00    +0.000 A 
ATOM      9  C   UNL     1       3.820   4.746  17.434  0.00  0.00    +0.000 A 
ATOM     10  O   UNL     1       3.577   3.582  17.127  0.00  0.00    +0.000 OA
ATOM     11  N   UNL     1       2.867   5.682  17.832  0.00  0.00    +0.000 N 
ENDROOT
BRANCH   6  12
ATOM     12  O   UNL     1       8.577   3.986  17.779  0.00  0.00    +0.000 OA
ATOM     13  H   UNL     1       8.751   3.493  16.959  0.00  0.00    +0.000 HD
ENDBRANCH   6  12
BRANCH   1  14
ATOM     14  S   UNL     1       1.820   8.192  17.841  0.00  0.00    +0.000 S 
BRANCH  14  15
ATOM     15  C   UNL     1       1.809   8.435  19.650  0.00  0.00    +0.000 C 
BRANCH  15  21
ATOM     16  C   UNL     1       0.422   9.757  21.413  0.00  0.00    +0.000 A 
ATOM     17  C   UNL     1      -0.530  10.759  21.670  0.00  0.00    +0.000 A 
ATOM     18  C   UNL     1      -1.062  11.558  20.654  0.00  0.00    +0.000 A 
ATOM     19  C   UNL     1      -0.654  11.360  19.340  0.00  0.00    +0.000 A 
ATOM     20  C   UNL     1       0.318  10.371  19.080  0.00  0.00    +0.000 A 
ATOM     21  C   UNL     1       0.866   9.542  20.096  0.00  0.00    +0.000 A 
BRANCH  19  22
ATOM     22  C   UNL     1      -1.232  12.115  18.179  0.00  0.00    +0.000 C 
ATOM     23  C   UNL     1      -2.374  11.557  17.362  0.00  0.00    +0.000 C 
ATOM     24  O   UNL     1      -0.756  13.213  17.885  0.00  0.00    +0.000 OA
ENDBRANCH  19  22
BRANCH  16  26
ATOM     25  C   UNL     1       0.097   9.390  23.754  0.00  0.00    +0.000 C 
ATOM     26  O   UNL     1       0.692   9.011  22.525  0.00  0.00    +0.000 OA
ENDBRANCH  16  26
ENDBRANCH  15  21
ENDBRANCH  14  15
ENDBRANCH   1  14
BRANCH  11  27
ATOM     27  C   UNL     1       1.572   5.127  18.218  0.00  0.00    +0.000 C 
BRANCH  27  28
ATOM     28  C   UNL     1       1.661   4.277  19.461  0.00  0.00    +0.000 A 
ATOM     29  C   UNL     1       2.233   4.620  20.675  0.00  0.00    +0.000 A 
ATOM     30  C   UNL     1       1.994   3.648  21.688  0.00  0.00    +0.000 A 
ATOM     31  C   UNL     1       1.274   2.576  21.216  0.00  0.00    +0.000 A 
ATOM     32  S   UNL     1       0.898   2.742  19.553  0.00  0.00    +0.000 S 
ENDBRANCH  27  28
ENDBRANCH  11  27
TORSDOF 8
ENDMDL
MODEL 4
REMARK VINA RESULT:      -7.7      1.707      2.627
REMARK  Name = 
REMARK  10 active torsions:
REMARK  status: ('A' for Active; 'I' for Inactive)
REMARK    1  A    between atoms: C_1  and  O_2
REMARK    2  A    between atoms: O_2  and  C_3
REMARK    3  A    between atoms: C_6  and  C_7
REMARK    4  A    between atoms: C_7  and  C_8
REMARK    5  A    between atoms: C_11  and  C_12
REMARK    6  A    between atoms: C_12  and  S_13
REMARK    7  A    between atoms: S_13  and  C_14
REMARK    8  A    between atoms: C_19  and  O_20
REMARK    9  A    between atoms: N_25  and  C_26
REMARK   10  A    between atoms: C_26  and  C_27
REMARK                            x       y       z     vdW  Elec       q    Type
REMARK                         _______ _______ _______ _____ _____    ______ ____
ROOT
ATOM      1  C   UNL     1       3.025   6.966  17.626  0.00  0.00    +0.000 A 
ATOM      2  N   UNL     1       4.179   7.459  17.313  0.00  0.00    +0.000 NA
ATOM      3  C   UNL     1       5.279   6.589  17.298  0.00  0.00    +0.000 A 
ATOM      4  C   UNL     1       6.574   7.114  17.314  0.00  0.00    +0.000 A 
ATOM      5  C   UNL     1       7.680   6.266  17.454  0.00  0.00    +0.000 A 
ATOM      6  C   UNL     1       7.491   4.891  17.535  0.00  0.00    +0.000 A 
ATOM      7  C   UNL     1       6.220   4.344  17.448  0.00  0.00    +0.000 A 
ATOM      8  C   UNL     1       5.126   5.208  17.352  0.00  0.00    +0.000 A 
ATOM      9  C   UNL     1       3.759   4.693  17.426  0.00  0.00    +0.000 A 
ATOM     10  O   UNL     1       3.541   3.523  17.126  0.00  0.00    +0.000 OA
ATOM     11  N   UNL     1       2.787   5.610  17.824  0.00  0.00    +0.000 N 
ENDROOT
BRANCH   6  12
ATOM     12  O   UNL     1       8.533   4.041  17.754  0.00  0.00    +0.000 OA
ATOM     13  H   UNL     1       8.706   3.995  18.710  0.00  0.00    +0.000 HD
ENDBRANCH   6  12
BRANCH   1  14
ATOM     14  S   UNL     1       1.685   8.096  17.824  0.00  0.00    +0.000 S 
BRANCH  14  15
ATOM     15  C   UNL     1       1.867   8.586  19.573  0.00  0.00    +0.000 C 
BRANCH  15  21
ATOM     16  C   UNL     1       1.236  11.085  19.211  0.00  0.00    +0.000 A 
ATOM     17  C   UNL     1       0.572  12.227  19.693  0.00  0.00    +0.000 A 
ATOM     18  C   UNL     1      -0.200  12.201  20.859  0.00  0.00    +0.000 A 
ATOM     19  C   UNL     1      -0.314  11.019  21.582  0.00  0.00    +0.000 A 
ATOM     20  C   UNL     1       0.333   9.866  21.090  0.00  0.00    +0.000 A 
ATOM     21  C   UNL     1       1.128   9.871  19.912  0.00  0.00    +0.000 A 
BRANCH  19  22
ATOM     22  C   UNL     1      -1.052  10.923  22.884  0.00  0.00    +0.000 C 
ATOM     23  C   UNL     1      -2.237  11.809  23.190  0.00  0.00    +0.000 C 
ATOM     24  O   UNL     1      -0.674  10.105  23.725  0.00  0.00    +0.000 OA
ENDBRANCH  19  22
BRANCH  16  26
ATOM     25  C   UNL     1       2.654  12.650  18.089  0.00  0.00    +0.000 C 
ATOM     26  O   UNL     1       2.041  11.374  18.146  0.00  0.00    +0.000 OA
ENDBRANCH  16  26
ENDBRANCH  15  21
ENDBRANCH  14  15
ENDBRANCH   1  14
BRANCH  11  27
ATOM     27  C   UNL     1       1.506   5.029  18.218  0.00  0.00    +0.000 C 
BRANCH  27  28
ATOM     28  C   UNL     1       1.617   4.196  19.471  0.00  0.00    +0.000 A 
ATOM     29  C   UNL     1       2.153   4.579  20.690  0.00  0.00    +0.000 A 
ATOM     30  C   UNL     1       1.946   3.607  21.709  0.00  0.00    +0.000 A 
ATOM     31  C   UNL     1       1.285   2.497  21.239  0.00  0.00    +0.000 A 
ATOM     32  S   UNL     1       0.927   2.627  19.569  0.00  0.00    +0.000 S 
ENDBRANCH  27  28
ENDBRANCH  11  27
TORSDOF 8
ENDMDL
MODEL 5
REMARK VINA RESULT:      -7.6      3.218      8.400
REMARK  Name = 
REMARK  10 active torsions:
REMARK  status: ('A' for Active; 'I' for Inactive)
REMARK    1  A    between atoms: C_1  and  O_2
REMARK    2  A    between atoms: O_2  and  C_3
REMARK    3  A    between atoms: C_6  and  C_7
REMARK    4  A    between atoms: C_7  and  C_8
REMARK    5  A    between atoms: C_11  and  C_12
REMARK    6  A    between atoms: C_12  and  S_13
REMARK    7  A    between atoms: S_13  and  C_14
REMARK    8  A    between atoms: C_19  and  O_20
REMARK    9  A    between atoms: N_25  and  C_26
REMARK   10  A    between atoms: C_26  and  C_27
REMARK                            x       y       z     vdW  Elec       q    Type
REMARK                         _______ _______ _______ _____ _____    ______ ____
ROOT
ATOM      1  C   UNL     1       1.256  10.514  18.332  0.00  0.00    +0.000 A 
ATOM      2  N   UNL     1       2.309  11.258  18.233  0.00  0.00    +0.000 NA
ATOM      3  C   UNL     1       2.188  12.610  18.588  0.00  0.00    +0.000 A 
ATOM      4  C   UNL     1       3.166  13.520  18.179  0.00  0.00    +0.000 A 
ATOM      5  C   UNL     1       2.989  14.893  18.389  0.00  0.00    +0.000 A 
ATOM      6  C   UNL     1       1.852  15.351  19.046  0.00  0.00    +0.000 A 
ATOM      7  C   UNL     1       0.903  14.460  19.524  0.00  0.00    +0.000 A 
ATOM      8  C   UNL     1       1.077  13.097  19.268  0.00  0.00    +0.000 A 
ATOM      9  C   UNL     1       0.027  12.134  19.601  0.00  0.00    +0.000 A 
ATOM     10  O   UNL     1      -0.784  12.411  20.481  0.00  0.00    +0.000 OA
ATOM     11  N   UNL     1       0.052  10.939  18.885  0.00  0.00    +0.000 N 
ENDROOT
BRANCH   6  12
ATOM     12  O   UNL     1       1.603  16.681  19.196  0.00  0.00    +0.000 OA
ATOM     13  H   UNL     1       0.656  16.844  19.042  0.00  0.00    +0.000 HD
ENDBRANCH   6  12
BRANCH   1  14
ATOM     14  S   UNL     1       1.364   8.866  17.711  0.00  0.00    +0.000 S 
BRANCH  14  15
ATOM     15  C   UNL     1       2.233   8.014  19.072  0.00  0.00    +0.000 C 
BRANCH  15  21
ATOM     16  C   UNL     1       3.651   6.264  17.765  0.00  0.00    +0.000 A 
ATOM     17  C   UNL     1       3.881   4.912  17.455  0.00  0.00    +0.000 A 
ATOM     18  C   UNL     1       3.157   3.877  18.054  0.00  0.00    +0.000 A 
ATOM     19  C   UNL     1       2.166   4.179  18.982  0.00  0.00    +0.000 A 
ATOM     20  C   UNL     1       1.947   5.533  19.312  0.00  0.00    +0.000 A 
ATOM     21  C   UNL     1       2.665   6.601  18.710  0.00  0.00    +0.000 A 
BRANCH  19  22
ATOM     22  C   UNL     1       1.288   3.138  19.610  0.00  0.00    +0.000 C 
ATOM     23  C   UNL     1       1.241   2.942  21.108  0.00  0.00    +0.000 C 
ATOM     24  O   UNL     1       0.595   2.424  18.883  0.00  0.00    +0.000 OA
ENDBRANCH  19  22
BRANCH  16  26
ATOM     25  C   UNL     1       5.187   6.536  15.953  0.00  0.00    +0.000 C 
ATOM     26  O   UNL     1       4.368   7.103  16.961  0.00  0.00    +0.000 OA
ENDBRANCH  16  26
ENDBRANCH  15  21
ENDBRANCH  14  15
ENDBRANCH   1  14
BRANCH  11  27
ATOM     27  C   UNL     1      -1.165  10.135  18.972  0.00  0.00    +0.000 C 
BRANCH  27  28
ATOM     28  C   UNL     1      -2.143  10.456  17.869  0.00  0.00    +0.000 A 
ATOM     29  C   UNL     1      -2.148   9.954  16.578  0.00  0.00    +0.000 A 
ATOM     30  C   UNL     1      -3.309  10.333  15.846  0.00  0.00    +0.000 A 
ATOM     31  C   UNL     1      -4.145  11.138  16.584  0.00  0.00    +0.000 A 
ATOM     32  S   UNL     1      -3.521  11.440  18.151  0.00  0.00    +0.000 S 
ENDBRANCH  27  28
ENDBRANCH  11  27
TORSDOF 8
ENDMDL
MODEL 6
REMARK VINA RESULT:      -7.6      1.354      1.519
REMARK  Name = 
REMARK  10 active torsions:
REMARK  status: ('A' for Active; 'I' for Inactive)
REMARK    1  A    between atoms: C_1  and  O_2
REMARK    2  A    between atoms: O_2  and  C_3
REMARK    3  A    between atoms: C_6  and  C_7
REMARK    4  A    between atoms: C_7  and  C_8
REMARK    5  A    between atoms: C_11  and  C_12
REMARK    6  A    between atoms: C_12  and  S_13
REMARK    7  A    between atoms: S_13  and  C_14
REMARK    8  A    between atoms: C_19  and  O_20
REMARK    9  A    between atoms: N_25  and  C_26
REMARK   10  A    between atoms: C_26  and  C_27
REMARK                            x       y       z     vdW  Elec       q    Type
REMARK                         _______ _______ _______ _____ _____    ______ ____
ROOT
ATOM      1  C   UNL     1       2.962   7.037  17.686  0.00  0.00    +0.000 A 
ATOM      2  N   UNL     1       4.128   7.524  17.408  0.00  0.00    +0.000 NA
ATOM      3  C   UNL     1       5.213   6.637  17.367  0.00  0.00    +0.000 A 
ATOM      4  C   UNL     1       6.516   7.138  17.422  0.00  0.00    +0.000 A 
ATOM      5  C   UNL     1       7.607   6.266  17.536  0.00  0.00    +0.000 A 
ATOM      6  C   UNL     1       7.394   4.892  17.553  0.00  0.00    +0.000 A 
ATOM      7  C   UNL     1       6.115   4.371  17.427  0.00  0.00    +0.000 A 
ATOM      8  C   UNL     1       5.037   5.257  17.356  0.00  0.00    +0.000 A 
ATOM      9  C   UNL     1       3.660   4.763  17.392  0.00  0.00    +0.000 A 
ATOM     10  O   UNL     1       3.426   3.611  17.036  0.00  0.00    +0.000 OA
ATOM     11  N   UNL     1       2.699   5.678  17.819  0.00  0.00    +0.000 N 
ENDROOT
BRANCH   6  12
ATOM     12  O   UNL     1       8.418   4.015  17.745  0.00  0.00    +0.000 OA
ATOM     13  H   UNL     1       8.526   3.476  16.943  0.00  0.00    +0.000 HD
ENDBRANCH   6  12
BRANCH   1  14
ATOM     14  S   UNL     1       1.638   8.180  17.918  0.00  0.00    +0.000 S 
BRANCH  14  15
ATOM     15  C   UNL     1       1.716   8.477  19.718  0.00  0.00    +0.000 C 
BRANCH  15  21
ATOM     16  C   UNL     1       0.169   9.923  21.231  0.00  0.00    +0.000 A 
ATOM     17  C   UNL     1      -0.467  11.158  21.448  0.00  0.00    +0.000 A 
ATOM     18  C   UNL     1      -0.267  12.255  20.605  0.00  0.00    +0.000 A 
ATOM     19  C   UNL     1       0.576  12.133  19.506  0.00  0.00    +0.000 A 
ATOM     20  C   UNL     1       1.234  10.903  19.298  0.00  0.00    +0.000 A 
ATOM     21  C   UNL     1       1.040   9.772  20.137  0.00  0.00    +0.000 A 
BRANCH  19  22
ATOM     22  C   UNL     1       0.783  13.232  18.506  0.00  0.00    +0.000 C 
ATOM     23  C   UNL     1       2.149  13.536  17.935  0.00  0.00    +0.000 C 
ATOM     24  O   UNL     1      -0.186  13.905  18.150  0.00  0.00    +0.000 OA
ENDBRANCH  19  22
BRANCH  16  26
ATOM     25  C   UNL     1      -0.285   9.240  23.478  0.00  0.00    +0.000 C 
ATOM     26  O   UNL     1      -0.281   8.959  22.089  0.00  0.00    +0.000 OA
ENDBRANCH  16  26
ENDBRANCH  15  21
ENDBRANCH  14  15
ENDBRANCH   1  14
BRANCH  11  27
ATOM     27  C   UNL     1       1.404   5.101  18.171  0.00  0.00    +0.000 C 
BRANCH  27  28
ATOM     28  C   UNL     1       1.458   4.315  19.458  0.00  0.00    +0.000 A 
ATOM     29  C   UNL     1       1.009   3.023  19.673  0.00  0.00    +0.000 A 
ATOM     30  C   UNL     1       1.369   2.523  20.957  0.00  0.00    +0.000 A 
ATOM     31  C   UNL     1       2.056   3.455  21.699  0.00  0.00    +0.000 A 
ATOM     32  S   UNL     1       2.255   4.928  20.849  0.00  0.00    +0.000 S 
ENDBRANCH  27  28
ENDBRANCH  11  27
TORSDOF 8
ENDMDL
MODEL 7
REMARK VINA RESULT:      -7.5      3.288      8.446
REMARK  Name = 
REMARK  10 active torsions:
REMARK  status: ('A' for Active; 'I' for Inactive)
REMARK    1  A    between atoms: C_1  and  O_2
REMARK    2  A    between atoms: O_2  and  C_3
REMARK    3  A    between atoms: C_6  and  C_7
REMARK    4  A    between atoms: C_7  and  C_8
REMARK    5  A    between atoms: C_11  and  C_12
REMARK    6  A    between atoms: C_12  and  S_13
REMARK    7  A    between atoms: S_13  and  C_14
REMARK    8  A    between atoms: C_19  and  O_20
REMARK    9  A    between atoms: N_25  and  C_26
REMARK   10  A    between atoms: C_26  and  C_27
REMARK                            x       y       z     vdW  Elec       q    Type
REMARK                         _______ _______ _______ _____ _____    ______ ____
ROOT
ATOM      1  C   UNL     1       1.101  10.627  18.302  0.00  0.00    +0.000 A 
ATOM      2  N   UNL     1       2.138  11.398  18.245  0.00  0.00    +0.000 NA
ATOM      3  C   UNL     1       1.966  12.749  18.580  0.00  0.00    +0.000 A 
ATOM      4  C   UNL     1       2.938  13.681  18.207  0.00  0.00    +0.000 A 
ATOM      5  C   UNL     1       2.716  15.051  18.394  0.00  0.00    +0.000 A 
ATOM      6  C   UNL     1       1.537  15.484  18.993  0.00  0.00    +0.000 A 
ATOM      7  C   UNL     1       0.591  14.573  19.436  0.00  0.00    +0.000 A 
ATOM      8  C   UNL     1       0.812  13.213  19.202  0.00  0.00    +0.000 A 
ATOM      9  C   UNL     1      -0.227  12.226  19.497  0.00  0.00    +0.000 A 
ATOM     10  O   UNL     1      -1.085  12.489  20.335  0.00  0.00    +0.000 OA
ATOM     11  N   UNL     1      -0.137  11.026  18.794  0.00  0.00    +0.000 N 
ENDROOT
BRANCH   6  12
ATOM     12  O   UNL     1       1.247  16.809  19.118  0.00  0.00    +0.000 OA
ATOM     13  H   UNL     1       1.188  17.031  20.063  0.00  0.00    +0.000 HD
ENDBRANCH   6  12
BRANCH   1  14
ATOM     14  S   UNL     1       1.281   8.977  17.705  0.00  0.00    +0.000 S 
BRANCH  14  15
ATOM     15  C   UNL     1       2.211   8.190  19.064  0.00  0.00    +0.000 C 
BRANCH  15  21
ATOM     16  C   UNL     1       2.583   5.624  19.305  0.00  0.00    +0.000 A 
ATOM     17  C   UNL     1       3.296   4.482  18.901  0.00  0.00    +0.000 A 
ATOM     18  C   UNL     1       4.252   4.524  17.882  0.00  0.00    +0.000 A 
ATOM     19  C   UNL     1       4.525   5.729  17.245  0.00  0.00    +0.000 A 
ATOM     20  C   UNL     1       3.796   6.873  17.632  0.00  0.00    +0.000 A 
ATOM     21  C   UNL     1       2.826   6.856  18.670  0.00  0.00    +0.000 A 
BRANCH  19  22
ATOM     22  C   UNL     1       5.592   5.882  16.201  0.00  0.00    +0.000 C 
ATOM     23  C   UNL     1       5.737   4.892  15.068  0.00  0.00    +0.000 C 
ATOM     24  O   UNL     1       6.370   6.834  16.278  0.00  0.00    +0.000 OA
ENDBRANCH  19  22
BRANCH  16  26
ATOM     25  C   UNL     1       1.126   4.144  20.491  0.00  0.00    +0.000 C 
ATOM     26  O   UNL     1       1.810   5.382  20.405  0.00  0.00    +0.000 OA
ENDBRANCH  16  26
ENDBRANCH  15  21
ENDBRANCH  14  15
ENDBRANCH   1  14
BRANCH  11  27
ATOM     27  C   UNL     1      -1.336  10.191  18.834  0.00  0.00    +0.000 C 
BRANCH  27  28
ATOM     28  C   UNL     1      -2.275  10.485  17.690  0.00  0.00    +0.000 A 
ATOM     29  C   UNL     1      -2.264   9.918  16.426  0.00  0.00    +0.000 A 
ATOM     30  C   UNL     1      -3.394  10.295  15.646  0.00  0.00    +0.000 A 
ATOM     31  C   UNL     1      -4.222  11.161  16.321  0.00  0.00    +0.000 A 
ATOM     32  S   UNL     1      -3.629  11.522  17.886  0.00  0.00    +0.000 S 
ENDBRANCH  27  28
ENDBRANCH  11  27
TORSDOF 8
ENDMDL
MODEL 8
REMARK VINA RESULT:      -7.5      1.570      1.610
REMARK  Name = 
REMARK  10 active torsions:
REMARK  status: ('A' for Active; 'I' for Inactive)
REMARK    1  A    between atoms: C_1  and  O_2
REMARK    2  A    between atoms: O_2  and  C_3
REMARK    3  A    between atoms: C_6  and  C_7
REMARK    4  A    between atoms: C_7  and  C_8
REMARK    5  A    between atoms: C_11  and  C_12
REMARK    6  A    between atoms: C_12  and  S_13
REMARK    7  A    between atoms: S_13  and  C_14
REMARK    8  A    between atoms: C_19  and  O_20
REMARK    9  A    between atoms: N_25  and  C_26
REMARK   10  A    between atoms: C_26  and  C_27
REMARK                            x       y       z     vdW  Elec       q    Type
REMARK                         _______ _______ _______ _____ _____    ______ ____
ROOT
ATOM      1  C   UNL     1       2.788   6.811  18.166  0.00  0.00    +0.000 A 
ATOM      2  N   UNL     1       3.898   7.396  17.855  0.00  0.00    +0.000 NA
ATOM      3  C   UNL     1       4.983   6.587  17.488  0.00  0.00    +0.000 A 
ATOM      4  C   UNL     1       6.273   7.122  17.485  0.00  0.00    +0.000 A 
ATOM      5  C   UNL     1       7.383   6.295  17.271  0.00  0.00    +0.000 A 
ATOM      6  C   UNL     1       7.197   4.940  17.020  0.00  0.00    +0.000 A 
ATOM      7  C   UNL     1       5.922   4.401  16.947  0.00  0.00    +0.000 A 
ATOM      8  C   UNL     1       4.829   5.233  17.204  0.00  0.00    +0.000 A 
ATOM      9  C   UNL     1       3.478   4.683  17.306  0.00  0.00    +0.000 A 
ATOM     10  O   UNL     1       3.218   3.622  16.744  0.00  0.00    +0.000 OA
ATOM     11  N   UNL     1       2.567   5.444  18.037  0.00  0.00    +0.000 N 
ENDROOT
BRANCH   6  12
ATOM     12  O   UNL     1       8.252   4.088  16.890  0.00  0.00    +0.000 OA
ATOM     13  H   UNL     1       8.887   4.261  17.606  0.00  0.00    +0.000 HD
ENDBRANCH   6  12
BRANCH   1  14
ATOM     14  S   UNL     1       1.487   7.820  18.803  0.00  0.00    +0.000 S 
BRANCH  14  15
ATOM     15  C   UNL     1       1.796   9.404  17.951  0.00  0.00    +0.000 C 
BRANCH  15  21
ATOM     16  C   UNL     1       0.734  11.599  18.863  0.00  0.00    +0.000 A 
ATOM     17  C   UNL     1      -0.421  12.384  19.025  0.00  0.00    +0.000 A 
ATOM     18  C   UNL     1      -1.654  12.016  18.477  0.00  0.00    +0.000 A 
ATOM     19  C   UNL     1      -1.759  10.833  17.755  0.00  0.00    +0.000 A 
ATOM     20  C   UNL     1      -0.598  10.053  17.571  0.00  0.00    +0.000 A 
ATOM     21  C   UNL     1       0.663  10.404  18.125  0.00  0.00    +0.000 A 
BRANCH  19  22
ATOM     22  C   UNL     1      -3.057  10.321  17.204  0.00  0.00    +0.000 C 
ATOM     23  C   UNL     1      -3.164   9.791  15.793  0.00  0.00    +0.000 C 
ATOM     24  O   UNL     1      -4.060  10.345  17.921  0.00  0.00    +0.000 OA
ENDBRANCH  19  22
BRANCH  16  26
ATOM     25  C   UNL     1       1.539  13.120  20.523  0.00  0.00    +0.000 C 
ATOM     26  O   UNL     1       1.782  12.074  19.598  0.00  0.00    +0.000 OA
ENDBRANCH  16  26
ENDBRANCH  15  21
ENDBRANCH  14  15
ENDBRANCH   1  14
BRANCH  11  27
ATOM     27  C   UNL     1       1.339   4.749  18.418  0.00  0.00    +0.000 C 
BRANCH  27  28
ATOM     28  C   UNL     1       1.462   4.064  19.756  0.00  0.00    +0.000 A 
ATOM     29  C   UNL     1       0.857   2.882  20.154  0.00  0.00    +0.000 A 
ATOM     30  C   UNL     1       1.321   2.429  21.421  0.00  0.00    +0.000 A 
ATOM     31  C   UNL     1       2.242   3.288  21.972  0.00  0.00    +0.000 A 
ATOM     32  S   UNL     1       2.537   4.641  20.964  0.00  0.00    +0.000 S 
ENDBRANCH  27  28
ENDBRANCH  11  27
TORSDOF 8
ENDMDL
MODEL 9
REMARK VINA RESULT:      -7.5      1.566      1.780
REMARK  Name = 
REMARK  10 active torsions:
REMARK  status: ('A' for Active; 'I' for Inactive)
REMARK    1  A    between atoms: C_1  and  O_2
REMARK    2  A    between atoms: O_2  and  C_3
REMARK    3  A    between atoms: C_6  and  C_7
REMARK    4  A    between atoms: C_7  and  C_8
REMARK    5  A    between atoms: C_11  and  C_12
REMARK    6  A    between atoms: C_12  and  S_13
REMARK    7  A    between atoms: S_13  and  C_14
REMARK    8  A    between atoms: C_19  and  O_20
REMARK    9  A    between atoms: N_25  and  C_26
REMARK   10  A    between atoms: C_26  and  C_27
REMARK                            x       y       z     vdW  Elec       q    Type
REMARK                         _______ _______ _______ _____ _____    ______ ____
ROOT
ATOM      1  C   UNL     1       2.906   6.989  18.380  0.00  0.00    +0.000 A 
ATOM      2  N   UNL     1       3.993   7.555  17.967  0.00  0.00    +0.000 NA
ATOM      3  C   UNL     1       5.004   6.730  17.453  0.00  0.00    +0.000 A 
ATOM      4  C   UNL     1       6.302   7.229  17.324  0.00  0.00    +0.000 A 
ATOM      5  C   UNL     1       7.355   6.381  16.959  0.00  0.00    +0.000 A 
ATOM      6  C   UNL     1       7.100   5.042  16.684  0.00  0.00    +0.000 A 
ATOM      7  C   UNL     1       5.808   4.541  16.736  0.00  0.00    +0.000 A 
ATOM      8  C   UNL     1       4.777   5.393  17.143  0.00  0.00    +0.000 A 
ATOM      9  C   UNL     1       3.429   4.876  17.376  0.00  0.00    +0.000 A 
ATOM     10  O   UNL     1       3.076   3.844  16.811  0.00  0.00    +0.000 OA
ATOM     11  N   UNL     1       2.629   5.634  18.230  0.00  0.00    +0.000 N 
ENDROOT
BRANCH   6  12
ATOM     12  O   UNL     1       8.107   4.167  16.408  0.00  0.00    +0.000 OA
ATOM     13  H   UNL     1       8.069   3.432  17.043  0.00  0.00    +0.000 HD
ENDBRANCH   6  12
BRANCH   1  14
ATOM     14  S   UNL     1       1.716   8.008  19.193  0.00  0.00    +0.000 S 
BRANCH  14  15
ATOM     15  C   UNL     1       1.378   9.271  17.919  0.00  0.00    +0.000 C 
BRANCH  15  21
ATOM     16  C   UNL     1       0.221  11.116  19.345  0.00  0.00    +0.000 A 
ATOM     17  C   UNL     1      -0.951  11.836  19.635  0.00  0.00    +0.000 A 
ATOM     18  C   UNL     1      -2.130  11.663  18.904  0.00  0.00    +0.000 A 
ATOM     19  C   UNL     1      -2.163  10.745  17.860  0.00  0.00    +0.000 A 
ATOM     20  C   UNL     1      -0.982  10.037  17.551  0.00  0.00    +0.000 A 
ATOM     21  C   UNL     1       0.225  10.191  18.286  0.00  0.00    +0.000 A 
BRANCH  19  22
ATOM     22  C   UNL     1      -3.406  10.437  17.078  0.00  0.00    +0.000 C 
ATOM     23  C   UNL     1      -4.765  10.920  17.529  0.00  0.00    +0.000 C 
ATOM     24  O   UNL     1      -3.311   9.767  16.047  0.00  0.00    +0.000 OA
ENDBRANCH  19  22
BRANCH  16  26
ATOM     25  C   UNL     1       1.608  12.674  20.515  0.00  0.00    +0.000 C 
ATOM     26  O   UNL     1       1.200  11.339  20.271  0.00  0.00    +0.000 OA
ENDBRANCH  16  26
ENDBRANCH  15  21
ENDBRANCH  14  15
ENDBRANCH   1  14
BRANCH  11  27
ATOM     27  C   UNL     1       1.430   4.959  18.722  0.00  0.00    +0.000 C 
BRANCH  27  28
ATOM     28  C   UNL     1       1.724   4.050  19.889  0.00  0.00    +0.000 A 
ATOM     29  C   UNL     1       2.174   4.416  21.147  0.00  0.00    +0.000 A 
ATOM     30  C   UNL     1       2.185   3.327  22.064  0.00  0.00    +0.000 A 
ATOM     31  C   UNL     1       1.772   2.154  21.478  0.00  0.00    +0.000 A 
ATOM     32  S   UNL     1       1.384   2.369  19.824  0.00  0.00    +0.000 S 
ENDBRANCH  27  28
ENDBRANCH  11  27
TORSDOF 8
ENDMDL
