MODEL 1
REMARK VINA RESULT:      -9.0      0.000      0.000
REMARK  Name = 
REMARK  7 active torsions:
REMARK  status: ('A' for Active; 'I' for Inactive)
REMARK    1  A    between atoms: C_1  and  C_2
REMARK    2  A    between atoms: C_5  and  N_6
REMARK    3  A    between atoms: C_7  and  C_9
REMARK    4  A    between atoms: C_9  and  C_10
REMARK    5  A    between atoms: C_10  and  C_11
REMARK    6  A    between atoms: C_11  and  C_12
REMARK    7  A    between atoms: N_20  and  C_21
REMARK                            x       y       z     vdW  Elec       q    Type
REMARK                         _______ _______ _______ _____ _____    ______ ____
ROOT
ATOM      1  C   UNL     1       3.076   6.562  18.477  0.00  0.00    +0.000 A 
ATOM      2  N   UNL     1       2.298   6.396  19.534  0.00  0.00    +0.000 NA
ATOM      3  C   UNL     1       2.564   5.143  19.998  0.00  0.00    +0.000 A 
ATOM      4  C   UNL     1       2.044   4.438  21.091  0.00  0.00    +0.000 A 
ATOM      5  C   UNL     1       2.537   3.153  21.326  0.00  0.00    +0.000 A 
ATOM      6  C   UNL     1       3.495   2.638  20.467  0.00  0.00    +0.000 A 
ATOM      7  N   UNL     1       4.009   3.275  19.395  0.00  0.00    +0.000 NA
ATOM      8  C   UNL     1       3.523   4.516  19.215  0.00  0.00    +0.000 A 
ATOM      9  N   UNL     1       3.859   5.429  18.242  0.00  0.00    +0.000 N 
ENDROOT
BRANCH   9  10
ATOM     10  C   UNL     1       4.858   5.248  17.186  0.00  0.00    +0.000 C 
ATOM     11  C   UNL     1       5.348   6.544  16.513  0.00  0.00    +0.000 C 
ATOM     12  C   UNL     1       6.467   7.284  17.244  0.00  0.00    +0.000 C 
ATOM     13  C   UNL     1       7.580   6.385  17.778  0.00  0.00    +0.000 C 
ATOM     14  C   UNL     1       7.143   5.042  18.360  0.00  0.00    +0.000 C 
ATOM     15  C   UNL     1       6.047   4.348  17.561  0.00  0.00    +0.000 C 
ENDBRANCH   9  10
BRANCH   1  16
ATOM     16  C   UNL     1       3.062   7.805  17.637  0.00  0.00    +0.000 C 
BRANCH  16  17
ATOM     17  C   UNL     1       1.748   8.596  17.751  0.00  0.00    +0.000 C 
BRANCH  17  18
ATOM     18  C   UNL     1       1.920  10.018  18.289  0.00  0.00    +0.000 C 
BRANCH  18  20
ATOM     19  N   UNL     1      -0.439  10.141  17.708  0.00  0.00    +0.000 N 
ATOM     20  C   UNL     1       0.553  10.628  18.542  0.00  0.00    +0.000 C 
ATOM     21  O   UNL     1       0.423  11.493  19.403  0.00  0.00    +0.000 OA
ATOM     22  H   UNL     1      -0.227   9.304  17.177  0.00  0.00    +0.000 HD
BRANCH  19  27
ATOM     23  C   UNL     1      -5.834  12.047  17.213  0.00  0.00    +0.000 C 
ATOM     24  C   UNL     1      -4.420  11.565  17.350  0.00  0.00    +0.000 A 
ATOM     25  C   UNL     1      -3.721  11.739  18.546  0.00  0.00    +0.000 A 
ATOM     26  C   UNL     1      -2.407  11.273  18.678  0.00  0.00    +0.000 A 
ATOM     27  C   UNL     1      -1.764  10.626  17.621  0.00  0.00    +0.000 A 
ATOM     28  C   UNL     1      -2.452  10.479  16.409  0.00  0.00    +0.000 A 
ATOM     29  C   UNL     1      -3.775  10.935  16.281  0.00  0.00    +0.000 A 
ENDBRANCH  19  27
ENDBRANCH  18  20
ENDBRANCH  17  18
ENDBRANCH  16  17
ENDBRANCH   1  16
TORSDOF 6
ENDMDL
MODEL 2
REMARK VINA RESULT:      -8.9      2.046      2.702
REMARK  Name = 
REMARK  7 active torsions:
REMARK  status: ('A' for Active; 'I' for Inactive)
REMARK    1  A    between atoms: C_1  and  C_2
REMARK    2  A    between atoms: C_5  and  N_6
REMARK    3  A    between atoms: C_7  and  C_9
REMARK    4  A    between atoms: C_9  and  C_10
REMARK    5  A    between atoms: C_10  and  C_11
REMARK    6  A    between atoms: C_11  and  C_12
REMARK    7  A    between atoms: N_20  and  C_21
REMARK                            x       y       z     vdW  Elec       q    Type
REMARK                         _______ _______ _______ _____ _____    ______ ____
ROOT
ATOM      1  C   UNL     1       2.994   6.431  18.594  0.00  0.00    +0.000 A 
ATOM      2  N   UNL     1       2.293   6.178  19.687  0.00  0.00    +0.000 NA
ATOM      3  C   UNL     1       2.617   4.905  20.049  0.00  0.00    +0.000 A 
ATOM      4  C   UNL     1       2.187   4.118  21.125  0.00  0.00    +0.000 A 
ATOM      5  C   UNL     1       2.723   2.834  21.242  0.00  0.00    +0.000 A 
ATOM      6  C   UNL     1       3.631   2.400  20.289  0.00  0.00    +0.000 A 
ATOM      7  N   UNL     1       4.058   3.118  19.229  0.00  0.00    +0.000 NA
ATOM      8  C   UNL     1       3.533   4.355  19.164  0.00  0.00    +0.000 A 
ATOM      9  N   UNL     1       3.783   5.337  18.234  0.00  0.00    +0.000 N 
ENDROOT
BRANCH   9  10
ATOM     10  C   UNL     1       4.712   5.250  17.103  0.00  0.00    +0.000 C 
ATOM     11  C   UNL     1       5.172   6.601  16.524  0.00  0.00    +0.000 C 
ATOM     12  C   UNL     1       6.343   7.264  17.248  0.00  0.00    +0.000 C 
ATOM     13  C   UNL     1       7.478   6.314  17.624  0.00  0.00    +0.000 C 
ATOM     14  C   UNL     1       7.063   4.924  18.106  0.00  0.00    +0.000 C 
ATOM     15  C   UNL     1       5.912   4.313  17.317  0.00  0.00    +0.000 C 
ENDBRANCH   9  10
BRANCH   1  16
ATOM     16  C   UNL     1       2.895   7.726  17.840  0.00  0.00    +0.000 C 
BRANCH  16  17
ATOM     17  C   UNL     1       1.759   8.632  18.342  0.00  0.00    +0.000 C 
BRANCH  17  18
ATOM     18  C   UNL     1       1.932  10.108  17.979  0.00  0.00    +0.000 C 
BRANCH  18  20
ATOM     19  N   UNL     1       0.275  10.339  19.745  0.00  0.00    +0.000 N 
ATOM     20  C   UNL     1       1.299  10.968  19.059  0.00  0.00    +0.000 C 
ATOM     21  O   UNL     1       1.692  12.119  19.228  0.00  0.00    +0.000 OA
ATOM     22  H   UNL     1       0.185   9.337  19.625  0.00  0.00    +0.000 HD
BRANCH  19  27
ATOM     23  C   UNL     1      -3.129  12.711  23.717  0.00  0.00    +0.000 C 
ATOM     24  C   UNL     1      -2.255  12.089  22.669  0.00  0.00    +0.000 A 
ATOM     25  C   UNL     1      -2.365  12.470  21.331  0.00  0.00    +0.000 A 
ATOM     26  C   UNL     1      -1.536  11.902  20.356  0.00  0.00    +0.000 A 
ATOM     27  C   UNL     1      -0.582  10.941  20.695  0.00  0.00    +0.000 A 
ATOM     28  C   UNL     1      -0.491  10.532  22.032  0.00  0.00    +0.000 A 
ATOM     29  C   UNL     1      -1.313  11.112  23.013  0.00  0.00    +0.000 A 
ENDBRANCH  19  27
ENDBRANCH  18  20
ENDBRANCH  17  18
ENDBRANCH  16  17
ENDBRANCH   1  16
TORSDOF 6
ENDMDL
MODEL 3
REMARK VINA RESULT:      -8.8      1.361      3.581
REMARK  Name = 
REMARK  7 active torsions:
REMARK  status: ('A' for Active; 'I' for Inactive)
REMARK    1  A    between atoms: C_1  and  C_2
REMARK    2  A    between atoms: C_5  and  N_6
REMARK    3  A    between atoms: C_7  and  C_9
REMARK    4  A    between atoms: C_9  and  C_10
REMARK    5  A    between atoms: C_10  and  C_11
REMARK    6  A    between atoms: C_11  and  C_12
REMARK    7  A    between atoms: N_20  and  C_21
REMARK                            x       y       z     vdW  Elec       q    Type
REMARK                         _______ _______ _______ _____ _____    ______ ____
ROOT
ATOM      1  C   UNL     1       3.580   6.580  17.815  0.00  0.00    +0.000 A 
ATOM      2  N   UNL     1       4.739   7.056  17.392  0.00  0.00    +0.000 NA
ATOM      3  C   UNL     1       5.370   6.013  16.785  0.00  0.00    +0.000 A 
ATOM      4  C   UNL     1       6.618   5.936  16.151  0.00  0.00    +0.000 A 
ATOM      5  C   UNL     1       6.988   4.708  15.598  0.00  0.00    +0.000 A 
ATOM      6  C   UNL     1       6.119   3.634  15.715  0.00  0.00    +0.000 A 
ATOM      7  N   UNL     1       4.919   3.661  16.331  0.00  0.00    +0.000 NA
ATOM      8  C   UNL     1       4.592   4.865  16.832  0.00  0.00    +0.000 A 
ATOM      9  N   UNL     1       3.438   5.230  17.487  0.00  0.00    +0.000 N 
ENDROOT
BRANCH   9  10
ATOM     10  C   UNL     1       2.284   4.369  17.761  0.00  0.00    +0.000 C 
ATOM     11  C   UNL     1       2.536   2.858  17.598  0.00  0.00    +0.000 C 
ATOM     12  C   UNL     1       3.160   2.159  18.804  0.00  0.00    +0.000 C 
ATOM     13  C   UNL     1       2.563   2.562  20.151  0.00  0.00    +0.000 C 
ATOM     14  C   UNL     1       2.202   4.038  20.315  0.00  0.00    +0.000 C 
ATOM     15  C   UNL     1       1.555   4.658  19.083  0.00  0.00    +0.000 C 
ENDBRANCH   9  10
BRANCH   1  16
ATOM     16  C   UNL     1       2.587   7.403  18.583  0.00  0.00    +0.000 C 
BRANCH  16  17
ATOM     17  C   UNL     1       1.947   8.518  17.740  0.00  0.00    +0.000 C 
BRANCH  17  18
ATOM     18  C   UNL     1       1.705   9.820  18.508  0.00  0.00    +0.000 C 
BRANCH  18  20
ATOM     19  N   UNL     1      -0.566  10.328  17.799  0.00  0.00    +0.000 N 
ATOM     20  C   UNL     1       0.232   9.929  18.858  0.00  0.00    +0.000 C 
ATOM     21  O   UNL     1      -0.139   9.701  20.006  0.00  0.00    +0.000 OA
ATOM     22  H   UNL     1      -0.154  10.301  16.874  0.00  0.00    +0.000 HD
BRANCH  19  27
ATOM     23  C   UNL     1      -6.182  11.519  17.990  0.00  0.00    +0.000 C 
ATOM     24  C   UNL     1      -4.711  11.226  17.939  0.00  0.00    +0.000 A 
ATOM     25  C   UNL     1      -3.816  11.930  18.747  0.00  0.00    +0.000 A 
ATOM     26  C   UNL     1      -2.446  11.643  18.711  0.00  0.00    +0.000 A 
ATOM     27  C   UNL     1      -1.941  10.650  17.869  0.00  0.00    +0.000 A 
ATOM     28  C   UNL     1      -2.832   9.964  17.034  0.00  0.00    +0.000 A 
ATOM     29  C   UNL     1      -4.209  10.243  17.079  0.00  0.00    +0.000 A 
ENDBRANCH  19  27
ENDBRANCH  18  20
ENDBRANCH  17  18
ENDBRANCH  16  17
ENDBRANCH   1  16
TORSDOF 6
ENDMDL
MODEL 4
REMARK VINA RESULT:      -8.8      2.096      2.757
REMARK  Name = 
REMARK  7 active torsions:
REMARK  status: ('A' for Active; 'I' for Inactive)
REMARK    1  A    between atoms: C_1  and  C_2
REMARK    2  A    between atoms: C_5  and  N_6
REMARK    3  A    between atoms: C_7  and  C_9
REMARK    4  A    between atoms: C_9  and  C_10
REMARK    5  A    between atoms: C_10  and  C_11
REMARK    6  A    between atoms: C_11  and  C_12
REMARK    7  A    between atoms: N_20  and  C_21
REMARK                            x       y       z     vdW  Elec       q    Type
REMARK                         _______ _______ _______ _____ _____    ______ ____
ROOT
ATOM      1  C   UNL     1       2.902   6.558  18.673  0.00  0.00    +0.000 A 
ATOM      2  N   UNL     1       2.260   6.318  19.805  0.00  0.00    +0.000 NA
ATOM      3  C   UNL     1       2.538   5.024  20.123  0.00  0.00    +0.000 A 
ATOM      4  C   UNL     1       2.136   4.238  21.211  0.00  0.00    +0.000 A 
ATOM      5  C   UNL     1       2.608   2.925  21.271  0.00  0.00    +0.000 A 
ATOM      6  C   UNL     1       3.430   2.464  20.254  0.00  0.00    +0.000 A 
ATOM      7  N   UNL     1       3.826   3.181  19.182  0.00  0.00    +0.000 NA
ATOM      8  C   UNL     1       3.365   4.444  19.172  0.00  0.00    +0.000 A 
ATOM      9  N   UNL     1       3.607   5.431  18.244  0.00  0.00    +0.000 N 
ENDROOT
BRANCH   9  10
ATOM     10  C   UNL     1       4.456   5.319  17.055  0.00  0.00    +0.000 C 
ATOM     11  C   UNL     1       5.034   6.646  16.530  0.00  0.00    +0.000 C 
ATOM     12  C   UNL     1       6.310   7.128  17.217  0.00  0.00    +0.000 C 
ATOM     13  C   UNL     1       7.349   6.037  17.464  0.00  0.00    +0.000 C 
ATOM     14  C   UNL     1       6.808   4.672  17.887  0.00  0.00    +0.000 C 
ATOM     15  C   UNL     1       5.553   4.244  17.136  0.00  0.00    +0.000 C 
ENDBRANCH   9  10
BRANCH   1  16
ATOM     16  C   UNL     1       2.825   7.870  17.950  0.00  0.00    +0.000 C 
BRANCH  16  17
ATOM     17  C   UNL     1       1.911   8.891  18.646  0.00  0.00    +0.000 C 
BRANCH  17  18
ATOM     18  C   UNL     1       0.862   9.519  17.725  0.00  0.00    +0.000 C 
BRANCH  18  20
ATOM     19  N   UNL     1       0.187  10.571  19.812  0.00  0.00    +0.000 N 
ATOM     20  C   UNL     1      -0.238  10.140  18.567  0.00  0.00    +0.000 C 
ATOM     21  O   UNL     1      -1.384  10.191  18.129  0.00  0.00    +0.000 OA
ATOM     22  H   UNL     1       1.186  10.633  19.963  0.00  0.00    +0.000 HD
BRANCH  19  27
ATOM     23  C   UNL     1      -3.251  12.613  23.936  0.00  0.00    +0.000 C 
ATOM     24  C   UNL     1      -2.339  12.080  22.870  0.00  0.00    +0.000 A 
ATOM     25  C   UNL     1      -1.422  11.068  23.157  0.00  0.00    +0.000 A 
ATOM     26  C   UNL     1      -0.583  10.560  22.158  0.00  0.00    +0.000 A 
ATOM     27  C   UNL     1      -0.641  11.052  20.852  0.00  0.00    +0.000 A 
ATOM     28  C   UNL     1      -1.537  12.091  20.568  0.00  0.00    +0.000 A 
ATOM     29  C   UNL     1      -2.388  12.591  21.568  0.00  0.00    +0.000 A 
ENDBRANCH  19  27
ENDBRANCH  18  20
ENDBRANCH  17  18
ENDBRANCH  16  17
ENDBRANCH   1  16
TORSDOF 6
ENDMDL
MODEL 5
REMARK VINA RESULT:      -8.7      0.934      1.768
REMARK  Name = 
REMARK  7 active torsions:
REMARK  status: ('A' for Active; 'I' for Inactive)
REMARK    1  A    between atoms: C_1  and  C_2
REMARK    2  A    between atoms: C_5  and  N_6
REMARK    3  A    between atoms: C_7  and  C_9
REMARK    4  A    between atoms: C_9  and  C_10
REMARK    5  A    between atoms: C_10  and  C_11
REMARK    6  A    between atoms: C_11  and  C_12
REMARK    7  A    between atoms: N_20  and  C_21
REMARK                            x       y       z     vdW  Elec       q    Type
REMARK                         _______ _______ _______ _____ _____    ______ ____
ROOT
ATOM      1  C   UNL     1       3.161   6.598  18.602  0.00  0.00    +0.000 A 
ATOM      2  N   UNL     1       2.088   6.217  19.275  0.00  0.00    +0.000 NA
ATOM      3  C   UNL     1       2.370   4.973  19.752  0.00  0.00    +0.000 A 
ATOM      4  C   UNL     1       1.609   4.094  20.534  0.00  0.00    +0.000 A 
ATOM      5  C   UNL     1       2.189   2.873  20.885  0.00  0.00    +0.000 A 
ATOM      6  C   UNL     1       3.468   2.588  20.435  0.00  0.00    +0.000 A 
ATOM      7  N   UNL     1       4.227   3.397  19.667  0.00  0.00    +0.000 NA
ATOM      8  C   UNL     1       3.641   4.570  19.368  0.00  0.00    +0.000 A 
ATOM      9  N   UNL     1       4.154   5.616  18.636  0.00  0.00    +0.000 N 
ENDROOT
BRANCH   9  10
ATOM     10  C   UNL     1       5.488   5.685  18.033  0.00  0.00    +0.000 C 
ATOM     11  C   UNL     1       6.065   4.339  17.555  0.00  0.00    +0.000 C 
ATOM     12  C   UNL     1       5.619   3.886  16.166  0.00  0.00    +0.000 C 
ATOM     13  C   UNL     1       5.618   4.988  15.109  0.00  0.00    +0.000 C 
ATOM     14  C   UNL     1       5.149   6.367  15.571  0.00  0.00    +0.000 C 
ATOM     15  C   UNL     1       5.659   6.763  16.952  0.00  0.00    +0.000 C 
ENDBRANCH   9  10
BRANCH   1  16
ATOM     16  C   UNL     1       3.249   7.907  17.873  0.00  0.00    +0.000 C 
BRANCH  16  17
ATOM     17  C   UNL     1       1.877   8.553  17.625  0.00  0.00    +0.000 C 
BRANCH  17  18
ATOM     18  C   UNL     1       1.691   9.906  18.316  0.00  0.00    +0.000 C 
BRANCH  18  20
ATOM     19  N   UNL     1      -0.643  10.386  17.824  0.00  0.00    +0.000 N 
ATOM     20  C   UNL     1       0.260  10.026  18.809  0.00  0.00    +0.000 C 
ATOM     21  O   UNL     1       0.008   9.836  19.996  0.00  0.00    +0.000 OA
ATOM     22  H   UNL     1      -0.326  10.328  16.863  0.00  0.00    +0.000 HD
BRANCH  19  27
ATOM     23  C   UNL     1      -6.134  11.821  18.704  0.00  0.00    +0.000 C 
ATOM     24  C   UNL     1      -4.704  11.428  18.477  0.00  0.00    +0.000 A 
ATOM     25  C   UNL     1      -4.384  10.331  17.676  0.00  0.00    +0.000 A 
ATOM     26  C   UNL     1      -3.049   9.977  17.451  0.00  0.00    +0.000 A 
ATOM     27  C   UNL     1      -2.005  10.708  18.022  0.00  0.00    +0.000 A 
ATOM     28  C   UNL     1      -2.323  11.790  18.853  0.00  0.00    +0.000 A 
ATOM     29  C   UNL     1      -3.663  12.154  19.068  0.00  0.00    +0.000 A 
ENDBRANCH  19  27
ENDBRANCH  18  20
ENDBRANCH  17  18
ENDBRANCH  16  17
ENDBRANCH   1  16
TORSDOF 6
ENDMDL
MODEL 6
REMARK VINA RESULT:      -8.7      0.455      1.015
REMARK  Name = 
REMARK  7 active torsions:
REMARK  status: ('A' for Active; 'I' for Inactive)
REMARK    1  A    between atoms: C_1  and  C_2
REMARK    2  A    between atoms: C_5  and  N_6
REMARK    3  A    between atoms: C_7  and  C_9
REMARK    4  A    between atoms: C_9  and  C_10
REMARK    5  A    between atoms: C_10  and  C_11
REMARK    6  A    between atoms: C_11  and  C_12
REMARK    7  A    between atoms: N_20  and  C_21
REMARK                            x       y       z     vdW  Elec       q    Type
REMARK                         _______ _______ _______ _____ _____    ______ ____
ROOT
ATOM      1  C   UNL     1       2.720   6.197  18.580  0.00  0.00    +0.000 A 
ATOM      2  N   UNL     1       2.084   5.878  19.696  0.00  0.00    +0.000 NA
ATOM      3  C   UNL     1       2.562   4.656  20.061  0.00  0.00    +0.000 A 
ATOM      4  C   UNL     1       2.256   3.839  21.157  0.00  0.00    +0.000 A 
ATOM      5  C   UNL     1       2.939   2.627  21.271  0.00  0.00    +0.000 A 
ATOM      6  C   UNL     1       3.865   2.288  20.296  0.00  0.00    +0.000 A 
ATOM      7  N   UNL     1       4.176   3.036  19.217  0.00  0.00    +0.000 NA
ATOM      8  C   UNL     1       3.511   4.204  19.156  0.00  0.00    +0.000 A 
ATOM      9  N   UNL     1       3.619   5.196  18.208  0.00  0.00    +0.000 N 
ENDROOT
BRANCH   9  10
ATOM     10  C   UNL     1       4.520   5.201  17.052  0.00  0.00    +0.000 C 
ATOM     11  C   UNL     1       4.946   6.595  16.556  0.00  0.00    +0.000 C 
ATOM     12  C   UNL     1       6.125   7.227  17.294  0.00  0.00    +0.000 C 
ATOM     13  C   UNL     1       7.283   6.272  17.576  0.00  0.00    +0.000 C 
ATOM     14  C   UNL     1       6.901   4.846  17.972  0.00  0.00    +0.000 C 
ATOM     15  C   UNL     1       5.739   4.272  17.172  0.00  0.00    +0.000 C 
ENDBRANCH   9  10
BRANCH   1  16
ATOM     16  C   UNL     1       2.452   7.461  17.818  0.00  0.00    +0.000 C 
BRANCH  16  17
ATOM     17  C   UNL     1       1.857   8.578  18.690  0.00  0.00    +0.000 C 
BRANCH  17  18
ATOM     18  C   UNL     1       2.012   9.981  18.099  0.00  0.00    +0.000 C 
BRANCH  18  20
ATOM     19  N   UNL     1      -0.386  10.030  17.693  0.00  0.00    +0.000 N 
ATOM     20  C   UNL     1       0.693  10.723  18.214  0.00  0.00    +0.000 C 
ATOM     21  O   UNL     1       0.668  11.847  18.709  0.00  0.00    +0.000 OA
ATOM     22  H   UNL     1      -0.249   9.048  17.488  0.00  0.00    +0.000 HD
BRANCH  19  27
ATOM     23  C   UNL     1      -5.711  12.124  17.193  0.00  0.00    +0.000 C 
ATOM     24  C   UNL     1      -4.326  11.562  17.315  0.00  0.00    +0.000 A 
ATOM     25  C   UNL     1      -3.703  10.958  16.221  0.00  0.00    +0.000 A 
ATOM     26  C   UNL     1      -2.403  10.450  16.332  0.00  0.00    +0.000 A 
ATOM     27  C   UNL     1      -1.699  10.531  17.535  0.00  0.00    +0.000 A 
ATOM     28  C   UNL     1      -2.333  11.107  18.643  0.00  0.00    +0.000 A 
ATOM     29  C   UNL     1      -3.632  11.630  18.529  0.00  0.00    +0.000 A 
ENDBRANCH  19  27
ENDBRANCH  18  20
ENDBRANCH  17  18
ENDBRANCH  16  17
ENDBRANCH   1  16
TORSDOF 6
ENDMDL
MODEL 7
REMARK VINA RESULT:      -8.7      1.022      1.728
REMARK  Name = 
REMARK  7 active torsions:
REMARK  status: ('A' for Active; 'I' for Inactive)
REMARK    1  A    between atoms: C_1  and  C_2
REMARK    2  A    between atoms: C_5  and  N_6
REMARK    3  A    between atoms: C_7  and  C_9
REMARK    4  A    between atoms: C_9  and  C_10
REMARK    5  A    between atoms: C_10  and  C_11
REMARK    6  A    between atoms: C_11  and  C_12
REMARK    7  A    between atoms: N_20  and  C_21
REMARK                            x       y       z     vdW  Elec       q    Type
REMARK                         _______ _______ _______ _____ _____    ______ ____
ROOT
ATOM      1  C   UNL     1       3.218   7.030  18.355  0.00  0.00    +0.000 A 
ATOM      2  N   UNL     1       2.410   6.416  19.204  0.00  0.00    +0.000 NA
ATOM      3  C   UNL     1       2.965   5.193  19.427  0.00  0.00    +0.000 A 
ATOM      4  C   UNL     1       2.550   4.129  20.239  0.00  0.00    +0.000 A 
ATOM      5  C   UNL     1       3.356   2.989  20.273  0.00  0.00    +0.000 A 
ATOM      6  C   UNL     1       4.505   2.959  19.499  0.00  0.00    +0.000 A 
ATOM      7  N   UNL     1       4.931   3.953  18.692  0.00  0.00    +0.000 NA
ATOM      8  C   UNL     1       4.138   5.040  18.702  0.00  0.00    +0.000 A 
ATOM      9  N   UNL     1       4.306   6.222  18.019  0.00  0.00    +0.000 N 
ENDROOT
BRANCH   9  10
ATOM     10  C   UNL     1       5.423   6.565  17.134  0.00  0.00    +0.000 C 
ATOM     11  C   UNL     1       6.822   6.213  17.672  0.00  0.00    +0.000 C 
ATOM     12  C   UNL     1       7.273   4.772  17.443  0.00  0.00    +0.000 C 
ATOM     13  C   UNL     1       6.972   4.225  16.049  0.00  0.00    +0.000 C 
ATOM     14  C   UNL     1       5.635   4.638  15.436  0.00  0.00    +0.000 C 
ATOM     15  C   UNL     1       5.267   6.097  15.678  0.00  0.00    +0.000 C 
ENDBRANCH   9  10
BRANCH   1  16
ATOM     16  C   UNL     1       2.944   8.402  17.812  0.00  0.00    +0.000 C 
BRANCH  16  17
ATOM     17  C   UNL     1       1.450   8.762  17.803  0.00  0.00    +0.000 C 
BRANCH  17  18
ATOM     18  C   UNL     1       1.139  10.147  18.374  0.00  0.00    +0.000 C 
BRANCH  18  20
ATOM     19  N   UNL     1      -1.066  10.784  17.568  0.00  0.00    +0.000 N 
ATOM     20  C   UNL     1      -0.353  10.260  18.632  0.00  0.00    +0.000 C 
ATOM     21  O   UNL     1      -0.809   9.927  19.722  0.00  0.00    +0.000 OA
ATOM     22  H   UNL     1      -0.591  10.839  16.675  0.00  0.00    +0.000 HD
BRANCH  19  27
ATOM     23  C   UNL     1      -6.612  12.270  17.741  0.00  0.00    +0.000 C 
ATOM     24  C   UNL     1      -5.168  11.866  17.688  0.00  0.00    +0.000 A 
ATOM     25  C   UNL     1      -4.633  11.281  16.539  0.00  0.00    +0.000 A 
ATOM     26  C   UNL     1      -3.282  10.920  16.486  0.00  0.00    +0.000 A 
ATOM     27  C   UNL     1      -2.436  11.134  17.576  0.00  0.00    +0.000 A 
ATOM     28  C   UNL     1      -2.977  11.691  18.743  0.00  0.00    +0.000 A 
ATOM     29  C   UNL     1      -4.331  12.065  18.792  0.00  0.00    +0.000 A 
ENDBRANCH  19  27
ENDBRANCH  18  20
ENDBRANCH  17  18
ENDBRANCH  16  17
ENDBRANCH   1  16
TORSDOF 6
ENDMDL
MODEL 8
REMARK VINA RESULT:      -8.7      2.469      4.473
REMARK  Name = 
REMARK  7 active torsions:
REMARK  status: ('A' for Active; 'I' for Inactive)
REMARK    1  A    between atoms: C_1  and  C_2
REMARK    2  A    between atoms: C_5  and  N_6
REMARK    3  A    between atoms: C_7  and  C_9
REMARK    4  A    between atoms: C_9  and  C_10
REMARK    5  A    between atoms: C_10  and  C_11
REMARK    6  A    between atoms: C_11  and  C_12
REMARK    7  A    between atoms: N_20  and  C_21
REMARK                            x       y       z     vdW  Elec       q    Type
REMARK                         _______ _______ _______ _____ _____    ______ ____
ROOT
ATOM      1  C   UNL     1       3.419   6.720  17.881  0.00  0.00    +0.000 A 
ATOM      2  N   UNL     1       4.534   7.159  17.320  0.00  0.00    +0.000 NA
ATOM      3  C   UNL     1       5.140   6.062  16.789  0.00  0.00    +0.000 A 
ATOM      4  C   UNL     1       6.339   5.929  16.076  0.00  0.00    +0.000 A 
ATOM      5  C   UNL     1       6.693   4.651  15.638  0.00  0.00    +0.000 A 
ATOM      6  C   UNL     1       5.859   3.586  15.941  0.00  0.00    +0.000 A 
ATOM      7  N   UNL     1       4.707   3.668  16.639  0.00  0.00    +0.000 NA
ATOM      8  C   UNL     1       4.392   4.917  17.025  0.00  0.00    +0.000 A 
ATOM      9  N   UNL     1       3.282   5.340  17.719  0.00  0.00    +0.000 N 
ENDROOT
BRANCH   9  10
ATOM     10  C   UNL     1       2.170   4.501  18.176  0.00  0.00    +0.000 C 
ATOM     11  C   UNL     1       2.428   2.984  18.130  0.00  0.00    +0.000 C 
ATOM     12  C   UNL     1       3.168   2.403  19.333  0.00  0.00    +0.000 C 
ATOM     13  C   UNL     1       2.689   2.926  20.686  0.00  0.00    +0.000 C 
ATOM     14  C   UNL     1       2.324   4.409  20.746  0.00  0.00    +0.000 C 
ATOM     15  C   UNL     1       1.559   4.908  19.526  0.00  0.00    +0.000 C 
ENDBRANCH   9  10
BRANCH   1  16
ATOM     16  C   UNL     1       2.469   7.613  18.624  0.00  0.00    +0.000 C 
BRANCH  16  17
ATOM     17  C   UNL     1       1.771   8.639  17.717  0.00  0.00    +0.000 C 
BRANCH  17  18
ATOM     18  C   UNL     1       1.823  10.075  18.244  0.00  0.00    +0.000 C 
BRANCH  18  20
ATOM     19  N   UNL     1       0.653  11.156  20.083  0.00  0.00    +0.000 N 
ATOM     20  C   UNL     1       0.509  10.407  18.927  0.00  0.00    +0.000 C 
ATOM     21  O   UNL     1      -0.545   9.987  18.457  0.00  0.00    +0.000 OA
ATOM     22  H   UNL     1       1.556  11.584  20.247  0.00  0.00    +0.000 HD
BRANCH  19  27
ATOM     23  C   UNL     1      -3.464  12.403  23.889  0.00  0.00    +0.000 C 
ATOM     24  C   UNL     1      -2.401  12.076  22.882  0.00  0.00    +0.000 A 
ATOM     25  C   UNL     1      -2.356  12.739  21.654  0.00  0.00    +0.000 A 
ATOM     26  C   UNL     1      -1.353  12.446  20.722  0.00  0.00    +0.000 A 
ATOM     27  C   UNL     1      -0.377  11.486  20.994  0.00  0.00    +0.000 A 
ATOM     28  C   UNL     1      -0.439  10.796  22.212  0.00  0.00    +0.000 A 
ATOM     29  C   UNL     1      -1.437  11.100  23.153  0.00  0.00    +0.000 A 
ENDBRANCH  19  27
ENDBRANCH  18  20
ENDBRANCH  17  18
ENDBRANCH  16  17
ENDBRANCH   1  16
TORSDOF 6
ENDMDL
MODEL 9
REMARK VINA RESULT:      -8.7      3.571      8.195
REMARK  Name = 
REMARK  7 active torsions:
REMARK  status: ('A' for Active; 'I' for Inactive)
REMARK    1  A    between atoms: C_1  and  C_2
REMARK    2  A    between atoms: C_5  and  N_6
REMARK    3  A    between atoms: C_7  and  C_9
REMARK    4  A    between atoms: C_9  and  C_10
REMARK    5  A    between atoms: C_10  and  C_11
REMARK    6  A    between atoms: C_11  and  C_12
REMARK    7  A    between atoms: N_20  and  C_21
REMARK                            x       y       z     vdW  Elec       q    Type
REMARK                         _______ _______ _______ _____ _____    ______ ____
ROOT
ATOM      1  C   UNL     1       4.613   5.923  17.717  0.00  0.00    +0.000 A 
ATOM      2  N   UNL     1       4.288   7.052  17.108  0.00  0.00    +0.000 NA
ATOM      3  C   UNL     1       3.297   7.608  17.859  0.00  0.00    +0.000 A 
ATOM      4  C   UNL     1       2.581   8.802  17.698  0.00  0.00    +0.000 A 
ATOM      5  C   UNL     1       1.621   9.115  18.662  0.00  0.00    +0.000 A 
ATOM      6  C   UNL     1       1.414   8.233  19.711  0.00  0.00    +0.000 A 
ATOM      7  N   UNL     1       2.068   7.066  19.893  0.00  0.00    +0.000 NA
ATOM      8  C   UNL     1       2.997   6.812  18.955  0.00  0.00    +0.000 A 
ATOM      9  N   UNL     1       3.847   5.733  18.869  0.00  0.00    +0.000 N 
ENDROOT
BRANCH   9  10
ATOM     10  C   UNL     1       3.939   4.619  19.818  0.00  0.00    +0.000 C 
ATOM     11  C   UNL     1       2.692   4.398  20.695  0.00  0.00    +0.000 C 
ATOM     12  C   UNL     1       1.576   3.573  20.058  0.00  0.00    +0.000 C 
ATOM     13  C   UNL     1       2.052   2.332  19.306  0.00  0.00    +0.000 C 
ATOM     14  C   UNL     1       3.345   2.483  18.505  0.00  0.00    +0.000 C 
ATOM     15  C   UNL     1       4.423   3.290  19.218  0.00  0.00    +0.000 C 
ENDBRANCH   9  10
BRANCH   1  16
ATOM     16  C   UNL     1       5.647   4.975  17.186  0.00  0.00    +0.000 C 
BRANCH  16  17
ATOM     17  C   UNL     1       7.038   5.612  17.049  0.00  0.00    +0.000 C 
BRANCH  17  18
ATOM     18  C   UNL     1       7.533   6.310  18.319  0.00  0.00    +0.000 C 
BRANCH  18  20
ATOM     19  N   UNL     1       8.695   8.357  18.933  0.00  0.00    +0.000 N 
ATOM     20  C   UNL     1       7.869   7.755  17.999  0.00  0.00    +0.000 C 
ATOM     21  O   UNL     1       7.390   8.285  17.000  0.00  0.00    +0.000 OA
ATOM     22  H   UNL     1       9.158   7.750  19.600  0.00  0.00    +0.000 HD
BRANCH  19  27
ATOM     23  C   UNL     1      10.172  13.899  19.230  0.00  0.00    +0.000 C 
ATOM     24  C   UNL     1       9.773  12.456  19.141  0.00  0.00    +0.000 A 
ATOM     25  C   UNL     1       9.504  11.866  17.905  0.00  0.00    +0.000 A 
ATOM     26  C   UNL     1       9.149  10.514  17.822  0.00  0.00    +0.000 A 
ATOM     27  C   UNL     1       9.052   9.724  18.969  0.00  0.00    +0.000 A 
ATOM     28  C   UNL     1       9.289  10.322  20.214  0.00  0.00    +0.000 A 
ATOM     29  C   UNL     1       9.659  11.675  20.297  0.00  0.00    +0.000 A 
ENDBRANCH  19  27
ENDBRANCH  18  20
ENDBRANCH  17  18
ENDBRANCH  16  17
ENDBRANCH   1  16
TORSDOF 6
ENDMDL
