MODEL 1
REMARK VINA RESULT:      -7.5      0.000      0.000
REMARK  Name = 
REMARK  3 active torsions:
REMARK  status: ('A' for Active; 'I' for Inactive)
REMARK    1  A    between atoms: C_4  and  S_5
REMARK    2  A    between atoms: S_5  and  C_6
REMARK    3  A    between atoms: C_17  and  N_18
REMARK                            x       y       z     vdW  Elec       q    Type
REMARK                         _______ _______ _______ _____ _____    ______ ____
ROOT
ATOM      1  O   UNL     1       1.970   3.391  22.144  0.00  0.00    +0.000 OA
ATOM      2  C   UNL     1       2.122   4.108  21.160  0.00  0.00    +0.000 A 
ATOM      3  C   UNL     1       2.613   3.551  19.886  0.00  0.00    +0.000 A 
ATOM      4  C   UNL     1       2.725   4.308  18.772  0.00  0.00    +0.000 A 
ATOM      5  C   UNL     1       2.415   5.764  18.853  0.00  0.00    +0.000 A 
ATOM      6  C   UNL     1       2.537   6.634  17.754  0.00  0.00    +0.000 A 
ATOM      7  C   UNL     1       2.228   7.992  17.857  0.00  0.00    +0.000 A 
ATOM      8  C   UNL     1       1.791   8.519  19.065  0.00  0.00    +0.000 A 
ATOM      9  C   UNL     1       1.659   7.681  20.182  0.00  0.00    +0.000 A 
ATOM     10  C   UNL     1       1.970   6.306  20.084  0.00  0.00    +0.000 A 
ATOM     11  N   UNL     1       1.843   5.438  21.184  0.00  0.00    +0.000 N 
ATOM     12  H   UNL     1       1.515   5.803  22.080  0.00  0.00    +0.000 HD
ENDROOT
BRANCH   9  13
ATOM     13  N   UNL     1       1.188   8.286  21.441  0.00  0.00    +0.000 N 
ATOM     14  O   UNL     1       2.004   8.959  22.097  0.00  0.00    +0.000 OA
ATOM     15  O   UNL     1       0.016   8.101  21.782  0.00  0.00    +0.000 OA
ENDBRANCH   9  13
BRANCH   4  16
ATOM     16  S   UNL     1       3.354   3.635  17.286  0.00  0.00    +0.000 S 
BRANCH  16  17
ATOM     17  C   UNL     1       4.909   4.505  17.066  0.00  0.00    +0.000 A 
ATOM     18  C   UNL     1       5.326   4.926  15.794  0.00  0.00    +0.000 A 
ATOM     19  C   UNL     1       6.557   5.568  15.620  0.00  0.00    +0.000 A 
ATOM     20  C   UNL     1       7.387   5.796  16.719  0.00  0.00    +0.000 A 
ATOM     21  C   UNL     1       6.983   5.377  17.984  0.00  0.00    +0.000 A 
ATOM     22 CL   UNL     1       7.992   5.686  19.344  0.00  0.00    +0.000 Cl
ATOM     23  C   UNL     1       5.758   4.723  18.158  0.00  0.00    +0.000 A 
ENDBRANCH  16  17
ENDBRANCH   4  16
TORSDOF 3
ENDMDL
MODEL 2
REMARK VINA RESULT:      -7.4      1.595      2.093
REMARK  Name = 
REMARK  3 active torsions:
REMARK  status: ('A' for Active; 'I' for Inactive)
REMARK    1  A    between atoms: C_4  and  S_5
REMARK    2  A    between atoms: S_5  and  C_6
REMARK    3  A    between atoms: C_17  and  N_18
REMARK                            x       y       z     vdW  Elec       q    Type
REMARK                         _______ _______ _______ _____ _____    ______ ____
ROOT
ATOM      1  O   UNL     1       2.060   4.325  21.592  0.00  0.00    +0.000 OA
ATOM      2  C   UNL     1       2.235   5.184  20.734  0.00  0.00    +0.000 A 
ATOM      3  C   UNL     1       3.060   4.907  19.543  0.00  0.00    +0.000 A 
ATOM      4  C   UNL     1       3.211   5.815  18.554  0.00  0.00    +0.000 A 
ATOM      5  C   UNL     1       2.590   7.161  18.706  0.00  0.00    +0.000 A 
ATOM      6  C   UNL     1       2.724   8.179  17.743  0.00  0.00    +0.000 A 
ATOM      7  C   UNL     1       2.119   9.427  17.907  0.00  0.00    +0.000 A 
ATOM      8  C   UNL     1       1.365   9.694  19.042  0.00  0.00    +0.000 A 
ATOM      9  C   UNL     1       1.212   8.703  20.023  0.00  0.00    +0.000 A 
ATOM     10  C   UNL     1       1.820   7.438  19.863  0.00  0.00    +0.000 A 
ATOM     11  N   UNL     1       1.680   6.422  20.825  0.00  0.00    +0.000 N 
ATOM     12  H   UNL     1       1.122   6.593  21.664  0.00  0.00    +0.000 HD
ENDROOT
BRANCH   9  13
ATOM     13  N   UNL     1       0.398   9.032  21.207  0.00  0.00    +0.000 N 
ATOM     14  O   UNL     1      -0.710   9.565  21.013  0.00  0.00    +0.000 OA
ATOM     15  O   UNL     1       0.848   8.766  22.325  0.00  0.00    +0.000 OA
ENDBRANCH   9  13
BRANCH   4  16
ATOM     16  S   UNL     1       4.232   5.480  17.174  0.00  0.00    +0.000 S 
BRANCH  16  17
ATOM     17  C   UNL     1       5.858   6.001  17.730  0.00  0.00    +0.000 A 
ATOM     18  C   UNL     1       6.648   5.165  18.534  0.00  0.00    +0.000 A 
ATOM     19  C   UNL     1       7.897   5.590  18.998  0.00  0.00    +0.000 A 
ATOM     20  C   UNL     1       8.371   6.859  18.664  0.00  0.00    +0.000 A 
ATOM     21  C   UNL     1       7.592   7.698  17.871  0.00  0.00    +0.000 A 
ATOM     22 CL   UNL     1       8.190   9.251  17.433  0.00  0.00    +0.000 Cl
ATOM     23  C   UNL     1       6.336   7.279  17.416  0.00  0.00    +0.000 A 
ENDBRANCH  16  17
ENDBRANCH   4  16
TORSDOF 3
ENDMDL
MODEL 3
REMARK VINA RESULT:      -7.4      2.535      3.590
REMARK  Name = 
REMARK  3 active torsions:
REMARK  status: ('A' for Active; 'I' for Inactive)
REMARK    1  A    between atoms: C_4  and  S_5
REMARK    2  A    between atoms: S_5  and  C_6
REMARK    3  A    between atoms: C_17  and  N_18
REMARK                            x       y       z     vdW  Elec       q    Type
REMARK                         _______ _______ _______ _____ _____    ______ ____
ROOT
ATOM      1  O   UNL     1       4.048   1.080  17.644  0.00  0.00    +0.000 OA
ATOM      2  C   UNL     1       3.884   2.273  17.874  0.00  0.00    +0.000 A 
ATOM      3  C   UNL     1       4.494   3.301  17.012  0.00  0.00    +0.000 A 
ATOM      4  C   UNL     1       4.273   4.620  17.208  0.00  0.00    +0.000 A 
ATOM      5  C   UNL     1       3.451   5.050  18.375  0.00  0.00    +0.000 A 
ATOM      6  C   UNL     1       3.198   6.401  18.677  0.00  0.00    +0.000 A 
ATOM      7  C   UNL     1       2.414   6.773  19.770  0.00  0.00    +0.000 A 
ATOM      8  C   UNL     1       1.863   5.803  20.597  0.00  0.00    +0.000 A 
ATOM      9  C   UNL     1       2.096   4.446  20.327  0.00  0.00    +0.000 A 
ATOM     10  C   UNL     1       2.888   4.063  19.222  0.00  0.00    +0.000 A 
ATOM     11  N   UNL     1       3.136   2.712  18.921  0.00  0.00    +0.000 N 
ATOM     12  H   UNL     1       2.733   1.981  19.511  0.00  0.00    +0.000 HD
ENDROOT
BRANCH   9  13
ATOM     13  N   UNL     1       1.486   3.454  21.230  0.00  0.00    +0.000 N 
ATOM     14  O   UNL     1       2.020   3.283  22.342  0.00  0.00    +0.000 OA
ATOM     15  O   UNL     1       0.482   2.846  20.848  0.00  0.00    +0.000 OA
ENDBRANCH   9  13
BRANCH   4  16
ATOM     16  S   UNL     1       5.045   5.822  16.200  0.00  0.00    +0.000 S 
BRANCH  16  17
ATOM     17  C   UNL     1       6.397   6.410  17.223  0.00  0.00    +0.000 A 
ATOM     18  C   UNL     1       7.003   5.571  18.172  0.00  0.00    +0.000 A 
ATOM     19  C   UNL     1       8.029   6.045  18.996  0.00  0.00    +0.000 A 
ATOM     20  C   UNL     1       8.462   7.367  18.881  0.00  0.00    +0.000 A 
ATOM     21  C   UNL     1       7.864   8.208  17.947  0.00  0.00    +0.000 A 
ATOM     22 CL   UNL     1       8.420   9.829  17.784  0.00  0.00    +0.000 Cl
ATOM     23  C   UNL     1       6.828   7.739  17.130  0.00  0.00    +0.000 A 
ENDBRANCH  16  17
ENDBRANCH   4  16
TORSDOF 3
ENDMDL
MODEL 4
REMARK VINA RESULT:      -7.4      1.163      1.683
REMARK  Name = 
REMARK  3 active torsions:
REMARK  status: ('A' for Active; 'I' for Inactive)
REMARK    1  A    between atoms: C_4  and  S_5
REMARK    2  A    between atoms: S_5  and  C_6
REMARK    3  A    between atoms: C_17  and  N_18
REMARK                            x       y       z     vdW  Elec       q    Type
REMARK                         _______ _______ _______ _____ _____    ______ ____
ROOT
ATOM      1  O   UNL     1       2.004   3.411  22.202  0.00  0.00    +0.000 OA
ATOM      2  C   UNL     1       2.126   4.107  21.199  0.00  0.00    +0.000 A 
ATOM      3  C   UNL     1       2.534   3.515  19.912  0.00  0.00    +0.000 A 
ATOM      4  C   UNL     1       2.611   4.251  18.781  0.00  0.00    +0.000 A 
ATOM      5  C   UNL     1       2.351   5.717  18.853  0.00  0.00    +0.000 A 
ATOM      6  C   UNL     1       2.442   6.566  17.734  0.00  0.00    +0.000 A 
ATOM      7  C   UNL     1       2.180   7.934  17.829  0.00  0.00    +0.000 A 
ATOM      8  C   UNL     1       1.823   8.493  19.049  0.00  0.00    +0.000 A 
ATOM      9  C   UNL     1       1.724   7.678  20.185  0.00  0.00    +0.000 A 
ATOM     10  C   UNL     1       1.987   6.292  20.095  0.00  0.00    +0.000 A 
ATOM     11  N   UNL     1       1.891   5.446  21.214  0.00  0.00    +0.000 N 
ATOM     12  H   UNL     1       1.621   5.835  22.120  0.00  0.00    +0.000 HD
ENDROOT
BRANCH   9  13
ATOM     13  N   UNL     1       1.337   8.317  21.456  0.00  0.00    +0.000 N 
ATOM     14  O   UNL     1       0.170   8.145  21.854  0.00  0.00    +0.000 OA
ATOM     15  O   UNL     1       2.180   8.985  22.061  0.00  0.00    +0.000 OA
ENDBRANCH   9  13
BRANCH   4  16
ATOM     16  S   UNL     1       3.141   3.535  17.276  0.00  0.00    +0.000 S 
BRANCH  16  17
ATOM     17  C   UNL     1       4.837   4.104  17.125  0.00  0.00    +0.000 A 
ATOM     18  C   UNL     1       5.607   4.387  18.263  0.00  0.00    +0.000 A 
ATOM     19  C   UNL     1       6.915   4.869  18.142  0.00  0.00    +0.000 A 
ATOM     20  C   UNL     1       7.468   5.076  16.878  0.00  0.00    +0.000 A 
ATOM     21  C   UNL     1       6.709   4.803  15.742  0.00  0.00    +0.000 A 
ATOM     22 CL   UNL     1       7.402   5.028  14.183  0.00  0.00    +0.000 Cl
ATOM     23  C   UNL     1       5.396   4.333  15.862  0.00  0.00    +0.000 A 
ENDBRANCH  16  17
ENDBRANCH   4  16
TORSDOF 3
ENDMDL
MODEL 5
REMARK VINA RESULT:      -7.3      5.321      7.346
REMARK  Name = 
REMARK  3 active torsions:
REMARK  status: ('A' for Active; 'I' for Inactive)
REMARK    1  A    between atoms: C_4  and  S_5
REMARK    2  A    between atoms: S_5  and  C_6
REMARK    3  A    between atoms: C_17  and  N_18
REMARK                            x       y       z     vdW  Elec       q    Type
REMARK                         _______ _______ _______ _____ _____    ______ ____
ROOT
ATOM      1  O   UNL     1       7.636   6.642  17.626  0.00  0.00    +0.000 OA
ATOM      2  C   UNL     1       7.104   5.886  16.820  0.00  0.00    +0.000 A 
ATOM      3  C   UNL     1       6.016   4.981  17.235  0.00  0.00    +0.000 A 
ATOM      4  C   UNL     1       5.371   4.188  16.351  0.00  0.00    +0.000 A 
ATOM      5  C   UNL     1       5.823   4.171  14.931  0.00  0.00    +0.000 A 
ATOM      6  C   UNL     1       5.234   3.352  13.950  0.00  0.00    +0.000 A 
ATOM      7  C   UNL     1       5.670   3.367  12.624  0.00  0.00    +0.000 A 
ATOM      8  C   UNL     1       6.712   4.200  12.241  0.00  0.00    +0.000 A 
ATOM      9  C   UNL     1       7.325   5.030  13.193  0.00  0.00    +0.000 A 
ATOM     10  C   UNL     1       6.887   5.020  14.536  0.00  0.00    +0.000 A 
ATOM     11  N   UNL     1       7.475   5.843  15.513  0.00  0.00    +0.000 N 
ATOM     12  H   UNL     1       8.238   6.471  15.252  0.00  0.00    +0.000 HD
ENDROOT
BRANCH   9  13
ATOM     13  N   UNL     1       8.423   5.900  12.737  0.00  0.00    +0.000 N 
ATOM     14  O   UNL     1       8.245   6.551  11.691  0.00  0.00    +0.000 OA
ATOM     15  O   UNL     1       9.459   5.944  13.407  0.00  0.00    +0.000 OA
ENDBRANCH   9  13
BRANCH   4  16
ATOM     16  S   UNL     1       4.116   3.090  16.877  0.00  0.00    +0.000 S 
BRANCH  16  17
ATOM     17  C   UNL     1       3.286   4.006  18.178  0.00  0.00    +0.000 A 
ATOM     18  C   UNL     1       2.893   5.340  17.984  0.00  0.00    +0.000 A 
ATOM     19  C   UNL     1       2.283   6.064  19.013  0.00  0.00    +0.000 A 
ATOM     20  C   UNL     1       2.058   5.462  20.252  0.00  0.00    +0.000 A 
ATOM     21  C   UNL     1       2.449   4.141  20.456  0.00  0.00    +0.000 A 
ATOM     22 CL   UNL     1       2.143   3.389  21.973  0.00  0.00    +0.000 Cl
ATOM     23  C   UNL     1       3.072   3.419  19.431  0.00  0.00    +0.000 A 
ENDBRANCH  16  17
ENDBRANCH   4  16
TORSDOF 3
ENDMDL
MODEL 6
REMARK VINA RESULT:      -7.3      4.130      5.320
REMARK  Name = 
REMARK  3 active torsions:
REMARK  status: ('A' for Active; 'I' for Inactive)
REMARK    1  A    between atoms: C_4  and  S_5
REMARK    2  A    between atoms: S_5  and  C_6
REMARK    3  A    between atoms: C_17  and  N_18
REMARK                            x       y       z     vdW  Elec       q    Type
REMARK                         _______ _______ _______ _____ _____    ______ ____
ROOT
ATOM      1  O   UNL     1       7.858   5.545  19.729  0.00  0.00    +0.000 OA
ATOM      2  C   UNL     1       6.856   5.219  19.101  0.00  0.00    +0.000 A 
ATOM      3  C   UNL     1       6.530   5.857  17.812  0.00  0.00    +0.000 A 
ATOM      4  C   UNL     1       5.468   5.468  17.072  0.00  0.00    +0.000 A 
ATOM      5  C   UNL     1       4.558   4.416  17.610  0.00  0.00    +0.000 A 
ATOM      6  C   UNL     1       3.411   3.974  16.925  0.00  0.00    +0.000 A 
ATOM      7  C   UNL     1       2.584   2.978  17.448  0.00  0.00    +0.000 A 
ATOM      8  C   UNL     1       2.880   2.398  18.674  0.00  0.00    +0.000 A 
ATOM      9  C   UNL     1       4.014   2.815  19.386  0.00  0.00    +0.000 A 
ATOM     10  C   UNL     1       4.855   3.822  18.861  0.00  0.00    +0.000 A 
ATOM     11  N   UNL     1       6.003   4.259  19.546  0.00  0.00    +0.000 N 
ATOM     12  H   UNL     1       6.244   3.840  20.447  0.00  0.00    +0.000 HD
ENDROOT
BRANCH   9  13
ATOM     13  N   UNL     1       4.288   2.167  20.680  0.00  0.00    +0.000 N 
ATOM     14  O   UNL     1       3.426   2.276  21.572  0.00  0.00    +0.000 OA
ATOM     15  O   UNL     1       5.347   1.549  20.819  0.00  0.00    +0.000 OA
ENDBRANCH   9  13
BRANCH   4  16
ATOM     16  S   UNL     1       5.076   6.271  15.570  0.00  0.00    +0.000 S 
BRANCH  16  17
ATOM     17  C   UNL     1       5.878   5.247  14.333  0.00  0.00    +0.000 A 
ATOM     18  C   UNL     1       7.264   5.322  14.123  0.00  0.00    +0.000 A 
ATOM     19  C   UNL     1       7.881   4.553  13.131  0.00  0.00    +0.000 A 
ATOM     20  C   UNL     1       7.118   3.698  12.335  0.00  0.00    +0.000 A 
ATOM     21  C   UNL     1       5.741   3.621  12.533  0.00  0.00    +0.000 A 
ATOM     22 CL   UNL     1       4.804   2.543  11.573  0.00  0.00    +0.000 Cl
ATOM     23  C   UNL     1       5.120   4.399  13.517  0.00  0.00    +0.000 A 
ENDBRANCH  16  17
ENDBRANCH   4  16
TORSDOF 3
ENDMDL
MODEL 7
REMARK VINA RESULT:      -7.2      1.395      1.700
REMARK  Name = 
REMARK  3 active torsions:
REMARK  status: ('A' for Active; 'I' for Inactive)
REMARK    1  A    between atoms: C_4  and  S_5
REMARK    2  A    between atoms: S_5  and  C_6
REMARK    3  A    between atoms: C_17  and  N_18
REMARK                            x       y       z     vdW  Elec       q    Type
REMARK                         _______ _______ _______ _____ _____    ______ ____
ROOT
ATOM      1  O   UNL     1       2.001   4.350  21.621  0.00  0.00    +0.000 OA
ATOM      2  C   UNL     1       2.187   5.204  20.760  0.00  0.00    +0.000 A 
ATOM      3  C   UNL     1       3.029   4.920  19.583  0.00  0.00    +0.000 A 
ATOM      4  C   UNL     1       3.194   5.822  18.590  0.00  0.00    +0.000 A 
ATOM      5  C   UNL     1       2.570   7.169  18.726  0.00  0.00    +0.000 A 
ATOM      6  C   UNL     1       2.718   8.181  17.760  0.00  0.00    +0.000 A 
ATOM      7  C   UNL     1       2.111   9.430  17.907  0.00  0.00    +0.000 A 
ATOM      8  C   UNL     1       1.341   9.703  19.030  0.00  0.00    +0.000 A 
ATOM      9  C   UNL     1       1.174   8.718  20.015  0.00  0.00    +0.000 A 
ATOM     10  C   UNL     1       1.784   7.453  19.870  0.00  0.00    +0.000 A 
ATOM     11  N   UNL     1       1.632   6.442  20.836  0.00  0.00    +0.000 N 
ATOM     12  H   UNL     1       1.062   6.618  21.667  0.00  0.00    +0.000 HD
ENDROOT
BRANCH   9  13
ATOM     13  N   UNL     1       0.344   9.055  21.185  0.00  0.00    +0.000 N 
ATOM     14  O   UNL     1       0.764   8.711  22.306  0.00  0.00    +0.000 OA
ATOM     15  O   UNL     1      -0.718   9.657  21.004  0.00  0.00    +0.000 OA
ENDBRANCH   9  13
BRANCH   4  16
ATOM     16  S   UNL     1       4.234   5.479  17.228  0.00  0.00    +0.000 S 
BRANCH  16  17
ATOM     17  C   UNL     1       5.819   6.146  17.742  0.00  0.00    +0.000 A 
ATOM     18  C   UNL     1       6.354   7.290  17.129  0.00  0.00    +0.000 A 
ATOM     19  C   UNL     1       7.608   7.783  17.504  0.00  0.00    +0.000 A 
ATOM     20  C   UNL     1       8.345   7.137  18.498  0.00  0.00    +0.000 A 
ATOM     21  C   UNL     1       7.824   5.998  19.107  0.00  0.00    +0.000 A 
ATOM     22 CL   UNL     1       8.718   5.218  20.355  0.00  0.00    +0.000 Cl
ATOM     23  C   UNL     1       6.575   5.495  18.725  0.00  0.00    +0.000 A 
ENDBRANCH  16  17
ENDBRANCH   4  16
TORSDOF 3
ENDMDL
MODEL 8
REMARK VINA RESULT:      -7.2      5.225      7.296
REMARK  Name = 
REMARK  3 active torsions:
REMARK  status: ('A' for Active; 'I' for Inactive)
REMARK    1  A    between atoms: C_4  and  S_5
REMARK    2  A    between atoms: S_5  and  C_6
REMARK    3  A    between atoms: C_17  and  N_18
REMARK                            x       y       z     vdW  Elec       q    Type
REMARK                         _______ _______ _______ _____ _____    ______ ____
ROOT
ATOM      1  O   UNL     1       7.771   6.832  17.714  0.00  0.00    +0.000 OA
ATOM      2  C   UNL     1       7.190   6.051  16.968  0.00  0.00    +0.000 A 
ATOM      3  C   UNL     1       6.101   5.193  17.471  0.00  0.00    +0.000 A 
ATOM      4  C   UNL     1       5.403   4.374  16.653  0.00  0.00    +0.000 A 
ATOM      5  C   UNL     1       5.796   4.279  15.218  0.00  0.00    +0.000 A 
ATOM      6  C   UNL     1       5.149   3.428  14.302  0.00  0.00    +0.000 A 
ATOM      7  C   UNL     1       5.530   3.370  12.961  0.00  0.00    +0.000 A 
ATOM      8  C   UNL     1       6.574   4.159  12.496  0.00  0.00    +0.000 A 
ATOM      9  C   UNL     1       7.243   5.018  13.381  0.00  0.00    +0.000 A 
ATOM     10  C   UNL     1       6.861   5.082  14.740  0.00  0.00    +0.000 A 
ATOM     11  N   UNL     1       7.506   5.937  15.651  0.00  0.00    +0.000 N 
ATOM     12  H   UNL     1       8.272   6.534  15.329  0.00  0.00    +0.000 HD
ENDROOT
BRANCH   9  13
ATOM     13  N   UNL     1       8.340   5.839  12.840  0.00  0.00    +0.000 N 
ATOM     14  O   UNL     1       9.388   5.911  13.509  0.00  0.00    +0.000 OA
ATOM     15  O   UNL     1       8.173   6.410  11.759  0.00  0.00    +0.000 OA
ENDBRANCH   9  13
BRANCH   4  16
ATOM     16  S   UNL     1       4.147   3.333  17.281  0.00  0.00    +0.000 S 
BRANCH  16  17
ATOM     17  C   UNL     1       3.336   4.361  18.508  0.00  0.00    +0.000 A 
ATOM     18  C   UNL     1       2.949   3.833  19.750  0.00  0.00    +0.000 A 
ATOM     19  C   UNL     1       2.280   4.626  20.689  0.00  0.00    +0.000 A 
ATOM     20  C   UNL     1       1.989   5.958  20.396  0.00  0.00    +0.000 A 
ATOM     21  C   UNL     1       2.364   6.489  19.164  0.00  0.00    +0.000 A 
ATOM     22 CL   UNL     1       2.033   8.142  18.815  0.00  0.00    +0.000 Cl
ATOM     23  C   UNL     1       3.022   5.694  18.218  0.00  0.00    +0.000 A 
ENDBRANCH  16  17
ENDBRANCH   4  16
TORSDOF 3
ENDMDL
MODEL 9
REMARK VINA RESULT:      -7.1      4.014      6.156
REMARK  Name = 
REMARK  3 active torsions:
REMARK  status: ('A' for Active; 'I' for Inactive)
REMARK    1  A    between atoms: C_4  and  S_5
REMARK    2  A    between atoms: S_5  and  C_6
REMARK    3  A    between atoms: C_17  and  N_18
REMARK                            x       y       z     vdW  Elec       q    Type
REMARK                         _______ _______ _______ _____ _____    ______ ____
ROOT
ATOM      1  O   UNL     1       7.302   5.529  19.237  0.00  0.00    +0.000 OA
ATOM      2  C   UNL     1       6.121   5.373  18.942  0.00  0.00    +0.000 A 
ATOM      3  C   UNL     1       5.330   6.482  18.377  0.00  0.00    +0.000 A 
ATOM      4  C   UNL     1       4.047   6.315  17.984  0.00  0.00    +0.000 A 
ATOM      5  C   UNL     1       3.391   4.993  18.199  0.00  0.00    +0.000 A 
ATOM      6  C   UNL     1       2.051   4.740  17.854  0.00  0.00    +0.000 A 
ATOM      7  C   UNL     1       1.466   3.488  18.055  0.00  0.00    +0.000 A 
ATOM      8  C   UNL     1       2.206   2.454  18.612  0.00  0.00    +0.000 A 
ATOM      9  C   UNL     1       3.545   2.671  18.971  0.00  0.00    +0.000 A 
ATOM     10  C   UNL     1       4.142   3.936  18.769  0.00  0.00    +0.000 A 
ATOM     11  N   UNL     1       5.483   4.185  19.111  0.00  0.00    +0.000 N 
ATOM     12  H   UNL     1       6.049   3.435  19.515  0.00  0.00    +0.000 HD
ENDROOT
BRANCH   9  13
ATOM     13  N   UNL     1       4.290   1.541  19.554  0.00  0.00    +0.000 N 
ATOM     14  O   UNL     1       4.901   1.744  20.620  0.00  0.00    +0.000 OA
ATOM     15  O   UNL     1       4.273   0.456  18.967  0.00  0.00    +0.000 OA
ENDBRANCH   9  13
BRANCH   4  16
ATOM     16  S   UNL     1       3.116   7.656  17.360  0.00  0.00    +0.000 S 
BRANCH  16  17
ATOM     17  C   UNL     1       2.159   8.189  18.782  0.00  0.00    +0.000 A 
ATOM     18  C   UNL     1       2.134   7.429  19.962  0.00  0.00    +0.000 A 
ATOM     19  C   UNL     1       1.355   7.826  21.054  0.00  0.00    +0.000 A 
ATOM     20  C   UNL     1       0.589   8.990  20.979  0.00  0.00    +0.000 A 
ATOM     21  C   UNL     1       0.603   9.748  19.811  0.00  0.00    +0.000 A 
ATOM     22 CL   UNL     1      -0.317  11.200  19.729  0.00  0.00    +0.000 Cl
ATOM     23  C   UNL     1       1.372   9.346  18.712  0.00  0.00    +0.000 A 
ENDBRANCH  16  17
ENDBRANCH   4  16
TORSDOF 3
ENDMDL
