MODEL 1
REMARK VINA RESULT:      -7.6      0.000      0.000
REMARK  Name = 
REMARK  10 active torsions:
REMARK  status: ('A' for Active; 'I' for Inactive)
REMARK    1  A    between atoms: C_1  and  O_2
REMARK    2  A    between atoms: O_2  and  C_3
REMARK    3  A    between atoms: C_4  and  C_5
REMARK    4  A    between atoms: C_5  and  C_6
REMARK    5  A    between atoms: C_7  and  C_8
REMARK    6  A    between atoms: C_8  and  C_9
REMARK    7  A    between atoms: C_10  and  C_11
REMARK    8  A    between atoms: C_10  and  C_12
REMARK    9  A    between atoms: C_16  and  O_17
REMARK   10  A    between atoms: O_17  and  C_18
REMARK                            x       y       z     vdW  Elec       q    Type
REMARK                         _______ _______ _______ _____ _____    ______ ____
ROOT
ATOM      1  C   UNL     1       4.828   4.932  17.448  0.00  0.00    +0.000 C 
ATOM      2  C   UNL     1       3.275   5.117  17.648  0.00  0.00    +0.000 C 
ATOM      3  C   UNL     1       2.812   3.834  18.334  0.00  0.00    +0.000 C 
ATOM      4  C   UNL     1       3.421   3.540  19.676  0.00  0.00    +0.000 C 
ATOM      5  C   UNL     1       4.949   3.604  19.640  0.00  0.00    +0.000 C 
ATOM      6  C   UNL     1       5.510   4.792  18.840  0.00  0.00    +0.000 C 
ATOM      7  C   UNL     1       2.275   2.695  17.482  0.00  0.00    +0.000 C 
ATOM      8  O   UNL     1       1.406   3.549  18.231  0.00  0.00    +0.000 OA
ENDROOT
BRANCH   2   9
ATOM      9  C   UNL     1       2.842   6.434  18.343  0.00  0.00    +0.000 C 
ATOM     10  C   UNL     1       2.342   6.347  19.773  0.00  0.00    +0.000 C 
ATOM     11  C   UNL     1       2.837   7.613  17.681  0.00  0.00    +0.000 C 
BRANCH  11  12
ATOM     12  C   UNL     1       2.458   8.960  18.221  0.00  0.00    +0.000 C 
BRANCH  12  13
ATOM     13  C   UNL     1       1.091   9.388  17.771  0.00  0.00    +0.000 C 
ATOM     14  C   UNL     1       0.147   9.886  18.594  0.00  0.00    +0.000 C 
ATOM     15  C   UNL     1       0.348  10.072  20.072  0.00  0.00    +0.000 C 
ATOM     16  C   UNL     1      -1.199  10.313  18.076  0.00  0.00    +0.000 C 
ENDBRANCH  12  13
ENDBRANCH  11  12
ENDBRANCH   2   9
BRANCH   1  18
ATOM     17  C   UNL     1       5.853   4.003  15.462  0.00  0.00    +0.000 C 
ATOM     18  O   UNL     1       5.009   3.784  16.583  0.00  0.00    +0.000 OA
ENDBRANCH   1  18
BRANCH   6  19
ATOM     19  O   UNL     1       6.942   4.641  18.664  0.00  0.00    +0.000 OA
BRANCH  19  20
ATOM     20  C   UNL     1       7.725   5.664  19.062  0.00  0.00    +0.000 C 
ATOM     21  N   UNL     1       8.298   5.390  20.259  0.00  0.00    +0.000 N 
ATOM     22  O   UNL     1       7.919   6.708  18.454  0.00  0.00    +0.000 OA
ATOM     23  H   UNL     1       8.099   4.523  20.739  0.00  0.00    +0.000 HD
ATOM     24  H   UNL     1       8.900   6.077  20.673  0.00  0.00    +0.000 HD
ENDBRANCH  19  20
ENDBRANCH   6  19
TORSDOF 6
ENDMDL
MODEL 2
REMARK VINA RESULT:      -7.5      3.190      5.725
REMARK  Name = 
REMARK  10 active torsions:
REMARK  status: ('A' for Active; 'I' for Inactive)
REMARK    1  A    between atoms: C_1  and  O_2
REMARK    2  A    between atoms: O_2  and  C_3
REMARK    3  A    between atoms: C_4  and  C_5
REMARK    4  A    between atoms: C_5  and  C_6
REMARK    5  A    between atoms: C_7  and  C_8
REMARK    6  A    between atoms: C_8  and  C_9
REMARK    7  A    between atoms: C_10  and  C_11
REMARK    8  A    between atoms: C_10  and  C_12
REMARK    9  A    between atoms: C_16  and  O_17
REMARK   10  A    between atoms: O_17  and  C_18
REMARK                            x       y       z     vdW  Elec       q    Type
REMARK                         _______ _______ _______ _____ _____    ______ ____
ROOT
ATOM      1  C   UNL     1       5.100   4.670  18.096  0.00  0.00    +0.000 C 
ATOM      2  C   UNL     1       6.518   5.012  17.498  0.00  0.00    +0.000 C 
ATOM      3  C   UNL     1       6.241   5.469  16.068  0.00  0.00    +0.000 C 
ATOM      4  C   UNL     1       5.367   6.681  15.914  0.00  0.00    +0.000 C 
ATOM      5  C   UNL     1       4.058   6.549  16.695  0.00  0.00    +0.000 C 
ATOM      6  C   UNL     1       4.224   5.956  18.104  0.00  0.00    +0.000 C 
ATOM      7  C   UNL     1       6.329   4.453  14.940  0.00  0.00    +0.000 C 
ATOM      8  O   UNL     1       7.364   5.414  15.171  0.00  0.00    +0.000 OA
ENDROOT
BRANCH   2   9
ATOM      9  C   UNL     1       7.386   5.978  18.346  0.00  0.00    +0.000 C 
ATOM     10  C   UNL     1       7.808   5.518  19.729  0.00  0.00    +0.000 C 
ATOM     11  C   UNL     1       7.700   7.217  17.905  0.00  0.00    +0.000 C 
BRANCH  11  12
ATOM     12  C   UNL     1       8.534   8.249  18.605  0.00  0.00    +0.000 C 
BRANCH  12  13
ATOM     13  C   UNL     1       8.418   9.602  17.964  0.00  0.00    +0.000 C 
ATOM     14  C   UNL     1       8.976  10.724  18.460  0.00  0.00    +0.000 C 
ATOM     15  C   UNL     1       9.786  10.757  19.727  0.00  0.00    +0.000 C 
ATOM     16  C   UNL     1       8.836  12.047  17.759  0.00  0.00    +0.000 C 
ENDBRANCH  12  13
ENDBRANCH  11  12
ENDBRANCH   2   9
BRANCH   1  18
ATOM     17  C   UNL     1       3.910   2.563  18.041  0.00  0.00    +0.000 C 
ATOM     18  O   UNL     1       4.556   3.589  17.301  0.00  0.00    +0.000 OA
ENDBRANCH   1  18
BRANCH   6  19
ATOM     19  O   UNL     1       2.923   5.652  18.671  0.00  0.00    +0.000 OA
BRANCH  19  20
ATOM     20  C   UNL     1       2.513   6.403  19.714  0.00  0.00    +0.000 C 
ATOM     21  N   UNL     1       2.456   5.659  20.845  0.00  0.00    +0.000 N 
ATOM     22  O   UNL     1       2.227   7.592  19.683  0.00  0.00    +0.000 OA
ATOM     23  H   UNL     1       2.684   4.675  20.826  0.00  0.00    +0.000 HD
ATOM     24  H   UNL     1       2.156   6.097  21.695  0.00  0.00    +0.000 HD
ENDBRANCH  19  20
ENDBRANCH   6  19
TORSDOF 6
ENDMDL
MODEL 3
REMARK VINA RESULT:      -7.2      1.004      1.004
REMARK  Name = 
REMARK  10 active torsions:
REMARK  status: ('A' for Active; 'I' for Inactive)
REMARK    1  A    between atoms: C_1  and  O_2
REMARK    2  A    between atoms: O_2  and  C_3
REMARK    3  A    between atoms: C_4  and  C_5
REMARK    4  A    between atoms: C_5  and  C_6
REMARK    5  A    between atoms: C_7  and  C_8
REMARK    6  A    between atoms: C_8  and  C_9
REMARK    7  A    between atoms: C_10  and  C_11
REMARK    8  A    between atoms: C_10  and  C_12
REMARK    9  A    between atoms: C_16  and  O_17
REMARK   10  A    between atoms: O_17  and  C_18
REMARK                            x       y       z     vdW  Elec       q    Type
REMARK                         _______ _______ _______ _____ _____    ______ ____
ROOT
ATOM      1  C   UNL     1       4.572   5.251  17.124  0.00  0.00    +0.000 C 
ATOM      2  C   UNL     1       3.075   5.332  17.613  0.00  0.00    +0.000 C 
ATOM      3  C   UNL     1       2.855   4.052  18.415  0.00  0.00    +0.000 C 
ATOM      4  C   UNL     1       3.728   3.864  19.623  0.00  0.00    +0.000 C 
ATOM      5  C   UNL     1       5.212   4.037  19.292  0.00  0.00    +0.000 C 
ATOM      6  C   UNL     1       5.514   5.224  18.362  0.00  0.00    +0.000 C 
ATOM      7  C   UNL     1       2.259   2.839  17.718  0.00  0.00    +0.000 C 
ATOM      8  O   UNL     1       1.483   3.661  18.594  0.00  0.00    +0.000 OA
ENDROOT
BRANCH   2   9
ATOM      9  C   UNL     1       2.678   6.645  18.337  0.00  0.00    +0.000 C 
ATOM     10  C   UNL     1       2.294   6.554  19.803  0.00  0.00    +0.000 C 
ATOM     11  C   UNL     1       2.603   7.821  17.676  0.00  0.00    +0.000 C 
BRANCH  11  12
ATOM     12  C   UNL     1       2.246   9.164  18.241  0.00  0.00    +0.000 C 
BRANCH  12  13
ATOM     13  C   UNL     1       0.845   9.573  17.892  0.00  0.00    +0.000 C 
ATOM     14  C   UNL     1      -0.071   9.976  18.794  0.00  0.00    +0.000 C 
ATOM     15  C   UNL     1       0.200  10.062  20.271  0.00  0.00    +0.000 C 
ATOM     16  C   UNL     1      -1.455  10.390  18.376  0.00  0.00    +0.000 C 
ENDBRANCH  12  13
ENDBRANCH  11  12
ENDBRANCH   2   9
BRANCH   1  18
ATOM     17  C   UNL     1       5.387   4.280  15.062  0.00  0.00    +0.000 C 
ATOM     18  O   UNL     1       4.677   4.082  16.276  0.00  0.00    +0.000 OA
ENDBRANCH   1  18
BRANCH   6  19
ATOM     19  O   UNL     1       6.895   5.170  17.918  0.00  0.00    +0.000 OA
BRANCH  19  20
ATOM     20  C   UNL     1       7.569   6.336  17.852  0.00  0.00    +0.000 C 
ATOM     21  N   UNL     1       7.557   6.823  16.588  0.00  0.00    +0.000 N 
ATOM     22  O   UNL     1       8.125   6.907  18.780  0.00  0.00    +0.000 OA
ATOM     23  H   UNL     1       7.102   6.313  15.843  0.00  0.00    +0.000 HD
ATOM     24  H   UNL     1       8.033   7.685  16.398  0.00  0.00    +0.000 HD
ENDBRANCH  19  20
ENDBRANCH   6  19
TORSDOF 6
ENDMDL
MODEL 4
REMARK VINA RESULT:      -7.1      2.967      6.716
REMARK  Name = 
REMARK  10 active torsions:
REMARK  status: ('A' for Active; 'I' for Inactive)
REMARK    1  A    between atoms: C_1  and  O_2
REMARK    2  A    between atoms: O_2  and  C_3
REMARK    3  A    between atoms: C_4  and  C_5
REMARK    4  A    between atoms: C_5  and  C_6
REMARK    5  A    between atoms: C_7  and  C_8
REMARK    6  A    between atoms: C_8  and  C_9
REMARK    7  A    between atoms: C_10  and  C_11
REMARK    8  A    between atoms: C_10  and  C_12
REMARK    9  A    between atoms: C_16  and  O_17
REMARK   10  A    between atoms: O_17  and  C_18
REMARK                            x       y       z     vdW  Elec       q    Type
REMARK                         _______ _______ _______ _____ _____    ______ ____
ROOT
ATOM      1  C   UNL     1       4.180   6.143  17.560  0.00  0.00    +0.000 C 
ATOM      2  C   UNL     1       5.344   6.155  16.496  0.00  0.00    +0.000 C 
ATOM      3  C   UNL     1       6.608   6.446  17.300  0.00  0.00    +0.000 C 
ATOM      4  C   UNL     1       6.964   5.448  18.365  0.00  0.00    +0.000 C 
ATOM      5  C   UNL     1       5.788   5.165  19.303  0.00  0.00    +0.000 C 
ATOM      6  C   UNL     1       4.438   5.002  18.587  0.00  0.00    +0.000 C 
ATOM      7  C   UNL     1       7.091   7.883  17.420  0.00  0.00    +0.000 C 
ATOM      8  O   UNL     1       7.724   6.946  16.543  0.00  0.00    +0.000 OA
ENDROOT
BRANCH   2   9
ATOM      9  C   UNL     1       5.418   4.912  15.571  0.00  0.00    +0.000 C 
ATOM     10  C   UNL     1       4.787   3.624  16.068  0.00  0.00    +0.000 C 
ATOM     11  C   UNL     1       6.082   4.946  14.394  0.00  0.00    +0.000 C 
BRANCH  11  12
ATOM     12  C   UNL     1       6.228   3.835  13.397  0.00  0.00    +0.000 C 
BRANCH  12  13
ATOM     13  C   UNL     1       5.072   3.775  12.441  0.00  0.00    +0.000 C 
ATOM     14  C   UNL     1       4.893   2.795  11.533  0.00  0.00    +0.000 C 
ATOM     15  C   UNL     1       5.837   1.638  11.363  0.00  0.00    +0.000 C 
ATOM     16  C   UNL     1       3.702   2.785  10.615  0.00  0.00    +0.000 C 
ENDBRANCH  12  13
ENDBRANCH  11  12
ENDBRANCH   2   9
BRANCH   1  18
ATOM     17  C   UNL     1       2.890   8.142  18.002  0.00  0.00    +0.000 C 
ATOM     18  O   UNL     1       4.131   7.466  18.147  0.00  0.00    +0.000 OA
ENDBRANCH   1  18
BRANCH   6  19
ATOM     19  O   UNL     1       3.360   4.973  19.558  0.00  0.00    +0.000 OA
BRANCH  19  20
ATOM     20  C   UNL     1       2.599   3.860  19.603  0.00  0.00    +0.000 C 
ATOM     21  N   UNL     1       1.447   4.040  18.912  0.00  0.00    +0.000 N 
ATOM     22  O   UNL     1       2.876   2.814  20.174  0.00  0.00    +0.000 OA
ATOM     23  H   UNL     1       1.246   4.926  18.468  0.00  0.00    +0.000 HD
ATOM     24  H   UNL     1       0.785   3.289  18.875  0.00  0.00    +0.000 HD
ENDBRANCH  19  20
ENDBRANCH   6  19
TORSDOF 6
ENDMDL
MODEL 5
REMARK VINA RESULT:      -7.0      0.881      1.033
REMARK  Name = 
REMARK  10 active torsions:
REMARK  status: ('A' for Active; 'I' for Inactive)
REMARK    1  A    between atoms: C_1  and  O_2
REMARK    2  A    between atoms: O_2  and  C_3
REMARK    3  A    between atoms: C_4  and  C_5
REMARK    4  A    between atoms: C_5  and  C_6
REMARK    5  A    between atoms: C_7  and  C_8
REMARK    6  A    between atoms: C_8  and  C_9
REMARK    7  A    between atoms: C_10  and  C_11
REMARK    8  A    between atoms: C_10  and  C_12
REMARK    9  A    between atoms: C_16  and  O_17
REMARK   10  A    between atoms: O_17  and  C_18
REMARK                            x       y       z     vdW  Elec       q    Type
REMARK                         _______ _______ _______ _____ _____    ______ ____
ROOT
ATOM      1  C   UNL     1       4.614   5.872  17.106  0.00  0.00    +0.000 C 
ATOM      2  C   UNL     1       3.117   5.719  17.576  0.00  0.00    +0.000 C 
ATOM      3  C   UNL     1       3.057   4.354  18.258  0.00  0.00    +0.000 C 
ATOM      4  C   UNL     1       3.942   4.171  19.458  0.00  0.00    +0.000 C 
ATOM      5  C   UNL     1       5.393   4.559  19.168  0.00  0.00    +0.000 C 
ATOM      6  C   UNL     1       5.546   5.853  18.352  0.00  0.00    +0.000 C 
ATOM      7  C   UNL     1       2.624   3.143  17.447  0.00  0.00    +0.000 C 
ATOM      8  O   UNL     1       1.745   3.779  18.379  0.00  0.00    +0.000 OA
ENDROOT
BRANCH   2   9
ATOM      9  C   UNL     1       2.553   6.900  18.407  0.00  0.00    +0.000 C 
ATOM     10  C   UNL     1       2.191   6.635  19.857  0.00  0.00    +0.000 C 
ATOM     11  C   UNL     1       2.319   8.109  17.848  0.00  0.00    +0.000 C 
BRANCH  11  12
ATOM     12  C   UNL     1       1.790   9.340  18.524  0.00  0.00    +0.000 C 
BRANCH  12  13
ATOM     13  C   UNL     1       0.441   9.739  18.001  0.00  0.00    +0.000 C 
ATOM     14  C   UNL     1      -0.551  10.231  18.768  0.00  0.00    +0.000 C 
ATOM     15  C   UNL     1      -0.428  10.437  20.252  0.00  0.00    +0.000 C 
ATOM     16  C   UNL     1      -1.876  10.629  18.178  0.00  0.00    +0.000 C 
ENDBRANCH  12  13
ENDBRANCH  11  12
ENDBRANCH   2   9
BRANCH   1  18
ATOM     17  C   UNL     1       5.576   5.196  14.990  0.00  0.00    +0.000 C 
ATOM     18  O   UNL     1       4.871   4.806  16.160  0.00  0.00    +0.000 OA
ENDBRANCH   1  18
BRANCH   6  19
ATOM     19  O   UNL     1       6.925   6.013  17.928  0.00  0.00    +0.000 OA
BRANCH  19  20
ATOM     20  C   UNL     1       7.826   5.134  18.410  0.00  0.00    +0.000 C 
ATOM     21  N   UNL     1       8.213   5.484  19.660  0.00  0.00    +0.000 N 
ATOM     22  O   UNL     1       8.256   4.145  17.832  0.00  0.00    +0.000 OA
ATOM     23  H   UNL     1       7.848   6.319  20.098  0.00  0.00    +0.000 HD
ATOM     24  H   UNL     1       8.891   4.915  20.132  0.00  0.00    +0.000 HD
ENDBRANCH  19  20
ENDBRANCH   6  19
TORSDOF 6
ENDMDL
MODEL 6
REMARK VINA RESULT:      -6.9      1.606      1.933
REMARK  Name = 
REMARK  10 active torsions:
REMARK  status: ('A' for Active; 'I' for Inactive)
REMARK    1  A    between atoms: C_1  and  O_2
REMARK    2  A    between atoms: O_2  and  C_3
REMARK    3  A    between atoms: C_4  and  C_5
REMARK    4  A    between atoms: C_5  and  C_6
REMARK    5  A    between atoms: C_7  and  C_8
REMARK    6  A    between atoms: C_8  and  C_9
REMARK    7  A    between atoms: C_10  and  C_11
REMARK    8  A    between atoms: C_10  and  C_12
REMARK    9  A    between atoms: C_16  and  O_17
REMARK   10  A    between atoms: O_17  and  C_18
REMARK                            x       y       z     vdW  Elec       q    Type
REMARK                         _______ _______ _______ _____ _____    ______ ____
ROOT
ATOM      1  C   UNL     1       4.203   5.992  17.966  0.00  0.00    +0.000 C 
ATOM      2  C   UNL     1       2.796   5.438  18.413  0.00  0.00    +0.000 C 
ATOM      3  C   UNL     1       2.947   3.919  18.391  0.00  0.00    +0.000 C 
ATOM      4  C   UNL     1       3.987   3.340  19.308  0.00  0.00    +0.000 C 
ATOM      5  C   UNL     1       5.349   4.015  19.131  0.00  0.00    +0.000 C 
ATOM      6  C   UNL     1       5.280   5.545  18.996  0.00  0.00    +0.000 C 
ATOM      7  C   UNL     1       2.531   3.154  17.144  0.00  0.00    +0.000 C 
ATOM      8  O   UNL     1       1.719   3.174  18.322  0.00  0.00    +0.000 OA
ENDROOT
BRANCH   2   9
ATOM      9  C   UNL     1       2.233   6.029  19.731  0.00  0.00    +0.000 C 
ATOM     10  C   UNL     1       1.783   5.056  20.806  0.00  0.00    +0.000 C 
ATOM     11  C   UNL     1       2.075   7.361  19.897  0.00  0.00    +0.000 C 
BRANCH  11  12
ATOM     12  C   UNL     1       1.557   8.074  21.111  0.00  0.00    +0.000 C 
BRANCH  12  13
ATOM     13  C   UNL     1       0.752   9.290  20.755  0.00  0.00    +0.000 C 
ATOM     14  C   UNL     1      -0.024   9.964  21.627  0.00  0.00    +0.000 C 
ATOM     15  C   UNL     1      -0.181   9.575  23.071  0.00  0.00    +0.000 C 
ATOM     16  C   UNL     1      -0.793  11.187  21.210  0.00  0.00    +0.000 C 
ENDBRANCH  12  13
ENDBRANCH  11  12
ENDBRANCH   2   9
BRANCH   1  18
ATOM     17  C   UNL     1       5.158   6.403  15.780  0.00  0.00    +0.000 C 
ATOM     18  O   UNL     1       4.438   5.512  16.620  0.00  0.00    +0.000 OA
ENDBRANCH   1  18
BRANCH   6  19
ATOM     19  O   UNL     1       6.574   6.068  18.601  0.00  0.00    +0.000 OA
BRANCH  19  20
ATOM     20  C   UNL     1       7.644   5.264  18.769  0.00  0.00    +0.000 C 
ATOM     21  N   UNL     1       8.201   5.459  19.988  0.00  0.00    +0.000 N 
ATOM     22  O   UNL     1       8.079   4.456  17.959  0.00  0.00    +0.000 OA
ATOM     23  H   UNL     1       7.823   6.148  20.623  0.00  0.00    +0.000 HD
ATOM     24  H   UNL     1       9.014   4.927  20.238  0.00  0.00    +0.000 HD
ENDBRANCH  19  20
ENDBRANCH   6  19
TORSDOF 6
ENDMDL
MODEL 7
REMARK VINA RESULT:      -6.9      3.239      5.660
REMARK  Name = 
REMARK  10 active torsions:
REMARK  status: ('A' for Active; 'I' for Inactive)
REMARK    1  A    between atoms: C_1  and  O_2
REMARK    2  A    between atoms: O_2  and  C_3
REMARK    3  A    between atoms: C_4  and  C_5
REMARK    4  A    between atoms: C_5  and  C_6
REMARK    5  A    between atoms: C_7  and  C_8
REMARK    6  A    between atoms: C_8  and  C_9
REMARK    7  A    between atoms: C_10  and  C_11
REMARK    8  A    between atoms: C_10  and  C_12
REMARK    9  A    between atoms: C_16  and  O_17
REMARK   10  A    between atoms: O_17  and  C_18
REMARK                            x       y       z     vdW  Elec       q    Type
REMARK                         _______ _______ _______ _____ _____    ______ ____
ROOT
ATOM      1  C   UNL     1       5.173   4.438  18.651  0.00  0.00    +0.000 C 
ATOM      2  C   UNL     1       6.212   5.114  17.676  0.00  0.00    +0.000 C 
ATOM      3  C   UNL     1       5.362   5.785  16.600  0.00  0.00    +0.000 C 
ATOM      4  C   UNL     1       4.409   6.847  17.072  0.00  0.00    +0.000 C 
ATOM      5  C   UNL     1       3.526   6.358  18.221  0.00  0.00    +0.000 C 
ATOM      6  C   UNL     1       4.276   5.540  19.286  0.00  0.00    +0.000 C 
ATOM      7  C   UNL     1       5.076   5.033  15.310  0.00  0.00    +0.000 C 
ATOM      8  O   UNL     1       6.043   6.086  15.370  0.00  0.00    +0.000 OA
ENDROOT
BRANCH   2   9
ATOM      9  C   UNL     1       7.268   6.027  18.352  0.00  0.00    +0.000 C 
ATOM     10  C   UNL     1       7.962   5.502  19.595  0.00  0.00    +0.000 C 
ATOM     11  C   UNL     1       7.514   7.277  17.901  0.00  0.00    +0.000 C 
BRANCH  11  12
ATOM     12  C   UNL     1       8.507   8.263  18.441  0.00  0.00    +0.000 C 
BRANCH  12  13
ATOM     13  C   UNL     1       8.316   9.635  17.863  0.00  0.00    +0.000 C 
ATOM     14  C   UNL     1       8.885  10.751  18.361  0.00  0.00    +0.000 C 
ATOM     15  C   UNL     1       9.782  10.757  19.568  0.00  0.00    +0.000 C 
ATOM     16  C   UNL     1       8.667  12.095  17.723  0.00  0.00    +0.000 C 
ENDBRANCH  12  13
ENDBRANCH  11  12
ENDBRANCH   2   9
BRANCH   1  18
ATOM     17  C   UNL     1       4.142   2.250  18.563  0.00  0.00    +0.000 C 
ATOM     18  O   UNL     1       4.444   3.456  17.876  0.00  0.00    +0.000 OA
ENDBRANCH   1  18
BRANCH   6  19
ATOM     19  O   UNL     1       3.330   4.926  20.199  0.00  0.00    +0.000 OA
BRANCH  19  20
ATOM     20  C   UNL     1       2.030   5.261  20.060  0.00  0.00    +0.000 C 
ATOM     21  N   UNL     1       1.418   4.439  19.173  0.00  0.00    +0.000 N 
ATOM     22  O   UNL     1       1.449   6.168  20.638  0.00  0.00    +0.000 OA
ATOM     23  H   UNL     1       1.938   3.711  18.702  0.00  0.00    +0.000 HD
ATOM     24  H   UNL     1       0.447   4.586  18.970  0.00  0.00    +0.000 HD
ENDBRANCH  19  20
ENDBRANCH   6  19
TORSDOF 6
ENDMDL
MODEL 8
REMARK VINA RESULT:      -6.9      0.760      1.261
REMARK  Name = 
REMARK  10 active torsions:
REMARK  status: ('A' for Active; 'I' for Inactive)
REMARK    1  A    between atoms: C_1  and  O_2
REMARK    2  A    between atoms: O_2  and  C_3
REMARK    3  A    between atoms: C_4  and  C_5
REMARK    4  A    between atoms: C_5  and  C_6
REMARK    5  A    between atoms: C_7  and  C_8
REMARK    6  A    between atoms: C_8  and  C_9
REMARK    7  A    between atoms: C_10  and  C_11
REMARK    8  A    between atoms: C_10  and  C_12
REMARK    9  A    between atoms: C_16  and  O_17
REMARK   10  A    between atoms: O_17  and  C_18
REMARK                            x       y       z     vdW  Elec       q    Type
REMARK                         _______ _______ _______ _____ _____    ______ ____
ROOT
ATOM      1  C   UNL     1       4.691   5.139  17.485  0.00  0.00    +0.000 C 
ATOM      2  C   UNL     1       3.154   5.370  17.753  0.00  0.00    +0.000 C 
ATOM      3  C   UNL     1       2.674   4.085  18.424  0.00  0.00    +0.000 C 
ATOM      4  C   UNL     1       3.326   3.734  19.731  0.00  0.00    +0.000 C 
ATOM      5  C   UNL     1       4.853   3.747  19.635  0.00  0.00    +0.000 C 
ATOM      6  C   UNL     1       5.422   4.937  18.844  0.00  0.00    +0.000 C 
ATOM      7  C   UNL     1       2.065   2.989  17.565  0.00  0.00    +0.000 C 
ATOM      8  O   UNL     1       1.257   3.851  18.371  0.00  0.00    +0.000 OA
ENDROOT
BRANCH   2   9
ATOM      9  C   UNL     1       2.796   6.681  18.499  0.00  0.00    +0.000 C 
ATOM     10  C   UNL     1       3.142   7.996  17.824  0.00  0.00    +0.000 C 
ATOM     11  C   UNL     1       2.260   6.664  19.741  0.00  0.00    +0.000 C 
BRANCH  11  12
ATOM     12  C   UNL     1       1.854   7.843  20.575  0.00  0.00    +0.000 C 
BRANCH  12  13
ATOM     13  C   UNL     1       0.972   8.795  19.821  0.00  0.00    +0.000 C 
ATOM     14  C   UNL     1       0.041   9.581  20.398  0.00  0.00    +0.000 C 
ATOM     15  C   UNL     1      -0.232   9.596  21.876  0.00  0.00    +0.000 C 
ATOM     16  C   UNL     1      -0.798  10.528  19.586  0.00  0.00    +0.000 C 
ENDBRANCH  12  13
ENDBRANCH  11  12
ENDBRANCH   2   9
BRANCH   1  18
ATOM     17  C   UNL     1       5.581   4.240  15.422  0.00  0.00    +0.000 C 
ATOM     18  O   UNL     1       4.797   4.010  16.584  0.00  0.00    +0.000 OA
ENDBRANCH   1  18
BRANCH   6  19
ATOM     19  O   UNL     1       6.840   4.743  18.606  0.00  0.00    +0.000 OA
BRANCH  19  20
ATOM     20  C   UNL     1       7.675   5.724  19.006  0.00  0.00    +0.000 C 
ATOM     21  N   UNL     1       8.287   5.387  20.166  0.00  0.00    +0.000 N 
ATOM     22  O   UNL     1       7.879   6.783  18.428  0.00  0.00    +0.000 OA
ATOM     23  H   UNL     1       8.078   4.509  20.623  0.00  0.00    +0.000 HD
ATOM     24  H   UNL     1       8.930   6.036  20.579  0.00  0.00    +0.000 HD
ENDBRANCH  19  20
ENDBRANCH   6  19
TORSDOF 6
ENDMDL
MODEL 9
REMARK VINA RESULT:      -6.9      2.203      3.659
REMARK  Name = 
REMARK  10 active torsions:
REMARK  status: ('A' for Active; 'I' for Inactive)
REMARK    1  A    between atoms: C_1  and  O_2
REMARK    2  A    between atoms: O_2  and  C_3
REMARK    3  A    between atoms: C_4  and  C_5
REMARK    4  A    between atoms: C_5  and  C_6
REMARK    5  A    between atoms: C_7  and  C_8
REMARK    6  A    between atoms: C_8  and  C_9
REMARK    7  A    between atoms: C_10  and  C_11
REMARK    8  A    between atoms: C_10  and  C_12
REMARK    9  A    between atoms: C_16  and  O_17
REMARK   10  A    between atoms: O_17  and  C_18
REMARK                            x       y       z     vdW  Elec       q    Type
REMARK                         _______ _______ _______ _____ _____    ______ ____
ROOT
ATOM      1  C   UNL     1       4.955   4.929  19.038  0.00  0.00    +0.000 C 
ATOM      2  C   UNL     1       4.735   6.067  17.969  0.00  0.00    +0.000 C 
ATOM      3  C   UNL     1       5.169   5.448  16.642  0.00  0.00    +0.000 C 
ATOM      4  C   UNL     1       4.405   4.235  16.193  0.00  0.00    +0.000 C 
ATOM      5  C   UNL     1       4.334   3.164  17.283  0.00  0.00    +0.000 C 
ATOM      6  C   UNL     1       4.045   3.716  18.689  0.00  0.00    +0.000 C 
ATOM      7  C   UNL     1       6.593   5.666  16.158  0.00  0.00    +0.000 C 
ATOM      8  O   UNL     1       5.490   6.383  15.598  0.00  0.00    +0.000 OA
ENDROOT
BRANCH   2   9
ATOM      9  C   UNL     1       3.329   6.721  17.968  0.00  0.00    +0.000 C 
ATOM     10  C   UNL     1       2.129   5.816  18.183  0.00  0.00    +0.000 C 
ATOM     11  C   UNL     1       3.162   8.038  17.711  0.00  0.00    +0.000 C 
BRANCH  11  12
ATOM     12  C   UNL     1       1.874   8.806  17.688  0.00  0.00    +0.000 C 
BRANCH  12  13
ATOM     13  C   UNL     1       1.470   9.280  19.054  0.00  0.00    +0.000 C 
ATOM     14  C   UNL     1       0.314   9.917  19.321  0.00  0.00    +0.000 C 
ATOM     15  C   UNL     1      -0.718  10.239  18.276  0.00  0.00    +0.000 C 
ATOM     16  C   UNL     1      -0.039  10.351  20.718  0.00  0.00    +0.000 C 
ENDBRANCH  12  13
ENDBRANCH  11  12
ENDBRANCH   2   9
BRANCH   1  18
ATOM     17  C   UNL     1       7.197   5.615  19.637  0.00  0.00    +0.000 C 
ATOM     18  O   UNL     1       6.371   4.623  19.044  0.00  0.00    +0.000 OA
ENDBRANCH   1  18
BRANCH   6  19
ATOM     19  O   UNL     1       4.228   2.672  19.680  0.00  0.00    +0.000 OA
BRANCH  19  20
ATOM     20  C   UNL     1       3.226   2.475  20.562  0.00  0.00    +0.000 C 
ATOM     21  N   UNL     1       2.025   2.519  19.938  0.00  0.00    +0.000 N 
ATOM     22  O   UNL     1       3.346   2.276  21.763  0.00  0.00    +0.000 OA
ATOM     23  H   UNL     1       1.966   2.703  18.945  0.00  0.00    +0.000 HD
ATOM     24  H   UNL     1       1.193   2.395  20.483  0.00  0.00    +0.000 HD
ENDBRANCH  19  20
ENDBRANCH   6  19
TORSDOF 6
ENDMDL
