MODEL 1
REMARK VINA RESULT:      -6.6      0.000      0.000
REMARK  Name = 
REMARK  7 active torsions:
REMARK  status: ('A' for Active; 'I' for Inactive)
REMARK    1  A    between atoms: C_1  and  O_2
REMARK    2  A    between atoms: O_2  and  C_3
REMARK    3  A    between atoms: C_3  and  C_4
REMARK    4  A    between atoms: C_9  and  O_10
REMARK    5  A    between atoms: O_10  and  C_11
REMARK    6  A    between atoms: C_17  and  O_18
REMARK    7  A    between atoms: O_18  and  C_19
REMARK                            x       y       z     vdW  Elec       q    Type
REMARK                         _______ _______ _______ _____ _____    ______ ____
ROOT
ATOM      1  C   UNL     1       5.491   4.575  15.640  0.00  0.00    +0.000 A 
ATOM      2  C   UNL     1       5.508   5.888  15.862  0.00  0.00    +0.000 A 
ATOM      3  C   UNL     1       4.724   6.463  16.953  0.00  0.00    +0.000 A 
ATOM      4  O   UNL     1       4.842   7.670  17.099  0.00  0.00    +0.000 OA
ATOM      5  C   UNL     1       3.871   5.547  17.775  0.00  0.00    +0.000 A 
ATOM      6  C   UNL     1       3.027   5.948  18.849  0.00  0.00    +0.000 A 
ATOM      7  C   UNL     1       2.307   4.920  19.519  0.00  0.00    +0.000 A 
ATOM      8  C   UNL     1       1.388   4.926  20.618  0.00  0.00    +0.000 A 
ATOM      9  C   UNL     1       1.012   3.623  20.828  0.00  0.00    +0.000 A 
ATOM     10  O   UNL     1       1.631   2.813  19.937  0.00  0.00    +0.000 OA
ATOM     11  C   UNL     1       2.420   3.591  19.137  0.00  0.00    +0.000 A 
ATOM     12  C   UNL     1       3.228   3.159  18.089  0.00  0.00    +0.000 A 
ATOM     13  C   UNL     1       3.949   4.173  17.417  0.00  0.00    +0.000 A 
ATOM     14  O   UNL     1       4.736   3.695  16.378  0.00  0.00    +0.000 OA
ENDROOT
BRANCH   6  15
ATOM     15  O   UNL     1       2.743   7.154  19.395  0.00  0.00    +0.000 OA
ATOM     16  C   UNL     1       1.972   8.162  18.784  0.00  0.00    +0.000 C 
ENDBRANCH   6  15
BRANCH  12  17
ATOM     17  O   UNL     1       3.397   1.858  17.639  0.00  0.00    +0.000 OA
ATOM     18  C   UNL     1       4.036   0.951  18.532  0.00  0.00    +0.000 C 
ENDBRANCH  12  17
BRANCH   1  19
ATOM     19  C   UNL     1       6.342   3.960  14.565  0.00  0.00    +0.000 C 
BRANCH  19  21
ATOM     20  C   UNL     1       6.296   3.397  12.272  0.00  0.00    +0.000 C 
ATOM     21  O   UNL     1       5.535   3.810  13.396  0.00  0.00    +0.000 OA
ENDBRANCH  19  21
ENDBRANCH   1  19
TORSDOF 4
ENDMDL
MODEL 2
REMARK VINA RESULT:      -5.9      1.215      1.273
REMARK  Name = 
REMARK  7 active torsions:
REMARK  status: ('A' for Active; 'I' for Inactive)
REMARK    1  A    between atoms: C_1  and  O_2
REMARK    2  A    between atoms: O_2  and  C_3
REMARK    3  A    between atoms: C_3  and  C_4
REMARK    4  A    between atoms: C_9  and  O_10
REMARK    5  A    between atoms: O_10  and  C_11
REMARK    6  A    between atoms: C_17  and  O_18
REMARK    7  A    between atoms: O_18  and  C_19
REMARK                            x       y       z     vdW  Elec       q    Type
REMARK                         _______ _______ _______ _____ _____    ______ ____
ROOT
ATOM      1  C   UNL     1       5.946   5.206  16.717  0.00  0.00    +0.000 A 
ATOM      2  C   UNL     1       5.355   6.396  16.630  0.00  0.00    +0.000 A 
ATOM      3  C   UNL     1       4.194   6.707  17.461  0.00  0.00    +0.000 A 
ATOM      4  O   UNL     1       3.752   7.838  17.337  0.00  0.00    +0.000 OA
ATOM      5  C   UNL     1       3.665   5.641  18.371  0.00  0.00    +0.000 A 
ATOM      6  C   UNL     1       2.529   5.769  19.219  0.00  0.00    +0.000 A 
ATOM      7  C   UNL     1       2.195   4.643  20.022  0.00  0.00    +0.000 A 
ATOM      8  C   UNL     1       1.158   4.396  20.978  0.00  0.00    +0.000 A 
ATOM      9  C   UNL     1       1.340   3.115  21.439  0.00  0.00    +0.000 A 
ATOM     10  O   UNL     1       2.415   2.554  20.836  0.00  0.00    +0.000 OA
ATOM     11  C   UNL     1       2.942   3.474  19.973  0.00  0.00    +0.000 A 
ATOM     12  C   UNL     1       4.054   3.306  19.153  0.00  0.00    +0.000 A 
ATOM     13  C   UNL     1       4.394   4.420  18.351  0.00  0.00    +0.000 A 
ATOM     14  O   UNL     1       5.505   4.204  17.548  0.00  0.00    +0.000 OA
ENDROOT
BRANCH   6  15
ATOM     15  O   UNL     1       1.651   6.777  19.436  0.00  0.00    +0.000 OA
ATOM     16  C   UNL     1       1.871   7.877  20.287  0.00  0.00    +0.000 C 
ENDBRANCH   6  15
BRANCH  12  17
ATOM     17  O   UNL     1       4.851   2.177  19.038  0.00  0.00    +0.000 OA
ATOM     18  C   UNL     1       4.241   1.019  18.476  0.00  0.00    +0.000 C 
ENDBRANCH  12  17
BRANCH   1  19
ATOM     19  C   UNL     1       7.180   4.894  15.918  0.00  0.00    +0.000 C 
BRANCH  19  21
ATOM     20  C   UNL     1       6.400   4.114  13.829  0.00  0.00    +0.000 C 
ATOM     21  O   UNL     1       6.914   5.221  14.553  0.00  0.00    +0.000 OA
ENDBRANCH  19  21
ENDBRANCH   1  19
TORSDOF 4
ENDMDL
MODEL 3
REMARK VINA RESULT:      -5.9      1.983      5.762
REMARK  Name = 
REMARK  7 active torsions:
REMARK  status: ('A' for Active; 'I' for Inactive)
REMARK    1  A    between atoms: C_1  and  O_2
REMARK    2  A    between atoms: O_2  and  C_3
REMARK    3  A    between atoms: C_3  and  C_4
REMARK    4  A    between atoms: C_9  and  O_10
REMARK    5  A    between atoms: O_10  and  C_11
REMARK    6  A    between atoms: C_17  and  O_18
REMARK    7  A    between atoms: O_18  and  C_19
REMARK                            x       y       z     vdW  Elec       q    Type
REMARK                         _______ _______ _______ _____ _____    ______ ____
ROOT
ATOM      1  C   UNL     1       1.307   7.715  20.651  0.00  0.00    +0.000 A 
ATOM      2  C   UNL     1       1.903   8.381  19.665  0.00  0.00    +0.000 A 
ATOM      3  C   UNL     1       2.630   7.662  18.621  0.00  0.00    +0.000 A 
ATOM      4  O   UNL     1       3.104   8.362  17.739  0.00  0.00    +0.000 OA
ATOM      5  C   UNL     1       2.725   6.171  18.719  0.00  0.00    +0.000 A 
ATOM      6  C   UNL     1       3.419   5.326  17.807  0.00  0.00    +0.000 A 
ATOM      7  C   UNL     1       3.377   3.928  18.066  0.00  0.00    +0.000 A 
ATOM      8  C   UNL     1       3.931   2.791  17.394  0.00  0.00    +0.000 A 
ATOM      9  C   UNL     1       3.555   1.683  18.112  0.00  0.00    +0.000 A 
ATOM     10  O   UNL     1       2.809   2.054  19.179  0.00  0.00    +0.000 OA
ATOM     11  C   UNL     1       2.695   3.416  19.161  0.00  0.00    +0.000 A 
ATOM     12  C   UNL     1       2.010   4.207  20.079  0.00  0.00    +0.000 A 
ATOM     13  C   UNL     1       2.045   5.599  19.829  0.00  0.00    +0.000 A 
ATOM     14  O   UNL     1       1.354   6.346  20.773  0.00  0.00    +0.000 OA
ENDROOT
BRANCH   6  15
ATOM     15  O   UNL     1       4.150   5.576  16.696  0.00  0.00    +0.000 OA
ATOM     16  C   UNL     1       5.468   6.073  16.684  0.00  0.00    +0.000 C 
ENDBRANCH   6  15
BRANCH  12  17
ATOM     17  O   UNL     1       1.310   3.782  21.198  0.00  0.00    +0.000 OA
ATOM     18  C   UNL     1       1.860   2.682  21.916  0.00  0.00    +0.000 C 
ENDBRANCH  12  17
BRANCH   1  19
ATOM     19  C   UNL     1       0.500   8.434  21.694  0.00  0.00    +0.000 C 
BRANCH  19  21
ATOM     20  C   UNL     1      -0.156  10.688  21.956  0.00  0.00    +0.000 C 
ATOM     21  O   UNL     1       0.923   9.799  21.715  0.00  0.00    +0.000 OA
ENDBRANCH  19  21
ENDBRANCH   1  19
TORSDOF 4
ENDMDL
MODEL 4
REMARK VINA RESULT:      -5.8      2.457      5.300
REMARK  Name = 
REMARK  7 active torsions:
REMARK  status: ('A' for Active; 'I' for Inactive)
REMARK    1  A    between atoms: C_1  and  O_2
REMARK    2  A    between atoms: O_2  and  C_3
REMARK    3  A    between atoms: C_3  and  C_4
REMARK    4  A    between atoms: C_9  and  O_10
REMARK    5  A    between atoms: O_10  and  C_11
REMARK    6  A    between atoms: C_17  and  O_18
REMARK    7  A    between atoms: O_18  and  C_19
REMARK                            x       y       z     vdW  Elec       q    Type
REMARK                         _______ _______ _______ _____ _____    ______ ____
ROOT
ATOM      1  C   UNL     1       4.474   2.044  20.539  0.00  0.00    +0.000 A 
ATOM      2  C   UNL     1       3.360   2.300  21.222  0.00  0.00    +0.000 A 
ATOM      3  C   UNL     1       2.595   3.518  20.959  0.00  0.00    +0.000 A 
ATOM      4  O   UNL     1       1.568   3.638  21.609  0.00  0.00    +0.000 OA
ATOM      5  C   UNL     1       3.122   4.483  19.942  0.00  0.00    +0.000 A 
ATOM      6  C   UNL     1       2.519   5.723  19.592  0.00  0.00    +0.000 A 
ATOM      7  C   UNL     1       3.167   6.493  18.586  0.00  0.00    +0.000 A 
ATOM      8  C   UNL     1       2.872   7.755  17.977  0.00  0.00    +0.000 A 
ATOM      9  C   UNL     1       3.864   7.994  17.059  0.00  0.00    +0.000 A 
ATOM     10  O   UNL     1       4.751   6.971  17.058  0.00  0.00    +0.000 OA
ATOM     11  C   UNL     1       4.337   6.053  17.982  0.00  0.00    +0.000 A 
ATOM     12  C   UNL     1       4.962   4.851  18.301  0.00  0.00    +0.000 A 
ATOM     13  C   UNL     1       4.324   4.079  19.299  0.00  0.00    +0.000 A 
ATOM     14  O   UNL     1       4.986   2.893  19.586  0.00  0.00    +0.000 OA
ENDROOT
BRANCH   6  15
ATOM     15  O   UNL     1       1.410   6.364  20.031  0.00  0.00    +0.000 OA
ATOM     16  C   UNL     1       1.382   7.330  21.057  0.00  0.00    +0.000 C 
ENDBRANCH   6  15
BRANCH  12  17
ATOM     17  O   UNL     1       6.129   4.340  17.754  0.00  0.00    +0.000 OA
ATOM     18  C   UNL     1       7.341   5.005  18.097  0.00  0.00    +0.000 C 
ENDBRANCH  12  17
BRANCH   1  19
ATOM     19  C   UNL     1       5.235   0.767  20.750  0.00  0.00    +0.000 C 
BRANCH  19  21
ATOM     20  C   UNL     1       6.536  -0.357  22.370  0.00  0.00    +0.000 C 
ATOM     21  O   UNL     1       5.936   0.872  21.991  0.00  0.00    +0.000 OA
ENDBRANCH  19  21
ENDBRANCH   1  19
TORSDOF 4
ENDMDL
MODEL 5
REMARK VINA RESULT:      -5.7      0.933      1.212
REMARK  Name = 
REMARK  7 active torsions:
REMARK  status: ('A' for Active; 'I' for Inactive)
REMARK    1  A    between atoms: C_1  and  O_2
REMARK    2  A    between atoms: O_2  and  C_3
REMARK    3  A    between atoms: C_3  and  C_4
REMARK    4  A    between atoms: C_9  and  O_10
REMARK    5  A    between atoms: O_10  and  C_11
REMARK    6  A    between atoms: C_17  and  O_18
REMARK    7  A    between atoms: O_18  and  C_19
REMARK                            x       y       z     vdW  Elec       q    Type
REMARK                         _______ _______ _______ _____ _____    ______ ____
ROOT
ATOM      1  C   UNL     1       5.201   5.131  15.741  0.00  0.00    +0.000 A 
ATOM      2  C   UNL     1       5.132   6.415  16.088  0.00  0.00    +0.000 A 
ATOM      3  C   UNL     1       4.346   6.825  17.250  0.00  0.00    +0.000 A 
ATOM      4  O   UNL     1       4.381   8.018  17.508  0.00  0.00    +0.000 OA
ATOM      5  C   UNL     1       3.589   5.775  18.003  0.00  0.00    +0.000 A 
ATOM      6  C   UNL     1       2.755   6.009  19.132  0.00  0.00    +0.000 A 
ATOM      7  C   UNL     1       2.133   4.871  19.719  0.00  0.00    +0.000 A 
ATOM      8  C   UNL     1       1.255   4.705  20.838  0.00  0.00    +0.000 A 
ATOM      9  C   UNL     1       0.980   3.363  20.931  0.00  0.00    +0.000 A 
ATOM     10  O   UNL     1       1.625   2.689  19.950  0.00  0.00    +0.000 OA
ATOM     11  C   UNL     1       2.329   3.596  19.208  0.00  0.00    +0.000 A 
ATOM     12  C   UNL     1       3.130   3.326  18.102  0.00  0.00    +0.000 A 
ATOM     13  C   UNL     1       3.753   4.450  17.512  0.00  0.00    +0.000 A 
ATOM     14  O   UNL     1       4.537   4.132  16.411  0.00  0.00    +0.000 OA
ENDROOT
BRANCH   6  15
ATOM     15  O   UNL     1       2.404   7.132  19.800  0.00  0.00    +0.000 OA
ATOM     16  C   UNL     1       1.653   8.196  19.262  0.00  0.00    +0.000 C 
ENDBRANCH   6  15
BRANCH  12  17
ATOM     17  O   UNL     1       3.376   2.089  17.524  0.00  0.00    +0.000 OA
ATOM     18  C   UNL     1       4.013   1.116  18.345  0.00  0.00    +0.000 C 
ENDBRANCH  12  17
BRANCH   1  19
ATOM     19  C   UNL     1       6.057   4.686  14.590  0.00  0.00    +0.000 C 
BRANCH  19  21
ATOM     20  C   UNL     1       7.587   4.477  16.377  0.00  0.00    +0.000 C 
ATOM     21  O   UNL     1       7.424   4.770  14.999  0.00  0.00    +0.000 OA
ENDBRANCH  19  21
ENDBRANCH   1  19
TORSDOF 4
ENDMDL
MODEL 6
REMARK VINA RESULT:      -5.6      2.771      4.922
REMARK  Name = 
REMARK  7 active torsions:
REMARK  status: ('A' for Active; 'I' for Inactive)
REMARK    1  A    between atoms: C_1  and  O_2
REMARK    2  A    between atoms: O_2  and  C_3
REMARK    3  A    between atoms: C_3  and  C_4
REMARK    4  A    between atoms: C_9  and  O_10
REMARK    5  A    between atoms: O_10  and  C_11
REMARK    6  A    between atoms: C_17  and  O_18
REMARK    7  A    between atoms: O_18  and  C_19
REMARK                            x       y       z     vdW  Elec       q    Type
REMARK                         _______ _______ _______ _____ _____    ______ ____
ROOT
ATOM      1  C   UNL     1       7.171   7.620  17.780  0.00  0.00    +0.000 A 
ATOM      2  C   UNL     1       7.876   6.575  18.207  0.00  0.00    +0.000 A 
ATOM      3  C   UNL     1       7.217   5.297  18.470  0.00  0.00    +0.000 A 
ATOM      4  O   UNL     1       7.957   4.390  18.816  0.00  0.00    +0.000 OA
ATOM      5  C   UNL     1       5.732   5.213  18.293  0.00  0.00    +0.000 A 
ATOM      6  C   UNL     1       4.936   4.059  18.536  0.00  0.00    +0.000 A 
ATOM      7  C   UNL     1       3.539   4.178  18.291  0.00  0.00    +0.000 A 
ATOM      8  C   UNL     1       2.443   3.263  18.409  0.00  0.00    +0.000 A 
ATOM      9  C   UNL     1       1.314   3.945  18.030  0.00  0.00    +0.000 A 
ATOM     10  O   UNL     1       1.633   5.215  17.688  0.00  0.00    +0.000 OA
ATOM     11  C   UNL     1       2.982   5.367  17.842  0.00  0.00    +0.000 A 
ATOM     12  C   UNL     1       3.725   6.520  17.600  0.00  0.00    +0.000 A 
ATOM     13  C   UNL     1       5.114   6.411  17.839  0.00  0.00    +0.000 A 
ATOM     14  O   UNL     1       5.810   7.586  17.589  0.00  0.00    +0.000 OA
ENDROOT
BRANCH   6  15
ATOM     15  O   UNL     1       5.231   2.813  18.974  0.00  0.00    +0.000 OA
ATOM     16  C   UNL     1       4.794   2.254  20.191  0.00  0.00    +0.000 C 
ENDBRANCH   6  15
BRANCH  12  17
ATOM     17  O   UNL     1       3.252   7.746  17.158  0.00  0.00    +0.000 OA
ATOM     18  C   UNL     1       2.390   8.456  18.043  0.00  0.00    +0.000 C 
ENDBRANCH  12  17
BRANCH   1  19
ATOM     19  C   UNL     1       7.843   8.921  17.442  0.00  0.00    +0.000 C 
BRANCH  19  21
ATOM     20  C   UNL     1       9.222  10.592  18.383  0.00  0.00    +0.000 C 
ATOM     21  O   UNL     1       8.627   9.318  18.569  0.00  0.00    +0.000 OA
ENDBRANCH  19  21
ENDBRANCH   1  19
TORSDOF 4
ENDMDL
MODEL 7
REMARK VINA RESULT:      -5.6      1.530      3.974
REMARK  Name = 
REMARK  7 active torsions:
REMARK  status: ('A' for Active; 'I' for Inactive)
REMARK    1  A    between atoms: C_1  and  O_2
REMARK    2  A    between atoms: O_2  and  C_3
REMARK    3  A    between atoms: C_3  and  C_4
REMARK    4  A    between atoms: C_9  and  O_10
REMARK    5  A    between atoms: O_10  and  C_11
REMARK    6  A    between atoms: C_17  and  O_18
REMARK    7  A    between atoms: O_18  and  C_19
REMARK                            x       y       z     vdW  Elec       q    Type
REMARK                         _______ _______ _______ _____ _____    ______ ____
ROOT
ATOM      1  C   UNL     1       4.851   5.202  16.450  0.00  0.00    +0.000 A 
ATOM      2  C   UNL     1       4.841   4.067  17.146  0.00  0.00    +0.000 A 
ATOM      3  C   UNL     1       4.075   3.968  18.387  0.00  0.00    +0.000 A 
ATOM      4  O   UNL     1       4.097   2.873  18.927  0.00  0.00    +0.000 OA
ATOM      5  C   UNL     1       3.348   5.184  18.872  0.00  0.00    +0.000 A 
ATOM      6  C   UNL     1       2.586   5.265  20.072  0.00  0.00    +0.000 A 
ATOM      7  C   UNL     1       1.955   6.510  20.350  0.00  0.00    +0.000 A 
ATOM      8  C   UNL     1       1.124   6.968  21.422  0.00  0.00    +0.000 A 
ATOM      9  C   UNL     1       0.808   8.276  21.150  0.00  0.00    +0.000 A 
ATOM     10  O   UNL     1       1.385   8.659  19.986  0.00  0.00    +0.000 OA
ATOM     11  C   UNL     1       2.084   7.594  19.491  0.00  0.00    +0.000 A 
ATOM     12  C   UNL     1       2.825   7.557  18.314  0.00  0.00    +0.000 A 
ATOM     13  C   UNL     1       3.455   6.324  18.029  0.00  0.00    +0.000 A 
ATOM     14  O   UNL     1       4.186   6.337  16.848  0.00  0.00    +0.000 OA
ENDROOT
BRANCH   6  15
ATOM     15  O   UNL     1       2.321   4.375  21.056  0.00  0.00    +0.000 OA
ATOM     16  C   UNL     1       1.344   3.362  20.994  0.00  0.00    +0.000 C 
ENDBRANCH   6  15
BRANCH  12  17
ATOM     17  O   UNL     1       3.011   8.588  17.405  0.00  0.00    +0.000 OA
ATOM     18  C   UNL     1       2.172   9.729  17.554  0.00  0.00    +0.000 C 
ENDBRANCH  12  17
BRANCH   1  19
ATOM     19  C   UNL     1       5.578   5.299  15.139  0.00  0.00    +0.000 C 
BRANCH  19  21
ATOM     20  C   UNL     1       6.152   3.783  13.421  0.00  0.00    +0.000 C 
ATOM     21  O   UNL     1       6.089   4.004  14.821  0.00  0.00    +0.000 OA
ENDBRANCH  19  21
ENDBRANCH   1  19
TORSDOF 4
ENDMDL
MODEL 8
REMARK VINA RESULT:      -5.4      1.654      6.550
REMARK  Name = 
REMARK  7 active torsions:
REMARK  status: ('A' for Active; 'I' for Inactive)
REMARK    1  A    between atoms: C_1  and  O_2
REMARK    2  A    between atoms: O_2  and  C_3
REMARK    3  A    between atoms: C_3  and  C_4
REMARK    4  A    between atoms: C_9  and  O_10
REMARK    5  A    between atoms: O_10  and  C_11
REMARK    6  A    between atoms: C_17  and  O_18
REMARK    7  A    between atoms: O_18  and  C_19
REMARK                            x       y       z     vdW  Elec       q    Type
REMARK                         _______ _______ _______ _____ _____    ______ ____
ROOT
ATOM      1  C   UNL     1       1.612   6.904  20.677  0.00  0.00    +0.000 A 
ATOM      2  C   UNL     1       1.602   5.620  21.028  0.00  0.00    +0.000 A 
ATOM      3  C   UNL     1       2.360   4.637  20.256  0.00  0.00    +0.000 A 
ATOM      4  O   UNL     1       2.319   3.494  20.685  0.00  0.00    +0.000 OA
ATOM      5  C   UNL     1       3.102   5.104  19.043  0.00  0.00    +0.000 A 
ATOM      6  C   UNL     1       3.859   4.275  18.168  0.00  0.00    +0.000 A 
ATOM      7  C   UNL     1       4.507   4.915  17.074  0.00  0.00    +0.000 A 
ATOM      8  C   UNL     1       5.339   4.435  16.012  0.00  0.00    +0.000 A 
ATOM      9  C   UNL     1       5.675   5.524  15.247  0.00  0.00    +0.000 A 
ATOM     10  O   UNL     1       5.110   6.642  15.760  0.00  0.00    +0.000 OA
ATOM     11  C   UNL     1       4.398   6.284  16.871  0.00  0.00    +0.000 A 
ATOM     12  C   UNL     1       3.662   7.128  17.698  0.00  0.00    +0.000 A 
ATOM     13  C   UNL     1       3.016   6.501  18.788  0.00  0.00    +0.000 A 
ATOM     14  O   UNL     1       2.291   7.381  19.581  0.00  0.00    +0.000 OA
ENDROOT
BRANCH   6  15
ATOM     15  O   UNL     1       4.106   2.944  18.145  0.00  0.00    +0.000 OA
ATOM     16  C   UNL     1       3.169   1.949  17.807  0.00  0.00    +0.000 C 
ENDBRANCH   6  15
BRANCH  12  17
ATOM     17  O   UNL     1       3.496   8.498  17.566  0.00  0.00    +0.000 OA
ATOM     18  C   UNL     1       2.156   8.978  17.521  0.00  0.00    +0.000 C 
ENDBRANCH  12  17
BRANCH   1  19
ATOM     19  C   UNL     1       0.893   7.937  21.497  0.00  0.00    +0.000 C 
BRANCH  19  21
ATOM     20  C   UNL     1       0.784  10.280  21.225  0.00  0.00    +0.000 C 
ATOM     21  O   UNL     1       0.535   9.016  20.632  0.00  0.00    +0.000 OA
ENDBRANCH  19  21
ENDBRANCH   1  19
TORSDOF 4
ENDMDL
MODEL 9
REMARK VINA RESULT:      -5.4      1.518      4.264
REMARK  Name = 
REMARK  7 active torsions:
REMARK  status: ('A' for Active; 'I' for Inactive)
REMARK    1  A    between atoms: C_1  and  O_2
REMARK    2  A    between atoms: O_2  and  C_3
REMARK    3  A    between atoms: C_3  and  C_4
REMARK    4  A    between atoms: C_9  and  O_10
REMARK    5  A    between atoms: O_10  and  C_11
REMARK    6  A    between atoms: C_17  and  O_18
REMARK    7  A    between atoms: O_18  and  C_19
REMARK                            x       y       z     vdW  Elec       q    Type
REMARK                         _______ _______ _______ _____ _____    ______ ____
ROOT
ATOM      1  C   UNL     1       5.748   6.722  17.128  0.00  0.00    +0.000 A 
ATOM      2  C   UNL     1       6.077   5.596  16.500  0.00  0.00    +0.000 A 
ATOM      3  C   UNL     1       5.309   4.373  16.723  0.00  0.00    +0.000 A 
ATOM      4  O   UNL     1       5.666   3.406  16.067  0.00  0.00    +0.000 OA
ATOM      5  C   UNL     1       4.179   4.412  17.705  0.00  0.00    +0.000 A 
ATOM      6  C   UNL     1       3.355   3.307  18.060  0.00  0.00    +0.000 A 
ATOM      7  C   UNL     1       2.320   3.554  19.005  0.00  0.00    +0.000 A 
ATOM      8  C   UNL     1       1.312   2.722  19.591  0.00  0.00    +0.000 A 
ATOM      9  C   UNL     1       0.589   3.518  20.445  0.00  0.00    +0.000 A 
ATOM     10  O   UNL     1       1.079   4.779  20.429  0.00  0.00    +0.000 OA
ATOM     11  C   UNL     1       2.131   4.813  19.557  0.00  0.00    +0.000 A 
ATOM     12  C   UNL     1       2.919   5.916  19.243  0.00  0.00    +0.000 A 
ATOM     13  C   UNL     1       3.949   5.681  18.304  0.00  0.00    +0.000 A 
ATOM     14  O   UNL     1       4.710   6.809  18.026  0.00  0.00    +0.000 OA
ENDROOT
BRANCH   6  15
ATOM     15  O   UNL     1       3.343   2.008  17.679  0.00  0.00    +0.000 OA
ATOM     16  C   UNL     1       4.051   0.968  18.312  0.00  0.00    +0.000 C 
ENDBRANCH   6  15
BRANCH  12  17
ATOM     17  O   UNL     1       2.804   7.203  19.748  0.00  0.00    +0.000 OA
ATOM     18  C   UNL     1       1.873   8.063  19.099  0.00  0.00    +0.000 C 
ENDBRANCH  12  17
BRANCH   1  19
ATOM     19  C   UNL     1       6.486   8.003  16.860  0.00  0.00    +0.000 C 
BRANCH  19  21
ATOM     20  C   UNL     1       8.290   8.893  18.098  0.00  0.00    +0.000 C 
ATOM     21  O   UNL     1       7.841   7.826  17.279  0.00  0.00    +0.000 OA
ENDBRANCH  19  21
ENDBRANCH   1  19
TORSDOF 4
ENDMDL
