MODEL 1
REMARK VINA RESULT:      -8.2      0.000      0.000
REMARK  Name = 
REMARK  6 active torsions:
REMARK  status: ('A' for Active; 'I' for Inactive)
REMARK    1  A    between atoms: C_4  and  C_5
REMARK    2  A    between atoms: C_4  and  C_8
REMARK    3  A    between atoms: C_5  and  O_7
REMARK    4  A    between atoms: C_15  and  O_16
REMARK    5  A    between atoms: C_17  and  S_18
REMARK    6  A    between atoms: S_18  and  C_19
REMARK                            x       y       z     vdW  Elec       q    Type
REMARK                         _______ _______ _______ _____ _____    ______ ____
ROOT
ATOM      1  O   UNL     1       4.358   2.956  18.135  0.00  0.00    +0.000 OA
ATOM      2  C   UNL     1       4.716   3.980  17.565  0.00  0.00    +0.000 C 
ATOM      3  O   UNL     1       5.522   3.886  16.471  0.00  0.00    +0.000 OA
ATOM      4  C   UNL     1       6.033   5.048  15.766  0.00  0.00    +0.000 C 
ATOM      5  C   UNL     1       4.976   6.159  15.762  0.00  0.00    +0.000 C 
ATOM      6  C   UNL     1       4.441   6.367  17.148  0.00  0.00    +0.000 C 
ATOM      7  C   UNL     1       4.326   5.343  18.012  0.00  0.00    +0.000 C 
ENDROOT
BRANCH   4   8
ATOM      8  C   UNL     1       6.367   4.633  14.324  0.00  0.00    +0.000 A 
ATOM      9  C   UNL     1       7.451   5.197  13.623  0.00  0.00    +0.000 A 
ATOM     10  C   UNL     1       7.738   4.814  12.310  0.00  0.00    +0.000 A 
ATOM     11  C   UNL     1       6.954   3.858  11.671  0.00  0.00    +0.000 A 
ATOM     12  C   UNL     1       5.888   3.275  12.349  0.00  0.00    +0.000 A 
ATOM     13  C   UNL     1       5.597   3.658  13.661  0.00  0.00    +0.000 A 
ENDBRANCH   4   8
BRANCH   4  14
ATOM     14  C   UNL     1       7.322   5.526  16.486  0.00  0.00    +0.000 C 
ATOM     15  O   UNL     1       7.676   6.694  16.575  0.00  0.00    +0.000 OA
BRANCH  14  16
ATOM     16  O   UNL     1       8.065   4.511  17.003  0.00  0.00    +0.000 OA
ATOM     17  H   UNL     1       8.402   3.904  16.309  0.00  0.00    +0.000 HD
ENDBRANCH  14  16
ENDBRANCH   4  14
BRANCH   6  18
ATOM     18  O   UNL     1       4.154   7.668  17.510  0.00  0.00    +0.000 OA
ATOM     19  H   UNL     1       3.422   7.700  18.149  0.00  0.00    +0.000 HD
ENDBRANCH   6  18
BRANCH   7  20
ATOM     20  S   UNL     1       3.869   5.528  19.677  0.00  0.00    +0.000 S 
BRANCH  20  21
ATOM     21  C   UNL     1       2.632   4.244  19.867  0.00  0.00    +0.000 A 
ATOM     22  C   UNL     1       2.668   3.456  21.030  0.00  0.00    +0.000 A 
ATOM     23  C   UNL     1       1.660   2.522  21.302  0.00  0.00    +0.000 A 
ATOM     24  C   UNL     1       0.600   2.362  20.417  0.00  0.00    +0.000 A 
ATOM     25  C   UNL     1       0.545   3.136  19.259  0.00  0.00    +0.000 A 
ATOM     26  C   UNL     1       1.544   4.082  18.989  0.00  0.00    +0.000 A 
ATOM     27 CL   UNL     1       1.324   5.045  17.570  0.00  0.00    +0.000 Cl
ENDBRANCH  20  21
ENDBRANCH   7  20
TORSDOF 6
ENDMDL
MODEL 2
REMARK VINA RESULT:      -7.8      2.404      6.789
REMARK  Name = 
REMARK  6 active torsions:
REMARK  status: ('A' for Active; 'I' for Inactive)
REMARK    1  A    between atoms: C_4  and  C_5
REMARK    2  A    between atoms: C_4  and  C_8
REMARK    3  A    between atoms: C_5  and  O_7
REMARK    4  A    between atoms: C_15  and  O_16
REMARK    5  A    between atoms: C_17  and  S_18
REMARK    6  A    between atoms: S_18  and  C_19
REMARK                            x       y       z     vdW  Elec       q    Type
REMARK                         _______ _______ _______ _____ _____    ______ ____
ROOT
ATOM      1  O   UNL     1       7.575   4.369  18.509  0.00  0.00    +0.000 OA
ATOM      2  C   UNL     1       6.428   4.624  18.162  0.00  0.00    +0.000 C 
ATOM      3  O   UNL     1       5.392   3.961  18.748  0.00  0.00    +0.000 OA
ATOM      4  C   UNL     1       4.007   4.164  18.364  0.00  0.00    +0.000 C 
ATOM      5  C   UNL     1       3.779   5.638  18.005  0.00  0.00    +0.000 C 
ATOM      6  C   UNL     1       4.841   6.107  17.054  0.00  0.00    +0.000 C 
ATOM      7  C   UNL     1       6.094   5.623  17.113  0.00  0.00    +0.000 C 
ENDROOT
BRANCH   4   8
ATOM      8  C   UNL     1       3.111   3.766  19.548  0.00  0.00    +0.000 A 
ATOM      9  C   UNL     1       1.838   4.338  19.739  0.00  0.00    +0.000 A 
ATOM     10  C   UNL     1       1.038   3.969  20.823  0.00  0.00    +0.000 A 
ATOM     11  C   UNL     1       1.487   3.019  21.737  0.00  0.00    +0.000 A 
ATOM     12  C   UNL     1       2.734   2.428  21.559  0.00  0.00    +0.000 A 
ATOM     13  C   UNL     1       3.538   2.797  20.477  0.00  0.00    +0.000 A 
ENDBRANCH   4   8
BRANCH   4  14
ATOM     14  C   UNL     1       3.701   3.254  17.145  0.00  0.00    +0.000 C 
ATOM     15  O   UNL     1       2.769   3.420  16.370  0.00  0.00    +0.000 OA
BRANCH  14  16
ATOM     16  O   UNL     1       4.562   2.208  17.018  0.00  0.00    +0.000 OA
ATOM     17  H   UNL     1       4.854   2.077  16.090  0.00  0.00    +0.000 HD
ENDBRANCH  14  16
ENDBRANCH   4  14
BRANCH   6  18
ATOM     18  O   UNL     1       4.441   6.992  16.072  0.00  0.00    +0.000 OA
ATOM     19  H   UNL     1       5.012   6.926  15.288  0.00  0.00    +0.000 HD
ENDBRANCH   6  18
BRANCH   7  20
ATOM     20  S   UNL     1       7.331   5.994  15.952  0.00  0.00    +0.000 S 
BRANCH  20  21
ATOM     21  C   UNL     1       6.866   4.951  14.570  0.00  0.00    +0.000 A 
ATOM     22  C   UNL     1       5.693   4.186  14.683  0.00  0.00    +0.000 A 
ATOM     23  C   UNL     1       5.203   3.448  13.598  0.00  0.00    +0.000 A 
ATOM     24  C   UNL     1       5.878   3.464  12.381  0.00  0.00    +0.000 A 
ATOM     25  C   UNL     1       7.042   4.220  12.250  0.00  0.00    +0.000 A 
ATOM     26  C   UNL     1       7.529   4.970  13.328  0.00  0.00    +0.000 A 
ATOM     27 CL   UNL     1       8.929   5.936  13.021  0.00  0.00    +0.000 Cl
ENDBRANCH  20  21
ENDBRANCH   7  20
TORSDOF 6
ENDMDL
MODEL 3
REMARK VINA RESULT:      -7.6      1.162      1.623
REMARK  Name = 
REMARK  6 active torsions:
REMARK  status: ('A' for Active; 'I' for Inactive)
REMARK    1  A    between atoms: C_4  and  C_5
REMARK    2  A    between atoms: C_4  and  C_8
REMARK    3  A    between atoms: C_5  and  O_7
REMARK    4  A    between atoms: C_15  and  O_16
REMARK    5  A    between atoms: C_17  and  S_18
REMARK    6  A    between atoms: S_18  and  C_19
REMARK                            x       y       z     vdW  Elec       q    Type
REMARK                         _______ _______ _______ _____ _____    ______ ____
ROOT
ATOM      1  O   UNL     1       4.279   2.747  17.747  0.00  0.00    +0.000 OA
ATOM      2  C   UNL     1       4.710   3.800  17.291  0.00  0.00    +0.000 C 
ATOM      3  O   UNL     1       5.559   3.767  16.226  0.00  0.00    +0.000 OA
ATOM      4  C   UNL     1       6.154   4.962  15.656  0.00  0.00    +0.000 C 
ATOM      5  C   UNL     1       5.151   6.121  15.713  0.00  0.00    +0.000 C 
ATOM      6  C   UNL     1       4.564   6.226  17.091  0.00  0.00    +0.000 C 
ATOM      7  C   UNL     1       4.363   5.134  17.849  0.00  0.00    +0.000 C 
ENDROOT
BRANCH   4   8
ATOM      8  C   UNL     1       6.533   4.666  14.195  0.00  0.00    +0.000 A 
ATOM      9  C   UNL     1       7.554   5.377  13.537  0.00  0.00    +0.000 A 
ATOM     10  C   UNL     1       7.883   5.100  12.207  0.00  0.00    +0.000 A 
ATOM     11  C   UNL     1       7.203   4.106  11.508  0.00  0.00    +0.000 A 
ATOM     12  C   UNL     1       6.201   3.379  12.144  0.00  0.00    +0.000 A 
ATOM     13  C   UNL     1       5.869   3.655  13.472  0.00  0.00    +0.000 A 
ENDBRANCH   4   8
BRANCH   4  14
ATOM     14  C   UNL     1       7.430   5.306  16.469  0.00  0.00    +0.000 C 
ATOM     15  O   UNL     1       8.130   4.484  17.045  0.00  0.00    +0.000 OA
BRANCH  14  16
ATOM     16  O   UNL     1       7.704   6.638  16.514  0.00  0.00    +0.000 OA
ATOM     17  H   UNL     1       8.504   6.836  17.047  0.00  0.00    +0.000 HD
ENDBRANCH  14  16
ENDBRANCH   4  14
BRANCH   6  18
ATOM     18  O   UNL     1       4.322   7.501  17.562  0.00  0.00    +0.000 OA
ATOM     19  H   UNL     1       3.888   7.476  18.431  0.00  0.00    +0.000 HD
ENDBRANCH   6  18
BRANCH   7  20
ATOM     20  S   UNL     1       3.841   5.187  19.504  0.00  0.00    +0.000 S 
BRANCH  20  21
ATOM     21  C   UNL     1       2.484   4.015  19.502  0.00  0.00    +0.000 A 
ATOM     22  C   UNL     1       1.408   4.251  18.628  0.00  0.00    +0.000 A 
ATOM     23  C   UNL     1       0.377   3.314  18.482  0.00  0.00    +0.000 A 
ATOM     24  C   UNL     1       0.404   2.127  19.208  0.00  0.00    +0.000 A 
ATOM     25  C   UNL     1       1.464   1.876  20.077  0.00  0.00    +0.000 A 
ATOM     26  C   UNL     1       2.505   2.803  20.217  0.00  0.00    +0.000 A 
ATOM     27 CL   UNL     1       3.808   2.344  21.256  0.00  0.00    +0.000 Cl
ENDBRANCH  20  21
ENDBRANCH   7  20
TORSDOF 6
ENDMDL
MODEL 4
REMARK VINA RESULT:      -7.5      8.562     10.303
REMARK  Name = 
REMARK  6 active torsions:
REMARK  status: ('A' for Active; 'I' for Inactive)
REMARK    1  A    between atoms: C_4  and  C_5
REMARK    2  A    between atoms: C_4  and  C_8
REMARK    3  A    between atoms: C_5  and  O_7
REMARK    4  A    between atoms: C_15  and  O_16
REMARK    5  A    between atoms: C_17  and  S_18
REMARK    6  A    between atoms: S_18  and  C_19
REMARK                            x       y       z     vdW  Elec       q    Type
REMARK                         _______ _______ _______ _____ _____    ______ ____
ROOT
ATOM      1  O   UNL     1      -0.481  12.007  23.147  0.00  0.00    +0.000 OA
ATOM      2  C   UNL     1      -0.569  11.904  21.929  0.00  0.00    +0.000 C 
ATOM      3  O   UNL     1       0.347  11.153  21.257  0.00  0.00    +0.000 OA
ATOM      4  C   UNL     1       0.347  11.017  19.812  0.00  0.00    +0.000 C 
ATOM      5  C   UNL     1      -1.096  10.988  19.292  0.00  0.00    +0.000 C 
ATOM      6  C   UNL     1      -1.878  12.123  19.884  0.00  0.00    +0.000 C 
ATOM      7  C   UNL     1      -1.628  12.571  21.126  0.00  0.00    +0.000 C 
ENDROOT
BRANCH   4   8
ATOM      8  C   UNL     1       1.064   9.707  19.447  0.00  0.00    +0.000 A 
ATOM      9  C   UNL     1       1.531   9.456  18.142  0.00  0.00    +0.000 A 
ATOM     10  C   UNL     1       2.176   8.257  17.825  0.00  0.00    +0.000 A 
ATOM     11  C   UNL     1       2.372   7.286  18.803  0.00  0.00    +0.000 A 
ATOM     12  C   UNL     1       1.935   7.519  20.103  0.00  0.00    +0.000 A 
ATOM     13  C   UNL     1       1.288   8.715  20.422  0.00  0.00    +0.000 A 
ENDBRANCH   4   8
BRANCH   4  14
ATOM     14  C   UNL     1       1.118  12.221  19.209  0.00  0.00    +0.000 C 
ATOM     15  O   UNL     1       2.057  12.787  19.752  0.00  0.00    +0.000 OA
BRANCH  14  16
ATOM     16  O   UNL     1       0.636  12.629  18.004  0.00  0.00    +0.000 OA
ATOM     17  H   UNL     1      -0.284  12.964  18.066  0.00  0.00    +0.000 HD
ENDBRANCH  14  16
ENDBRANCH   4  14
BRANCH   6  18
ATOM     18  O   UNL     1      -2.805  12.729  19.058  0.00  0.00    +0.000 OA
ATOM     19  H   UNL     1      -3.677  12.307  19.141  0.00  0.00    +0.000 HD
ENDBRANCH   6  18
BRANCH   7  20
ATOM     20  S   UNL     1      -2.377  13.977  21.818  0.00  0.00    +0.000 S 
BRANCH  20  21
ATOM     21  C   UNL     1      -3.805  13.268  22.640  0.00  0.00    +0.000 A 
ATOM     22  C   UNL     1      -3.636  12.758  23.939  0.00  0.00    +0.000 A 
ATOM     23  C   UNL     1      -4.731  12.307  24.687  0.00  0.00    +0.000 A 
ATOM     24  C   UNL     1      -6.012  12.358  24.149  0.00  0.00    +0.000 A 
ATOM     25  C   UNL     1      -6.200  12.863  22.863  0.00  0.00    +0.000 A 
ATOM     26  C   UNL     1      -5.109  13.328  22.116  0.00  0.00    +0.000 A 
ATOM     27 CL   UNL     1      -5.474  14.013  20.570  0.00  0.00    +0.000 Cl
ENDBRANCH  20  21
ENDBRANCH   7  20
TORSDOF 6
ENDMDL
MODEL 5
REMARK VINA RESULT:      -7.3      3.405      7.359
REMARK  Name = 
REMARK  6 active torsions:
REMARK  status: ('A' for Active; 'I' for Inactive)
REMARK    1  A    between atoms: C_4  and  C_5
REMARK    2  A    between atoms: C_4  and  C_8
REMARK    3  A    between atoms: C_5  and  O_7
REMARK    4  A    between atoms: C_15  and  O_16
REMARK    5  A    between atoms: C_17  and  S_18
REMARK    6  A    between atoms: S_18  and  C_19
REMARK                            x       y       z     vdW  Elec       q    Type
REMARK                         _______ _______ _______ _____ _____    ______ ____
ROOT
ATOM      1  O   UNL     1       5.718   5.625  19.249  0.00  0.00    +0.000 OA
ATOM      2  C   UNL     1       4.510   5.514  19.072  0.00  0.00    +0.000 C 
ATOM      3  O   UNL     1       3.657   6.302  19.784  0.00  0.00    +0.000 OA
ATOM      4  C   UNL     1       2.213   6.202  19.673  0.00  0.00    +0.000 C 
ATOM      5  C   UNL     1       1.824   5.884  18.224  0.00  0.00    +0.000 C 
ATOM      6  C   UNL     1       2.643   4.735  17.711  0.00  0.00    +0.000 C 
ATOM      7  C   UNL     1       3.911   4.545  18.116  0.00  0.00    +0.000 C 
ENDROOT
BRANCH   4   8
ATOM      8  C   UNL     1       1.599   7.544  20.100  0.00  0.00    +0.000 A 
ATOM      9  C   UNL     1       1.074   7.741  21.392  0.00  0.00    +0.000 A 
ATOM     10  C   UNL     1       0.514   8.967  21.763  0.00  0.00    +0.000 A 
ATOM     11  C   UNL     1       0.468  10.022  20.856  0.00  0.00    +0.000 A 
ATOM     12  C   UNL     1       0.995   9.855  19.579  0.00  0.00    +0.000 A 
ATOM     13  C   UNL     1       1.554   8.631  19.204  0.00  0.00    +0.000 A 
ENDBRANCH   4   8
BRANCH   4  14
ATOM     14  C   UNL     1       1.728   5.076  20.625  0.00  0.00    +0.000 C 
ATOM     15  O   UNL     1       0.678   4.463  20.498  0.00  0.00    +0.000 OA
BRANCH  14  16
ATOM     16  O   UNL     1       2.577   4.837  21.662  0.00  0.00    +0.000 OA
ATOM     17  H   UNL     1       2.623   5.592  22.287  0.00  0.00    +0.000 HD
ENDBRANCH  14  16
ENDBRANCH   4  14
BRANCH   6  18
ATOM     18  O   UNL     1       2.000   3.846  16.872  0.00  0.00    +0.000 OA
ATOM     19  H   UNL     1       1.655   4.297  16.083  0.00  0.00    +0.000 HD
ENDBRANCH   6  18
BRANCH   7  20
ATOM     20  S   UNL     1       4.865   3.157  17.695  0.00  0.00    +0.000 S 
BRANCH  20  21
ATOM     21  C   UNL     1       5.727   3.731  16.231  0.00  0.00    +0.000 A 
ATOM     22  C   UNL     1       5.037   3.712  15.007  0.00  0.00    +0.000 A 
ATOM     23  C   UNL     1       5.602   4.261  13.849  0.00  0.00    +0.000 A 
ATOM     24  C   UNL     1       6.867   4.839  13.897  0.00  0.00    +0.000 A 
ATOM     25  C   UNL     1       7.565   4.869  15.103  0.00  0.00    +0.000 A 
ATOM     26  C   UNL     1       6.998   4.333  16.267  0.00  0.00    +0.000 A 
ATOM     27 CL   UNL     1       7.919   4.507  17.720  0.00  0.00    +0.000 Cl
ENDBRANCH  20  21
ENDBRANCH   7  20
TORSDOF 6
ENDMDL
MODEL 6
REMARK VINA RESULT:      -7.2      2.591      3.490
REMARK  Name = 
REMARK  6 active torsions:
REMARK  status: ('A' for Active; 'I' for Inactive)
REMARK    1  A    between atoms: C_4  and  C_5
REMARK    2  A    between atoms: C_4  and  C_8
REMARK    3  A    between atoms: C_5  and  O_7
REMARK    4  A    between atoms: C_15  and  O_16
REMARK    5  A    between atoms: C_17  and  S_18
REMARK    6  A    between atoms: S_18  and  C_19
REMARK                            x       y       z     vdW  Elec       q    Type
REMARK                         _______ _______ _______ _____ _____    ______ ____
ROOT
ATOM      1  O   UNL     1       2.482   4.135  17.395  0.00  0.00    +0.000 OA
ATOM      2  C   UNL     1       3.510   4.764  17.177  0.00  0.00    +0.000 C 
ATOM      3  O   UNL     1       4.393   4.296  16.252  0.00  0.00    +0.000 OA
ATOM      4  C   UNL     1       5.657   4.950  15.967  0.00  0.00    +0.000 C 
ATOM      5  C   UNL     1       5.489   6.472  16.063  0.00  0.00    +0.000 C 
ATOM      6  C   UNL     1       4.792   6.832  17.342  0.00  0.00    +0.000 C 
ATOM      7  C   UNL     1       3.863   6.024  17.883  0.00  0.00    +0.000 C 
ENDROOT
BRANCH   4   8
ATOM      8  C   UNL     1       6.098   4.559  14.547  0.00  0.00    +0.000 A 
ATOM      9  C   UNL     1       5.359   3.649  13.766  0.00  0.00    +0.000 A 
ATOM     10  C   UNL     1       5.777   3.299  12.479  0.00  0.00    +0.000 A 
ATOM     11  C   UNL     1       6.937   3.853  11.942  0.00  0.00    +0.000 A 
ATOM     12  C   UNL     1       7.674   4.766  12.689  0.00  0.00    +0.000 A 
ATOM     13  C   UNL     1       7.260   5.116  13.977  0.00  0.00    +0.000 A 
ENDBRANCH   4   8
BRANCH   4  14
ATOM     14  C   UNL     1       6.707   4.453  16.997  0.00  0.00    +0.000 C 
ATOM     15  O   UNL     1       7.912   4.640  16.906  0.00  0.00    +0.000 OA
BRANCH  14  16
ATOM     16  O   UNL     1       6.166   3.747  18.026  0.00  0.00    +0.000 OA
ATOM     17  H   UNL     1       6.820   3.152  18.453  0.00  0.00    +0.000 HD
ENDBRANCH  14  16
ENDBRANCH   4  14
BRANCH   6  18
ATOM     18  O   UNL     1       5.213   7.988  17.969  0.00  0.00    +0.000 OA
ATOM     19  H   UNL     1       4.511   8.660  17.973  0.00  0.00    +0.000 HD
ENDBRANCH   6  18
BRANCH   7  20
ATOM     20  S   UNL     1       3.132   6.292  19.435  0.00  0.00    +0.000 S 
BRANCH  20  21
ATOM     21  C   UNL     1       2.155   7.766  19.135  0.00  0.00    +0.000 A 
ATOM     22  C   UNL     1       1.910   8.137  17.801  0.00  0.00    +0.000 A 
ATOM     23  C   UNL     1       1.053   9.201  17.492  0.00  0.00    +0.000 A 
ATOM     24  C   UNL     1       0.426   9.910  18.512  0.00  0.00    +0.000 A 
ATOM     25  C   UNL     1       0.655   9.555  19.840  0.00  0.00    +0.000 A 
ATOM     26  C   UNL     1       1.501   8.483  20.154  0.00  0.00    +0.000 A 
ATOM     27 CL   UNL     1       1.639   8.079  21.829  0.00  0.00    +0.000 Cl
ENDBRANCH  20  21
ENDBRANCH   7  20
TORSDOF 6
ENDMDL
MODEL 7
REMARK VINA RESULT:      -7.2      8.324     10.245
REMARK  Name = 
REMARK  6 active torsions:
REMARK  status: ('A' for Active; 'I' for Inactive)
REMARK    1  A    between atoms: C_4  and  C_5
REMARK    2  A    between atoms: C_4  and  C_8
REMARK    3  A    between atoms: C_5  and  O_7
REMARK    4  A    between atoms: C_15  and  O_16
REMARK    5  A    between atoms: C_17  and  S_18
REMARK    6  A    between atoms: S_18  and  C_19
REMARK                            x       y       z     vdW  Elec       q    Type
REMARK                         _______ _______ _______ _____ _____    ______ ____
ROOT
ATOM      1  O   UNL     1      -1.713  11.758  22.468  0.00  0.00    +0.000 OA
ATOM      2  C   UNL     1      -1.365  11.635  21.299  0.00  0.00    +0.000 C 
ATOM      3  O   UNL     1      -0.278  10.867  21.005  0.00  0.00    +0.000 OA
ATOM      4  C   UNL     1       0.232  10.707  19.656  0.00  0.00    +0.000 C 
ATOM      5  C   UNL     1      -0.934  10.678  18.659  0.00  0.00    +0.000 C 
ATOM      6  C   UNL     1      -1.863  11.827  18.920  0.00  0.00    +0.000 C 
ATOM      7  C   UNL     1      -2.063  12.294  20.164  0.00  0.00    +0.000 C 
ENDROOT
BRANCH   4   8
ATOM      8  C   UNL     1       1.017   9.387  19.586  0.00  0.00    +0.000 A 
ATOM      9  C   UNL     1       1.095   8.513  20.687  0.00  0.00    +0.000 A 
ATOM     10  C   UNL     1       1.818   7.319  20.610  0.00  0.00    +0.000 A 
ATOM     11  C   UNL     1       2.473   6.971  19.432  0.00  0.00    +0.000 A 
ATOM     12  C   UNL     1       2.397   7.812  18.326  0.00  0.00    +0.000 A 
ATOM     13  C   UNL     1       1.677   9.006  18.401  0.00  0.00    +0.000 A 
ENDBRANCH   4   8
BRANCH   4  14
ATOM     14  C   UNL     1       1.180  11.897  19.349  0.00  0.00    +0.000 C 
ATOM     15  O   UNL     1       1.823  12.508  20.192  0.00  0.00    +0.000 OA
BRANCH  14  16
ATOM     16  O   UNL     1       1.219  12.237  18.033  0.00  0.00    +0.000 OA
ATOM     17  H   UNL     1       1.683  11.564  17.489  0.00  0.00    +0.000 HD
ENDBRANCH  14  16
ENDBRANCH   4  14
BRANCH   6  18
ATOM     18  O   UNL     1      -2.430  12.425  17.811  0.00  0.00    +0.000 OA
ATOM     19  H   UNL     1      -2.888  13.247  18.053  0.00  0.00    +0.000 HD
ENDBRANCH   6  18
BRANCH   7  20
ATOM     20  S   UNL     1      -2.994  13.715  20.527  0.00  0.00    +0.000 S 
BRANCH  20  21
ATOM     21  C   UNL     1      -4.644  13.039  20.714  0.00  0.00    +0.000 A 
ATOM     22  C   UNL     1      -5.257  12.469  19.585  0.00  0.00    +0.000 A 
ATOM     23  C   UNL     1      -6.490  11.811  19.686  0.00  0.00    +0.000 A 
ATOM     24  C   UNL     1      -7.129  11.712  20.918  0.00  0.00    +0.000 A 
ATOM     25  C   UNL     1      -6.535  12.270  22.049  0.00  0.00    +0.000 A 
ATOM     26  C   UNL     1      -5.296  12.918  21.955  0.00  0.00    +0.000 A 
ATOM     27 CL   UNL     1      -4.616  13.492  23.438  0.00  0.00    +0.000 Cl
ENDBRANCH  20  21
ENDBRANCH   7  20
TORSDOF 6
ENDMDL
MODEL 8
REMARK VINA RESULT:      -7.1      1.627      2.081
REMARK  Name = 
REMARK  6 active torsions:
REMARK  status: ('A' for Active; 'I' for Inactive)
REMARK    1  A    between atoms: C_4  and  C_5
REMARK    2  A    between atoms: C_4  and  C_8
REMARK    3  A    between atoms: C_5  and  O_7
REMARK    4  A    between atoms: C_15  and  O_16
REMARK    5  A    between atoms: C_17  and  S_18
REMARK    6  A    between atoms: S_18  and  C_19
REMARK                            x       y       z     vdW  Elec       q    Type
REMARK                         _______ _______ _______ _____ _____    ______ ____
ROOT
ATOM      1  O   UNL     1       7.351   4.323  18.572  0.00  0.00    +0.000 OA
ATOM      2  C   UNL     1       6.443   4.577  17.789  0.00  0.00    +0.000 C 
ATOM      3  O   UNL     1       6.729   4.738  16.467  0.00  0.00    +0.000 OA
ATOM      4  C   UNL     1       5.724   5.087  15.480  0.00  0.00    +0.000 C 
ATOM      5  C   UNL     1       4.394   4.407  15.828  0.00  0.00    +0.000 C 
ATOM      6  C   UNL     1       4.061   4.640  17.273  0.00  0.00    +0.000 C 
ATOM      7  C   UNL     1       5.024   4.733  18.206  0.00  0.00    +0.000 C 
ENDROOT
BRANCH   4   8
ATOM      8  C   UNL     1       6.212   4.614  14.101  0.00  0.00    +0.000 A 
ATOM      9  C   UNL     1       7.369   5.147  13.501  0.00  0.00    +0.000 A 
ATOM     10  C   UNL     1       7.796   4.709  12.244  0.00  0.00    +0.000 A 
ATOM     11  C   UNL     1       7.081   3.729  11.562  0.00  0.00    +0.000 A 
ATOM     12  C   UNL     1       5.944   3.176  12.143  0.00  0.00    +0.000 A 
ATOM     13  C   UNL     1       5.513   3.613  13.398  0.00  0.00    +0.000 A 
ENDBRANCH   4   8
BRANCH   4  14
ATOM     14  C   UNL     1       5.562   6.631  15.476  0.00  0.00    +0.000 C 
ATOM     15  O   UNL     1       4.802   7.248  14.742  0.00  0.00    +0.000 OA
BRANCH  14  16
ATOM     16  O   UNL     1       6.374   7.266  16.363  0.00  0.00    +0.000 OA
ATOM     17  H   UNL     1       6.345   6.856  17.255  0.00  0.00    +0.000 HD
ENDBRANCH  14  16
ENDBRANCH   4  14
BRANCH   6  18
ATOM     18  O   UNL     1       2.727   4.832  17.574  0.00  0.00    +0.000 OA
ATOM     19  H   UNL     1       2.170   4.722  16.784  0.00  0.00    +0.000 HD
ENDBRANCH   6  18
BRANCH   7  20
ATOM     20  S   UNL     1       4.729   5.158  19.864  0.00  0.00    +0.000 S 
BRANCH  20  21
ATOM     21  C   UNL     1       3.243   4.223  20.227  0.00  0.00    +0.000 A 
ATOM     22  C   UNL     1       2.040   4.930  20.392  0.00  0.00    +0.000 A 
ATOM     23  C   UNL     1       0.821   4.257  20.552  0.00  0.00    +0.000 A 
ATOM     24  C   UNL     1       0.787   2.866  20.548  0.00  0.00    +0.000 A 
ATOM     25  C   UNL     1       1.970   2.148  20.383  0.00  0.00    +0.000 A 
ATOM     26  C   UNL     1       3.189   2.816  20.209  0.00  0.00    +0.000 A 
ATOM     27 CL   UNL     1       4.576   1.823  19.925  0.00  0.00    +0.000 Cl
ENDBRANCH  20  21
ENDBRANCH   7  20
TORSDOF 6
ENDMDL
MODEL 9
REMARK VINA RESULT:      -7.1      8.209     10.080
REMARK  Name = 
REMARK  6 active torsions:
REMARK  status: ('A' for Active; 'I' for Inactive)
REMARK    1  A    between atoms: C_4  and  C_5
REMARK    2  A    between atoms: C_4  and  C_8
REMARK    3  A    between atoms: C_5  and  O_7
REMARK    4  A    between atoms: C_15  and  O_16
REMARK    5  A    between atoms: C_17  and  S_18
REMARK    6  A    between atoms: S_18  and  C_19
REMARK                            x       y       z     vdW  Elec       q    Type
REMARK                         _______ _______ _______ _____ _____    ______ ____
ROOT
ATOM      1  O   UNL     1      -1.727  11.420  22.462  0.00  0.00    +0.000 OA
ATOM      2  C   UNL     1      -1.272  11.427  21.324  0.00  0.00    +0.000 C 
ATOM      3  O   UNL     1      -0.195  10.646  21.033  0.00  0.00    +0.000 OA
ATOM      4  C   UNL     1       0.437  10.631  19.727  0.00  0.00    +0.000 C 
ATOM      5  C   UNL     1      -0.626  10.789  18.632  0.00  0.00    +0.000 C 
ATOM      6  C   UNL     1      -1.528  11.944  18.955  0.00  0.00    +0.000 C 
ATOM      7  C   UNL     1      -1.830  12.261  20.226  0.00  0.00    +0.000 C 
ENDROOT
BRANCH   4   8
ATOM      8  C   UNL     1       1.171   9.290  19.557  0.00  0.00    +0.000 A 
ATOM      9  C   UNL     1       1.747   8.911  18.329  0.00  0.00    +0.000 A 
ATOM     10  C   UNL     1       2.405   7.686  18.190  0.00  0.00    +0.000 A 
ATOM     11  C   UNL     1       2.507   6.817  19.274  0.00  0.00    +0.000 A 
ATOM     12  C   UNL     1       1.960   7.178  20.501  0.00  0.00    +0.000 A 
ATOM     13  C   UNL     1       1.299   8.400  20.642  0.00  0.00    +0.000 A 
ENDBRANCH   4   8
BRANCH   4  14
ATOM     14  C   UNL     1       1.458  11.798  19.666  0.00  0.00    +0.000 C 
ATOM     15  O   UNL     1       1.922  12.262  18.633  0.00  0.00    +0.000 OA
BRANCH  14  16
ATOM     16  O   UNL     1       1.829  12.261  20.890  0.00  0.00    +0.000 OA
ATOM     17  H   UNL     1       1.534  13.185  21.044  0.00  0.00    +0.000 HD
ENDBRANCH  14  16
ENDBRANCH   4  14
BRANCH   6  18
ATOM     18  O   UNL     1      -1.960  12.706  17.887  0.00  0.00    +0.000 OA
ATOM     19  H   UNL     1      -2.765  13.201  18.113  0.00  0.00    +0.000 HD
ENDBRANCH   6  18
BRANCH   7  20
ATOM     20  S   UNL     1      -2.732  13.672  20.685  0.00  0.00    +0.000 S 
BRANCH  20  21
ATOM     21  C   UNL     1      -4.405  13.031  20.767  0.00  0.00    +0.000 A 
ATOM     22  C   UNL     1      -4.939  12.427  19.616  0.00  0.00    +0.000 A 
ATOM     23  C   UNL     1      -6.188  11.793  19.645  0.00  0.00    +0.000 A 
ATOM     24  C   UNL     1      -6.923  11.755  20.825  0.00  0.00    +0.000 A 
ATOM     25  C   UNL     1      -6.409  12.347  21.977  0.00  0.00    +0.000 A 
ATOM     26  C   UNL     1      -5.154  12.969  21.957  0.00  0.00    +0.000 A 
ATOM     27 CL   UNL     1      -4.580  13.590  23.465  0.00  0.00    +0.000 Cl
ENDBRANCH  20  21
ENDBRANCH   7  20
TORSDOF 6
ENDMDL
