MODEL 1
REMARK VINA RESULT:      -7.0      0.000      0.000
REMARK  Name = 
REMARK  12 active torsions:
REMARK  status: ('A' for Active; 'I' for Inactive)
REMARK    1  A    between atoms: C_1  and  C_2
REMARK    2  A    between atoms: C_2  and  C_3
REMARK    3  A    between atoms: C_3  and  C_4
REMARK    4  A    between atoms: C_3  and  N_21
REMARK    5  A    between atoms: N_13  and  C_14
REMARK    6  A    between atoms: C_14  and  C_15
REMARK    7  A    between atoms: N_21  and  C_22
REMARK    8  A    between atoms: C_22  and  C_23
REMARK    9  A    between atoms: C_23  and  C_24
REMARK   10  A    between atoms: C_24  and  N_25
REMARK   11  A    between atoms: C_26  and  C_28
REMARK   12  A    between atoms: C_31  and  C_32
REMARK                            x       y       z     vdW  Elec       q    Type
REMARK                         _______ _______ _______ _____ _____    ______ ____
ROOT
ATOM      1  C   UNL     1      -1.499  12.692  20.570  0.00  0.00    +0.000 C 
ENDROOT
BRANCH   1   2
ATOM      2  C   UNL     1      -3.055  12.601  20.756  0.00  0.00    +0.000 A 
ATOM      3  N   UNL     1      -3.736  12.629  19.645  0.00  0.00    +0.000 NA
ATOM      4  C   UNL     1      -5.112  12.625  19.752  0.00  0.00    +0.000 A 
ATOM      5  C   UNL     1      -5.971  12.705  18.639  0.00  0.00    +0.000 A 
ATOM      6  C   UNL     1      -7.292  12.674  19.042  0.00  0.00    +0.000 A 
ATOM      7  S   UNL     1      -7.437  12.580  20.762  0.00  0.00    +0.000 S 
ATOM      8  C   UNL     1      -5.755  12.583  20.946  0.00  0.00    +0.000 A 
ATOM      9  C   UNL     1      -5.042  12.560  22.191  0.00  0.00    +0.000 A 
ATOM     10  O   UNL     1      -5.595  12.583  23.296  0.00  0.00    +0.000 OA
ATOM     11  N   UNL     1      -3.645  12.534  22.034  0.00  0.00    +0.000 N 
BRANCH  11  12
ATOM     12  C   UNL     1      -2.900  12.540  23.297  0.00  0.00    +0.000 C 
BRANCH  12  13
ATOM     13  C   UNL     1      -2.539  13.902  23.866  0.00  0.00    +0.000 A 
ATOM     14  C   UNL     1      -3.425  14.683  24.612  0.00  0.00    +0.000 A 
ATOM     15  C   UNL     1      -2.950  15.841  25.213  0.00  0.00    +0.000 A 
ATOM     16  N   UNL     1      -1.674  16.271  25.125  0.00  0.00    +0.000 NA
ATOM     17  C   UNL     1      -0.839  15.535  24.366  0.00  0.00    +0.000 A 
ATOM     18  C   UNL     1      -1.221  14.366  23.723  0.00  0.00    +0.000 A 
ENDBRANCH  12  13
ENDBRANCH  11  12
ENDBRANCH   1   2
BRANCH   1  19
ATOM     19  N   UNL     1      -0.970  11.369  20.038  0.00  0.00    +0.000 N 
ATOM     20  C   UNL     1      -0.013  10.644  20.813  0.00  0.00    +0.000 C 
ATOM     21  O   UNL     1       0.309  10.973  21.958  0.00  0.00    +0.000 OA
BRANCH  20  22
ATOM     22  C   UNL     1       0.680   9.407  20.324  0.00  0.00    +0.000 A 
ATOM     23  C   UNL     1       1.316   9.423  19.069  0.00  0.00    +0.000 A 
ATOM     24  C   UNL     1       2.131   8.348  18.660  0.00  0.00    +0.000 A 
ATOM     25  C   UNL     1       2.303   7.234  19.486  0.00  0.00    +0.000 A 
ATOM     26  C   UNL     1       3.226   6.105  19.136  0.00  0.00    +0.000 C 
ATOM     27  C   UNL     1       1.648   7.203  20.712  0.00  0.00    +0.000 A 
ATOM     28  C   UNL     1       0.904   8.303  21.138  0.00  0.00    +0.000 A 
ENDBRANCH  20  22
BRANCH  19  29
ATOM     29  C   UNL     1      -1.087  11.195  18.580  0.00  0.00    +0.000 C 
BRANCH  29  30
ATOM     30  C   UNL     1      -2.065  10.115  18.094  0.00  0.00    +0.000 C 
BRANCH  30  31
ATOM     31  C   UNL     1      -2.429  10.117  16.618  0.00  0.00    +0.000 C 
BRANCH  31  32
ATOM     32  N   UNL     1      -2.348  11.501  16.145  0.00  0.00    +0.000 NA
ATOM     33  H   UNL     1      -1.484  11.939  16.463  0.00  0.00    +0.000 HD
ATOM     34  H   UNL     1      -3.115  12.055  16.519  0.00  0.00    +0.000 HD
ENDBRANCH  31  32
ENDBRANCH  30  31
ENDBRANCH  29  30
ENDBRANCH  19  29
ENDBRANCH   1  19
BRANCH   1  36
ATOM     35  C   UNL     1      -1.409  15.291  20.290  0.00  0.00    +0.000 C 
ATOM     36  C   UNL     1      -1.109  13.917  19.702  0.00  0.00    +0.000 C 
ENDBRANCH   1  36
TORSDOF 10
ENDMDL
MODEL 2
REMARK VINA RESULT:      -6.9      1.230      1.340
REMARK  Name = 
REMARK  12 active torsions:
REMARK  status: ('A' for Active; 'I' for Inactive)
REMARK    1  A    between atoms: C_1  and  C_2
REMARK    2  A    between atoms: C_2  and  C_3
REMARK    3  A    between atoms: C_3  and  C_4
REMARK    4  A    between atoms: C_3  and  N_21
REMARK    5  A    between atoms: N_13  and  C_14
REMARK    6  A    between atoms: C_14  and  C_15
REMARK    7  A    between atoms: N_21  and  C_22
REMARK    8  A    between atoms: C_22  and  C_23
REMARK    9  A    between atoms: C_23  and  C_24
REMARK   10  A    between atoms: C_24  and  N_25
REMARK   11  A    between atoms: C_26  and  C_28
REMARK   12  A    between atoms: C_31  and  C_32
REMARK                            x       y       z     vdW  Elec       q    Type
REMARK                         _______ _______ _______ _____ _____    ______ ____
ROOT
ATOM      1  C   UNL     1      -1.066  12.407  19.782  0.00  0.00    +0.000 C 
ENDROOT
BRANCH   1   2
ATOM      2  C   UNL     1      -2.531  12.418  20.348  0.00  0.00    +0.000 A 
ATOM      3  N   UNL     1      -3.462  12.436  19.436  0.00  0.00    +0.000 NA
ATOM      4  C   UNL     1      -4.768  12.520  19.876  0.00  0.00    +0.000 A 
ATOM      5  C   UNL     1      -5.870  12.601  19.003  0.00  0.00    +0.000 A 
ATOM      6  C   UNL     1      -7.051  12.668  19.717  0.00  0.00    +0.000 A 
ATOM      7  S   UNL     1      -6.772  12.662  21.423  0.00  0.00    +0.000 S 
ATOM      8  C   UNL     1      -5.098  12.571  21.191  0.00  0.00    +0.000 A 
ATOM      9  C   UNL     1      -4.102  12.564  22.224  0.00  0.00    +0.000 A 
ATOM     10  O   UNL     1      -4.364  12.670  23.427  0.00  0.00    +0.000 OA
ATOM     11  N   UNL     1      -2.789  12.445  21.733  0.00  0.00    +0.000 N 
BRANCH  11  12
ATOM     12  C   UNL     1      -1.756  12.465  22.773  0.00  0.00    +0.000 C 
BRANCH  12  13
ATOM     13  C   UNL     1      -1.214  13.828  23.165  0.00  0.00    +0.000 A 
ATOM     14  C   UNL     1      -1.623  14.519  24.309  0.00  0.00    +0.000 A 
ATOM     15  C   UNL     1      -0.957  15.686  24.657  0.00  0.00    +0.000 A 
ATOM     16  N   UNL     1       0.073  16.208  23.957  0.00  0.00    +0.000 NA
ATOM     17  C   UNL     1       0.430  15.559  22.833  0.00  0.00    +0.000 A 
ATOM     18  C   UNL     1      -0.177  14.389  22.400  0.00  0.00    +0.000 A 
ENDBRANCH  12  13
ENDBRANCH  11  12
ENDBRANCH   1   2
BRANCH   1  19
ATOM     19  N   UNL     1      -0.613  10.971  19.567  0.00  0.00    +0.000 N 
ATOM     20  C   UNL     1       0.783  10.669  19.623  0.00  0.00    +0.000 C 
ATOM     21  O   UNL     1       1.633  11.494  19.969  0.00  0.00    +0.000 OA
BRANCH  20  22
ATOM     22  C   UNL     1       1.352   9.322  19.286  0.00  0.00    +0.000 A 
ATOM     23  C   UNL     1       1.959   9.124  18.033  0.00  0.00    +0.000 A 
ATOM     24  C   UNL     1       2.666   7.937  17.754  0.00  0.00    +0.000 A 
ATOM     25  C   UNL     1       2.755   6.923  18.712  0.00  0.00    +0.000 A 
ATOM     26  C   UNL     1       3.566   5.680  18.498  0.00  0.00    +0.000 C 
ATOM     27  C   UNL     1       2.127   7.104  19.939  0.00  0.00    +0.000 A 
ATOM     28  C   UNL     1       1.493   8.313  20.230  0.00  0.00    +0.000 A 
ENDBRANCH  20  22
BRANCH  19  29
ATOM     29  C   UNL     1      -1.567  10.123  18.831  0.00  0.00    +0.000 C 
BRANCH  29  30
ATOM     30  C   UNL     1      -1.445  10.124  17.300  0.00  0.00    +0.000 C 
BRANCH  30  31
ATOM     31  C   UNL     1      -2.722  10.318  16.499  0.00  0.00    +0.000 C 
BRANCH  31  32
ATOM     32  N   UNL     1      -3.850  10.123  17.412  0.00  0.00    +0.000 NA
ATOM     33  H   UNL     1      -4.653   9.739  16.914  0.00  0.00    +0.000 HD
ATOM     34  H   UNL     1      -4.147  11.010  17.812  0.00  0.00    +0.000 HD
ENDBRANCH  31  32
ENDBRANCH  30  31
ENDBRANCH  29  30
ENDBRANCH  19  29
ENDBRANCH   1  19
BRANCH   1  36
ATOM     35  C   UNL     1      -0.158  14.593  18.671  0.00  0.00    +0.000 C 
ATOM     36  C   UNL     1      -0.946  13.297  18.519  0.00  0.00    +0.000 C 
ENDBRANCH   1  36
TORSDOF 10
ENDMDL
MODEL 3
REMARK VINA RESULT:      -6.9      0.890      1.271
REMARK  Name = 
REMARK  12 active torsions:
REMARK  status: ('A' for Active; 'I' for Inactive)
REMARK    1  A    between atoms: C_1  and  C_2
REMARK    2  A    between atoms: C_2  and  C_3
REMARK    3  A    between atoms: C_3  and  C_4
REMARK    4  A    between atoms: C_3  and  N_21
REMARK    5  A    between atoms: N_13  and  C_14
REMARK    6  A    between atoms: C_14  and  C_15
REMARK    7  A    between atoms: N_21  and  C_22
REMARK    8  A    between atoms: C_22  and  C_23
REMARK    9  A    between atoms: C_23  and  C_24
REMARK   10  A    between atoms: C_24  and  N_25
REMARK   11  A    between atoms: C_26  and  C_28
REMARK   12  A    between atoms: C_31  and  C_32
REMARK                            x       y       z     vdW  Elec       q    Type
REMARK                         _______ _______ _______ _____ _____    ______ ____
ROOT
ATOM      1  C   UNL     1      -1.102  12.589  19.943  0.00  0.00    +0.000 C 
ENDROOT
BRANCH   1   2
ATOM      2  C   UNL     1      -2.642  12.459  20.224  0.00  0.00    +0.000 A 
ATOM      3  N   UNL     1      -3.372  12.278  19.160  0.00  0.00    +0.000 NA
ATOM      4  C   UNL     1      -4.740  12.229  19.341  0.00  0.00    +0.000 A 
ATOM      5  C   UNL     1      -5.652  12.091  18.276  0.00  0.00    +0.000 A 
ATOM      6  C   UNL     1      -6.950  12.066  18.749  0.00  0.00    +0.000 A 
ATOM      7  S   UNL     1      -7.011  12.242  20.467  0.00  0.00    +0.000 S 
ATOM      8  C   UNL     1      -5.325  12.350  20.558  0.00  0.00    +0.000 A 
ATOM      9  C   UNL     1      -4.556  12.560  21.752  0.00  0.00    +0.000 A 
ATOM     10  O   UNL     1      -5.058  12.735  22.867  0.00  0.00    +0.000 OA
ATOM     11  N   UNL     1      -3.168  12.571  21.527  0.00  0.00    +0.000 N 
BRANCH  11  12
ATOM     12  C   UNL     1      -2.367  12.814  22.731  0.00  0.00    +0.000 C 
BRANCH  12  13
ATOM     13  C   UNL     1      -2.004  14.259  23.025  0.00  0.00    +0.000 A 
ATOM     14  C   UNL     1      -2.396  15.330  22.218  0.00  0.00    +0.000 A 
ATOM     15  C   UNL     1      -2.142  16.623  22.656  0.00  0.00    +0.000 A 
ATOM     16  N   UNL     1      -1.532  16.921  23.823  0.00  0.00    +0.000 NA
ATOM     17  C   UNL     1      -1.118  15.881  24.571  0.00  0.00    +0.000 A 
ATOM     18  C   UNL     1      -1.322  14.555  24.217  0.00  0.00    +0.000 A 
ENDBRANCH  12  13
ENDBRANCH  11  12
ENDBRANCH   1   2
BRANCH   1  19
ATOM     19  N   UNL     1      -0.529  11.223  19.596  0.00  0.00    +0.000 N 
ATOM     20  C   UNL     1       0.401  10.614  20.494  0.00  0.00    +0.000 C 
ATOM     21  O   UNL     1       0.663  11.082  21.605  0.00  0.00    +0.000 OA
BRANCH  20  22
ATOM     22  C   UNL     1       1.134   9.342  20.187  0.00  0.00    +0.000 A 
ATOM     23  C   UNL     1       1.059   8.268  21.092  0.00  0.00    +0.000 A 
ATOM     24  C   UNL     1       1.576   7.001  20.754  0.00  0.00    +0.000 A 
ATOM     25  C   UNL     1       2.196   6.796  19.518  0.00  0.00    +0.000 A 
ATOM     26  C   UNL     1       2.685   5.450  19.073  0.00  0.00    +0.000 C 
ATOM     27  C   UNL     1       2.300   7.866  18.635  0.00  0.00    +0.000 A 
ATOM     28  C   UNL     1       1.720   9.095  18.952  0.00  0.00    +0.000 A 
ENDBRANCH  20  22
BRANCH  19  29
ATOM     29  C   UNL     1      -0.575  10.877  18.165  0.00  0.00    +0.000 C 
BRANCH  29  30
ATOM     30  C   UNL     1      -1.649   9.865  17.738  0.00  0.00    +0.000 C 
BRANCH  30  31
ATOM     31  C   UNL     1      -2.380  10.133  16.433  0.00  0.00    +0.000 C 
BRANCH  31  32
ATOM     32  N   UNL     1      -2.392  11.583  16.223  0.00  0.00    +0.000 NA
ATOM     33  H   UNL     1      -2.252  12.074  17.105  0.00  0.00    +0.000 HD
ATOM     34  H   UNL     1      -3.292  11.886  15.856  0.00  0.00    +0.000 HD
ENDBRANCH  31  32
ENDBRANCH  30  31
ENDBRANCH  29  30
ENDBRANCH  19  29
ENDBRANCH   1  19
BRANCH   1  36
ATOM     35  C   UNL     1      -0.039  14.901  19.342  0.00  0.00    +0.000 C 
ATOM     36  C   UNL     1      -0.818  13.677  18.875  0.00  0.00    +0.000 C 
ENDBRANCH   1  36
TORSDOF 10
ENDMDL
MODEL 4
REMARK VINA RESULT:      -6.9      3.087      4.601
REMARK  Name = 
REMARK  12 active torsions:
REMARK  status: ('A' for Active; 'I' for Inactive)
REMARK    1  A    between atoms: C_1  and  C_2
REMARK    2  A    between atoms: C_2  and  C_3
REMARK    3  A    between atoms: C_3  and  C_4
REMARK    4  A    between atoms: C_3  and  N_21
REMARK    5  A    between atoms: N_13  and  C_14
REMARK    6  A    between atoms: C_14  and  C_15
REMARK    7  A    between atoms: N_21  and  C_22
REMARK    8  A    between atoms: C_22  and  C_23
REMARK    9  A    between atoms: C_23  and  C_24
REMARK   10  A    between atoms: C_24  and  N_25
REMARK   11  A    between atoms: C_26  and  C_28
REMARK   12  A    between atoms: C_31  and  C_32
REMARK                            x       y       z     vdW  Elec       q    Type
REMARK                         _______ _______ _______ _____ _____    ______ ____
ROOT
ATOM      1  C   UNL     1       1.165  10.785  19.181  0.00  0.00    +0.000 C 
ENDROOT
BRANCH   1   2
ATOM      2  C   UNL     1      -0.349  10.938  18.792  0.00  0.00    +0.000 A 
ATOM      3  N   UNL     1      -0.681  10.353  17.675  0.00  0.00    +0.000 NA
ATOM      4  C   UNL     1      -1.983  10.516  17.246  0.00  0.00    +0.000 A 
ATOM      5  C   UNL     1      -2.466   9.985  16.034  0.00  0.00    +0.000 A 
ATOM      6  C   UNL     1      -3.801  10.297  15.865  0.00  0.00    +0.000 A 
ATOM      7  S   UNL     1      -4.409  11.249  17.173  0.00  0.00    +0.000 S 
ATOM      8  C   UNL     1      -2.900  11.236  17.939  0.00  0.00    +0.000 A 
ATOM      9  C   UNL     1      -2.571  11.902  19.168  0.00  0.00    +0.000 A 
ATOM     10  O   UNL     1      -3.364  12.615  19.792  0.00  0.00    +0.000 OA
ATOM     11  N   UNL     1      -1.245  11.684  19.583  0.00  0.00    +0.000 N 
BRANCH  11  12
ATOM     12  C   UNL     1      -0.883  12.381  20.820  0.00  0.00    +0.000 C 
BRANCH  12  13
ATOM     13  C   UNL     1      -0.058  13.647  20.670  0.00  0.00    +0.000 A 
ATOM     14  C   UNL     1       1.080  13.920  21.433  0.00  0.00    +0.000 A 
ATOM     15  C   UNL     1       1.848  15.032  21.114  0.00  0.00    +0.000 A 
ATOM     16  N   UNL     1       1.567  15.880  20.102  0.00  0.00    +0.000 NA
ATOM     17  C   UNL     1       0.444  15.634  19.401  0.00  0.00    +0.000 A 
ATOM     18  C   UNL     1      -0.389  14.552  19.647  0.00  0.00    +0.000 A 
ENDBRANCH  12  13
ENDBRANCH  11  12
ENDBRANCH   1   2
BRANCH   1  19
ATOM     19  N   UNL     1       1.442   9.349  19.599  0.00  0.00    +0.000 N 
ATOM     20  C   UNL     1       1.955   8.433  18.630  0.00  0.00    +0.000 C 
ATOM     21  O   UNL     1       2.311   8.781  17.501  0.00  0.00    +0.000 OA
BRANCH  20  22
ATOM     22  C   UNL     1       2.130   6.966  18.891  0.00  0.00    +0.000 A 
ATOM     23  C   UNL     1       2.102   6.493  20.216  0.00  0.00    +0.000 A 
ATOM     24  C   UNL     1       2.075   5.111  20.488  0.00  0.00    +0.000 A 
ATOM     25  C   UNL     1       2.101   4.182  19.443  0.00  0.00    +0.000 A 
ATOM     26  C   UNL     1       1.989   2.704  19.674  0.00  0.00    +0.000 C 
ATOM     27  C   UNL     1       2.163   4.648  18.134  0.00  0.00    +0.000 A 
ATOM     28  C   UNL     1       2.115   6.018  17.875  0.00  0.00    +0.000 A 
ENDBRANCH  20  22
BRANCH  19  29
ATOM     29  C   UNL     1       0.700   8.895  20.788  0.00  0.00    +0.000 C 
BRANCH  29  30
ATOM     30  C   UNL     1       1.137   9.485  22.137  0.00  0.00    +0.000 C 
BRANCH  30  31
ATOM     31  C   UNL     1       0.099   9.537  23.245  0.00  0.00    +0.000 C 
BRANCH  31  32
ATOM     32  N   UNL     1      -0.958   8.581  22.905  0.00  0.00    +0.000 NA
ATOM     33  H   UNL     1      -0.571   7.645  22.785  0.00  0.00    +0.000 HD
ATOM     34  H   UNL     1      -1.401   8.832  22.024  0.00  0.00    +0.000 HD
ENDBRANCH  31  32
ENDBRANCH  30  31
ENDBRANCH  29  30
ENDBRANCH  19  29
ENDBRANCH   1  19
BRANCH   1  36
ATOM     35  C   UNL     1       2.545  12.749  18.144  0.00  0.00    +0.000 C 
ATOM     36  C   UNL     1       2.090  11.298  18.047  0.00  0.00    +0.000 C 
ENDBRANCH   1  36
TORSDOF 10
ENDMDL
MODEL 5
REMARK VINA RESULT:      -6.6      2.985      4.416
REMARK  Name = 
REMARK  12 active torsions:
REMARK  status: ('A' for Active; 'I' for Inactive)
REMARK    1  A    between atoms: C_1  and  C_2
REMARK    2  A    between atoms: C_2  and  C_3
REMARK    3  A    between atoms: C_3  and  C_4
REMARK    4  A    between atoms: C_3  and  N_21
REMARK    5  A    between atoms: N_13  and  C_14
REMARK    6  A    between atoms: C_14  and  C_15
REMARK    7  A    between atoms: N_21  and  C_22
REMARK    8  A    between atoms: C_22  and  C_23
REMARK    9  A    between atoms: C_23  and  C_24
REMARK   10  A    between atoms: C_24  and  N_25
REMARK   11  A    between atoms: C_26  and  C_28
REMARK   12  A    between atoms: C_31  and  C_32
REMARK                            x       y       z     vdW  Elec       q    Type
REMARK                         _______ _______ _______ _____ _____    ______ ____
ROOT
ATOM      1  C   UNL     1       1.071  10.818  19.306  0.00  0.00    +0.000 C 
ENDROOT
BRANCH   1   2
ATOM      2  C   UNL     1      -0.430  10.974  18.872  0.00  0.00    +0.000 A 
ATOM      3  N   UNL     1      -0.739  10.357  17.766  0.00  0.00    +0.000 NA
ATOM      4  C   UNL     1      -2.028  10.520  17.298  0.00  0.00    +0.000 A 
ATOM      5  C   UNL     1      -2.485   9.956  16.091  0.00  0.00    +0.000 A 
ATOM      6  C   UNL     1      -3.811  10.276  15.877  0.00  0.00    +0.000 A 
ATOM      7  S   UNL     1      -4.443  11.276  17.138  0.00  0.00    +0.000 S 
ATOM      8  C   UNL     1      -2.955  11.271  17.943  0.00  0.00    +0.000 A 
ATOM      9  C   UNL     1      -2.650  11.972  19.158  0.00  0.00    +0.000 A 
ATOM     10  O   UNL     1      -3.451  12.713  19.739  0.00  0.00    +0.000 OA
ATOM     11  N   UNL     1      -1.338  11.754  19.615  0.00  0.00    +0.000 N 
BRANCH  11  12
ATOM     12  C   UNL     1      -1.000  12.486  20.839  0.00  0.00    +0.000 C 
BRANCH  12  13
ATOM     13  C   UNL     1      -0.160  13.740  20.670  0.00  0.00    +0.000 A 
ATOM     14  C   UNL     1      -0.394  14.695  19.677  0.00  0.00    +0.000 A 
ATOM     15  C   UNL     1       0.334  15.876  19.703  0.00  0.00    +0.000 A 
ATOM     16  N   UNL     1       1.266  16.172  20.634  0.00  0.00    +0.000 NA
ATOM     17  C   UNL     1       1.515  15.227  21.560  0.00  0.00    +0.000 A 
ATOM     18  C   UNL     1       0.844  14.014  21.615  0.00  0.00    +0.000 A 
ENDBRANCH  12  13
ENDBRANCH  11  12
ENDBRANCH   1   2
BRANCH   1  19
ATOM     19  N   UNL     1       1.324   9.390  19.767  0.00  0.00    +0.000 N 
ATOM     20  C   UNL     1       1.834   8.440  18.829  0.00  0.00    +0.000 C 
ATOM     21  O   UNL     1       2.208   8.753  17.695  0.00  0.00    +0.000 OA
BRANCH  20  22
ATOM     22  C   UNL     1       1.986   6.979  19.132  0.00  0.00    +0.000 A 
ATOM     23  C   UNL     1       2.423   6.107  18.119  0.00  0.00    +0.000 A 
ATOM     24  C   UNL     1       2.755   4.769  18.413  0.00  0.00    +0.000 A 
ATOM     25  C   UNL     1       2.632   4.278  19.715  0.00  0.00    +0.000 A 
ATOM     26  C   UNL     1       3.053   2.889  20.098  0.00  0.00    +0.000 C 
ATOM     27  C   UNL     1       2.169   5.130  20.711  0.00  0.00    +0.000 A 
ATOM     28  C   UNL     1       1.913   6.471  20.423  0.00  0.00    +0.000 A 
ENDBRANCH  20  22
BRANCH  19  29
ATOM     29  C   UNL     1       0.562   8.980  20.959  0.00  0.00    +0.000 C 
BRANCH  29  30
ATOM     30  C   UNL     1       1.119   9.431  22.317  0.00  0.00    +0.000 C 
BRANCH  30  31
ATOM     31  C   UNL     1       0.198   9.317  23.521  0.00  0.00    +0.000 C 
BRANCH  31  32
ATOM     32  N   UNL     1      -1.063   9.979  23.177  0.00  0.00    +0.000 NA
ATOM     33  H   UNL     1      -0.921  10.651  22.424  0.00  0.00    +0.000 HD
ATOM     34  H   UNL     1      -1.425  10.499  23.973  0.00  0.00    +0.000 HD
ENDBRANCH  31  32
ENDBRANCH  30  31
ENDBRANCH  29  30
ENDBRANCH  19  29
ENDBRANCH   1  19
BRANCH   1  36
ATOM     35  C   UNL     1       2.466  12.754  18.236  0.00  0.00    +0.000 C 
ATOM     36  C   UNL     1       2.031  11.294  18.185  0.00  0.00    +0.000 C 
ENDBRANCH   1  36
TORSDOF 10
ENDMDL
MODEL 6
REMARK VINA RESULT:      -6.5      2.885      4.823
REMARK  Name = 
REMARK  12 active torsions:
REMARK  status: ('A' for Active; 'I' for Inactive)
REMARK    1  A    between atoms: C_1  and  C_2
REMARK    2  A    between atoms: C_2  and  C_3
REMARK    3  A    between atoms: C_3  and  C_4
REMARK    4  A    between atoms: C_3  and  N_21
REMARK    5  A    between atoms: N_13  and  C_14
REMARK    6  A    between atoms: C_14  and  C_15
REMARK    7  A    between atoms: N_21  and  C_22
REMARK    8  A    between atoms: C_22  and  C_23
REMARK    9  A    between atoms: C_23  and  C_24
REMARK   10  A    between atoms: C_24  and  N_25
REMARK   11  A    between atoms: C_26  and  C_28
REMARK   12  A    between atoms: C_31  and  C_32
REMARK                            x       y       z     vdW  Elec       q    Type
REMARK                         _______ _______ _______ _____ _____    ______ ____
ROOT
ATOM      1  C   UNL     1      -0.588  11.059  20.906  0.00  0.00    +0.000 C 
ENDROOT
BRANCH   1   2
ATOM      2  C   UNL     1       0.156  12.407  20.600  0.00  0.00    +0.000 A 
ATOM      3  N   UNL     1       1.395  12.444  21.003  0.00  0.00    +0.000 NA
ATOM      4  C   UNL     1       2.077  13.631  20.824  0.00  0.00    +0.000 A 
ATOM      5  C   UNL     1       3.402  13.830  21.258  0.00  0.00    +0.000 A 
ATOM      6  C   UNL     1       3.829  15.106  20.943  0.00  0.00    +0.000 A 
ATOM      7  S   UNL     1       2.591  16.023  20.159  0.00  0.00    +0.000 S 
ATOM      8  C   UNL     1       1.513  14.723  20.249  0.00  0.00    +0.000 A 
ATOM      9  C   UNL     1       0.148  14.725  19.802  0.00  0.00    +0.000 A 
ATOM     10  O   UNL     1      -0.415  15.719  19.330  0.00  0.00    +0.000 OA
ATOM     11  N   UNL     1      -0.497  13.487  19.974  0.00  0.00    +0.000 N 
BRANCH  11  12
ATOM     12  C   UNL     1      -1.900  13.479  19.549  0.00  0.00    +0.000 C 
BRANCH  12  13
ATOM     13  C   UNL     1      -2.943  13.564  20.649  0.00  0.00    +0.000 A 
ATOM     14  C   UNL     1      -4.033  12.696  20.746  0.00  0.00    +0.000 A 
ATOM     15  C   UNL     1      -4.842  12.762  21.871  0.00  0.00    +0.000 A 
ATOM     16  N   UNL     1      -4.647  13.621  22.895  0.00  0.00    +0.000 NA
ATOM     17  C   UNL     1      -3.621  14.484  22.771  0.00  0.00    +0.000 A 
ATOM     18  C   UNL     1      -2.759  14.498  21.683  0.00  0.00    +0.000 A 
ENDBRANCH  12  13
ENDBRANCH  11  12
ENDBRANCH   1   2
BRANCH   1  19
ATOM     19  N   UNL     1      -0.051   9.962  19.999  0.00  0.00    +0.000 N 
ATOM     20  C   UNL     1       1.030   9.150  20.459  0.00  0.00    +0.000 C 
ATOM     21  O   UNL     1       1.466   9.206  21.613  0.00  0.00    +0.000 OA
BRANCH  20  22
ATOM     22  C   UNL     1       1.730   8.139  19.600  0.00  0.00    +0.000 A 
ATOM     23  C   UNL     1       2.254   8.536  18.356  0.00  0.00    +0.000 A 
ATOM     24  C   UNL     1       3.075   7.668  17.609  0.00  0.00    +0.000 A 
ATOM     25  C   UNL     1       3.363   6.384  18.081  0.00  0.00    +0.000 A 
ATOM     26  C   UNL     1       4.300   5.454  17.368  0.00  0.00    +0.000 C 
ATOM     27  C   UNL     1       2.819   5.978  19.294  0.00  0.00    +0.000 A 
ATOM     28  C   UNL     1       2.068   6.872  20.059  0.00  0.00    +0.000 A 
ENDBRANCH  20  22
BRANCH  19  29
ATOM     29  C   UNL     1      -0.331  10.151  18.565  0.00  0.00    +0.000 C 
BRANCH  29  30
ATOM     30  C   UNL     1      -1.809  10.178  18.152  0.00  0.00    +0.000 C 
BRANCH  30  31
ATOM     31  C   UNL     1      -2.120  10.089  16.666  0.00  0.00    +0.000 C 
BRANCH  31  32
ATOM     32  N   UNL     1      -2.398  11.447  16.192  0.00  0.00    +0.000 NA
ATOM     33  H   UNL     1      -1.631  12.075  16.431  0.00  0.00    +0.000 HD
ATOM     34  H   UNL     1      -3.234  11.820  16.636  0.00  0.00    +0.000 HD
ENDBRANCH  31  32
ENDBRANCH  30  31
ENDBRANCH  29  30
ENDBRANCH  19  29
ENDBRANCH   1  19
BRANCH   1  36
ATOM     35  C   UNL     1      -1.592  11.333  23.305  0.00  0.00    +0.000 C 
ATOM     36  C   UNL     1      -0.521  10.712  22.416  0.00  0.00    +0.000 C 
ENDBRANCH   1  36
TORSDOF 10
ENDMDL
MODEL 7
REMARK VINA RESULT:      -6.5      3.071      5.323
REMARK  Name = 
REMARK  12 active torsions:
REMARK  status: ('A' for Active; 'I' for Inactive)
REMARK    1  A    between atoms: C_1  and  C_2
REMARK    2  A    between atoms: C_2  and  C_3
REMARK    3  A    between atoms: C_3  and  C_4
REMARK    4  A    between atoms: C_3  and  N_21
REMARK    5  A    between atoms: N_13  and  C_14
REMARK    6  A    between atoms: C_14  and  C_15
REMARK    7  A    between atoms: N_21  and  C_22
REMARK    8  A    between atoms: C_22  and  C_23
REMARK    9  A    between atoms: C_23  and  C_24
REMARK   10  A    between atoms: C_24  and  N_25
REMARK   11  A    between atoms: C_26  and  C_28
REMARK   12  A    between atoms: C_31  and  C_32
REMARK                            x       y       z     vdW  Elec       q    Type
REMARK                         _______ _______ _______ _____ _____    ______ ____
ROOT
ATOM      1  C   UNL     1      -0.021  10.867  19.095  0.00  0.00    +0.000 C 
ENDROOT
BRANCH   1   2
ATOM      2  C   UNL     1      -0.254  11.770  20.359  0.00  0.00    +0.000 A 
ATOM      3  N   UNL     1      -1.427  11.631  20.913  0.00  0.00    +0.000 NA
ATOM      4  C   UNL     1      -1.714  12.452  21.985  0.00  0.00    +0.000 A 
ATOM      5  C   UNL     1      -2.958  12.449  22.645  0.00  0.00    +0.000 A 
ATOM      6  C   UNL     1      -2.961  13.364  23.680  0.00  0.00    +0.000 A 
ATOM      7  S   UNL     1      -1.460  14.215  23.789  0.00  0.00    +0.000 S 
ATOM      8  C   UNL     1      -0.833  13.363  22.469  0.00  0.00    +0.000 A 
ATOM      9  C   UNL     1       0.463  13.552  21.881  0.00  0.00    +0.000 A 
ATOM     10  O   UNL     1       1.266  14.413  22.258  0.00  0.00    +0.000 OA
ATOM     11  N   UNL     1       0.725  12.674  20.814  0.00  0.00    +0.000 N 
BRANCH  11  12
ATOM     12  C   UNL     1       2.034  12.873  20.183  0.00  0.00    +0.000 C 
BRANCH  12  13
ATOM     13  C   UNL     1       2.261  14.209  19.498  0.00  0.00    +0.000 A 
ATOM     14  C   UNL     1       3.529  14.749  19.267  0.00  0.00    +0.000 A 
ATOM     15  C   UNL     1       3.634  15.902  18.501  0.00  0.00    +0.000 A 
ATOM     16  N   UNL     1       2.581  16.548  17.956  0.00  0.00    +0.000 NA
ATOM     17  C   UNL     1       1.360  16.044  18.223  0.00  0.00    +0.000 A 
ATOM     18  C   UNL     1       1.153  14.901  18.980  0.00  0.00    +0.000 A 
ENDBRANCH  12  13
ENDBRANCH  11  12
ENDBRANCH   1   2
BRANCH   1  19
ATOM     19  N   UNL     1       0.877   9.696  19.463  0.00  0.00    +0.000 N 
ATOM     20  C   UNL     1       1.689   9.101  18.449  0.00  0.00    +0.000 C 
ATOM     21  O   UNL     1       1.800   9.576  17.315  0.00  0.00    +0.000 OA
BRANCH  20  22
ATOM     22  C   UNL     1       2.501   7.858  18.663  0.00  0.00    +0.000 A 
ATOM     23  C   UNL     1       2.121   6.952  19.670  0.00  0.00    +0.000 A 
ATOM     24  C   UNL     1       2.742   5.691  19.777  0.00  0.00    +0.000 A 
ATOM     25  C   UNL     1       3.767   5.329  18.899  0.00  0.00    +0.000 A 
ATOM     26  C   UNL     1       4.401   3.970  18.915  0.00  0.00    +0.000 C 
ATOM     27  C   UNL     1       4.166   6.237  17.924  0.00  0.00    +0.000 A 
ATOM     28  C   UNL     1       3.494   7.452  17.781  0.00  0.00    +0.000 A 
ENDBRANCH  20  22
BRANCH  19  29
ATOM     29  C   UNL     1       0.469   8.957  20.670  0.00  0.00    +0.000 C 
BRANCH  29  30
ATOM     30  C   UNL     1       1.283   9.222  21.945  0.00  0.00    +0.000 C 
BRANCH  30  31
ATOM     31  C   UNL     1       0.509   9.534  23.215  0.00  0.00    +0.000 C 
BRANCH  31  32
ATOM     32  N   UNL     1      -0.879   9.119  22.999  0.00  0.00    +0.000 NA
ATOM     33  H   UNL     1      -1.094   9.088  22.003  0.00  0.00    +0.000 HD
ATOM     34  H   UNL     1      -1.523   9.785  23.420  0.00  0.00    +0.000 HD
ENDBRANCH  31  32
ENDBRANCH  30  31
ENDBRANCH  29  30
ENDBRANCH  19  29
ENDBRANCH   1  19
BRANCH   1  36
ATOM     35  C   UNL     1      -1.999  11.442  17.485  0.00  0.00    +0.000 C 
ATOM     36  C   UNL     1      -1.367  10.447  18.450  0.00  0.00    +0.000 C 
ENDBRANCH   1  36
TORSDOF 10
ENDMDL
MODEL 8
REMARK VINA RESULT:      -6.4      2.557      3.990
REMARK  Name = 
REMARK  12 active torsions:
REMARK  status: ('A' for Active; 'I' for Inactive)
REMARK    1  A    between atoms: C_1  and  C_2
REMARK    2  A    between atoms: C_2  and  C_3
REMARK    3  A    between atoms: C_3  and  C_4
REMARK    4  A    between atoms: C_3  and  N_21
REMARK    5  A    between atoms: N_13  and  C_14
REMARK    6  A    between atoms: C_14  and  C_15
REMARK    7  A    between atoms: N_21  and  C_22
REMARK    8  A    between atoms: C_22  and  C_23
REMARK    9  A    between atoms: C_23  and  C_24
REMARK   10  A    between atoms: C_24  and  N_25
REMARK   11  A    between atoms: C_26  and  C_28
REMARK   12  A    between atoms: C_31  and  C_32
REMARK                            x       y       z     vdW  Elec       q    Type
REMARK                         _______ _______ _______ _____ _____    ______ ____
ROOT
ATOM      1  C   UNL     1       0.475  11.289  19.625  0.00  0.00    +0.000 C 
ENDROOT
BRANCH   1   2
ATOM      2  C   UNL     1      -0.977  11.349  19.031  0.00  0.00    +0.000 A 
ATOM      3  N   UNL     1      -1.090  10.856  17.829  0.00  0.00    +0.000 NA
ATOM      4  C   UNL     1      -2.330  10.948  17.228  0.00  0.00    +0.000 A 
ATOM      5  C   UNL     1      -2.583  10.505  15.915  0.00  0.00    +0.000 A 
ATOM      6  C   UNL     1      -3.906  10.715  15.579  0.00  0.00    +0.000 A 
ATOM      7  S   UNL     1      -4.783  11.471  16.863  0.00  0.00    +0.000 S 
ATOM      8  C   UNL     1      -3.402  11.510  17.839  0.00  0.00    +0.000 A 
ATOM      9  C   UNL     1      -3.315  12.072  19.158  0.00  0.00    +0.000 A 
ATOM     10  O   UNL     1      -4.255  12.645  19.719  0.00  0.00    +0.000 OA
ATOM     11  N   UNL     1      -2.045  11.928  19.743  0.00  0.00    +0.000 N 
BRANCH  11  12
ATOM     12  C   UNL     1      -1.930  12.523  21.079  0.00  0.00    +0.000 C 
BRANCH  12  13
ATOM     13  C   UNL     1      -1.127  13.807  21.183  0.00  0.00    +0.000 A 
ATOM     14  C   UNL     1      -0.160  14.032  22.166  0.00  0.00    +0.000 A 
ATOM     15  C   UNL     1       0.623  15.175  22.082  0.00  0.00    +0.000 A 
ATOM     16  N   UNL     1       0.514  16.099  21.104  0.00  0.00    +0.000 NA
ATOM     17  C   UNL     1      -0.452  15.895  20.187  0.00  0.00    +0.000 A 
ATOM     18  C   UNL     1      -1.286  14.787  20.188  0.00  0.00    +0.000 A 
ENDBRANCH  12  13
ENDBRANCH  11  12
ENDBRANCH   1   2
BRANCH   1  19
ATOM     19  N   UNL     1       0.861   9.841  19.886  0.00  0.00    +0.000 N 
ATOM     20  C   UNL     1       1.654   9.150  18.919  0.00  0.00    +0.000 C 
ATOM     21  O   UNL     1       2.156   9.711  17.941  0.00  0.00    +0.000 OA
BRANCH  20  22
ATOM     22  C   UNL     1       1.972   7.686  19.003  0.00  0.00    +0.000 A 
ATOM     23  C   UNL     1       2.489   7.028  17.873  0.00  0.00    +0.000 A 
ATOM     24  C   UNL     1       2.973   5.707  17.966  0.00  0.00    +0.000 A 
ATOM     25  C   UNL     1       2.923   5.019  19.182  0.00  0.00    +0.000 A 
ATOM     26  C   UNL     1       3.502   3.645  19.356  0.00  0.00    +0.000 C 
ATOM     27  C   UNL     1       2.381   5.657  20.291  0.00  0.00    +0.000 A 
ATOM     28  C   UNL     1       1.974   6.989  20.204  0.00  0.00    +0.000 A 
ENDBRANCH  20  22
BRANCH  19  29
ATOM     29  C   UNL     1      -0.014   9.127  20.832  0.00  0.00    +0.000 C 
BRANCH  29  30
ATOM     30  C   UNL     1      -0.232   9.791  22.199  0.00  0.00    +0.000 C 
BRANCH  30  31
ATOM     31  C   UNL     1       0.588   9.268  23.367  0.00  0.00    +0.000 C 
BRANCH  31  32
ATOM     32  N   UNL     1       2.002   9.375  22.997  0.00  0.00    +0.000 NA
ATOM     33  H   UNL     1       2.255  10.348  22.824  0.00  0.00    +0.000 HD
ATOM     34  H   UNL     1       2.189   8.864  22.137  0.00  0.00    +0.000 HD
ENDBRANCH  31  32
ENDBRANCH  30  31
ENDBRANCH  29  30
ENDBRANCH  19  29
ENDBRANCH   1  19
BRANCH   1  36
ATOM     35  C   UNL     1       2.198  13.238  19.360  0.00  0.00    +0.000 C 
ATOM     36  C   UNL     1       1.481  12.053  18.725  0.00  0.00    +0.000 C 
ENDBRANCH   1  36
TORSDOF 10
ENDMDL
MODEL 9
REMARK VINA RESULT:      -6.3      3.206      5.649
REMARK  Name = 
REMARK  12 active torsions:
REMARK  status: ('A' for Active; 'I' for Inactive)
REMARK    1  A    between atoms: C_1  and  C_2
REMARK    2  A    between atoms: C_2  and  C_3
REMARK    3  A    between atoms: C_3  and  C_4
REMARK    4  A    between atoms: C_3  and  N_21
REMARK    5  A    between atoms: N_13  and  C_14
REMARK    6  A    between atoms: C_14  and  C_15
REMARK    7  A    between atoms: N_21  and  C_22
REMARK    8  A    between atoms: C_22  and  C_23
REMARK    9  A    between atoms: C_23  and  C_24
REMARK   10  A    between atoms: C_24  and  N_25
REMARK   11  A    between atoms: C_26  and  C_28
REMARK   12  A    between atoms: C_31  and  C_32
REMARK                            x       y       z     vdW  Elec       q    Type
REMARK                         _______ _______ _______ _____ _____    ______ ____
ROOT
ATOM      1  C   UNL     1      -0.513  11.295  21.319  0.00  0.00    +0.000 C 
ENDROOT
BRANCH   1   2
ATOM      2  C   UNL     1       0.168  12.710  21.336  0.00  0.00    +0.000 A 
ATOM      3  N   UNL     1       1.073  12.885  20.413  0.00  0.00    +0.000 NA
ATOM      4  C   UNL     1       1.756  14.085  20.426  0.00  0.00    +0.000 A 
ATOM      5  C   UNL     1       2.793  14.389  19.523  0.00  0.00    +0.000 A 
ATOM      6  C   UNL     1       3.290  15.655  19.763  0.00  0.00    +0.000 A 
ATOM      7  S   UNL     1       2.496  16.415  21.097  0.00  0.00    +0.000 S 
ATOM      8  C   UNL     1       1.512  15.060  21.337  0.00  0.00    +0.000 A 
ATOM      9  C   UNL     1       0.531  14.900  22.373  0.00  0.00    +0.000 A 
ATOM     10  O   UNL     1       0.325  15.742  23.255  0.00  0.00    +0.000 OA
ATOM     11  N   UNL     1      -0.162  13.679  22.303  0.00  0.00    +0.000 N 
BRANCH  11  12
ATOM     12  C   UNL     1      -1.147  13.487  23.372  0.00  0.00    +0.000 C 
BRANCH  12  13
ATOM     13  C   UNL     1      -2.609  13.623  22.980  0.00  0.00    +0.000 A 
ATOM     14  C   UNL     1      -3.579  12.666  23.284  0.00  0.00    +0.000 A 
ATOM     15  C   UNL     1      -4.910  12.955  23.015  0.00  0.00    +0.000 A 
ATOM     16  N   UNL     1      -5.338  14.115  22.472  0.00  0.00    +0.000 NA
ATOM     17  C   UNL     1      -4.390  15.013  22.142  0.00  0.00    +0.000 A 
ATOM     18  C   UNL     1      -3.035  14.814  22.367  0.00  0.00    +0.000 A 
ENDBRANCH  12  13
ENDBRANCH  11  12
ENDBRANCH   1   2
BRANCH   1  19
ATOM     19  N   UNL     1      -0.896  10.929  19.893  0.00  0.00    +0.000 N 
ATOM     20  C   UNL     1      -2.113  11.443  19.349  0.00  0.00    +0.000 C 
ATOM     21  O   UNL     1      -2.808  12.278  19.934  0.00  0.00    +0.000 OA
BRANCH  20  22
ATOM     22  C   UNL     1      -2.658  11.035  18.012  0.00  0.00    +0.000 A 
ATOM     23  C   UNL     1      -2.334  11.797  16.875  0.00  0.00    +0.000 A 
ATOM     24  C   UNL     1      -2.670  11.343  15.583  0.00  0.00    +0.000 A 
ATOM     25  C   UNL     1      -3.355  10.137  15.412  0.00  0.00    +0.000 A 
ATOM     26  C   UNL     1      -3.661   9.568  14.058  0.00  0.00    +0.000 C 
ATOM     27  C   UNL     1      -3.706   9.400  16.537  0.00  0.00    +0.000 A 
ATOM     28  C   UNL     1      -3.304   9.823  17.805  0.00  0.00    +0.000 A 
ENDBRANCH  20  22
BRANCH  19  29
ATOM     29  C   UNL     1      -0.267   9.701  19.378  0.00  0.00    +0.000 C 
BRANCH  29  30
ATOM     30  C   UNL     1       0.502   9.826  18.055  0.00  0.00    +0.000 C 
BRANCH  30  31
ATOM     31  C   UNL     1       2.003  10.052  18.139  0.00  0.00    +0.000 C 
BRANCH  31  32
ATOM     32  N   UNL     1       2.264  11.441  17.755  0.00  0.00    +0.000 NA
ATOM     33  H   UNL     1       3.241  11.563  17.489  0.00  0.00    +0.000 HD
ATOM     34  H   UNL     1       2.090  12.069  18.536  0.00  0.00    +0.000 HD
ENDBRANCH  31  32
ENDBRANCH  30  31
ENDBRANCH  29  30
ENDBRANCH  19  29
ENDBRANCH   1  19
BRANCH   1  36
ATOM     35  C   UNL     1      -0.203   9.578  23.266  0.00  0.00    +0.000 C 
ATOM     36  C   UNL     1       0.377  10.236  22.020  0.00  0.00    +0.000 C 
ENDBRANCH   1  36
TORSDOF 10
ENDMDL
