MODEL 1
REMARK VINA RESULT:      -7.5      0.000      0.000
REMARK  Name = 
REMARK  12 active torsions:
REMARK  status: ('A' for Active; 'I' for Inactive)
REMARK    1  A    between atoms: C_1  and  C_2
REMARK    2  A    between atoms: C_2  and  C_3
REMARK    3  A    between atoms: C_3  and  C_4
REMARK    4  A    between atoms: C_4  and  N_5
REMARK    5  A    between atoms: C_6  and  N_7
REMARK    6  A    between atoms: C_8  and  N_9
REMARK    7  A    between atoms: N_9  and  C_10
REMARK    8  A    between atoms: C_10  and  C_11
REMARK    9  A    between atoms: C_11  and  C_12
REMARK   10  A    between atoms: C_11  and  C_13
REMARK   11  A    between atoms: C_14  and  C_16
REMARK   12  A    between atoms: N_20  and  C_21
REMARK                            x       y       z     vdW  Elec       q    Type
REMARK                         _______ _______ _______ _____ _____    ______ ____
ROOT
ATOM      1  N   UNL     1       0.196  11.069  19.604  0.00  0.00    +0.000 N 
ATOM      2  C   UNL     1       0.445  11.988  20.655  0.00  0.00    +0.000 C 
ATOM      3  O   UNL     1       1.208  11.726  21.590  0.00  0.00    +0.000 OA
ENDROOT
BRANCH   1   6
ATOM      4  N   UNL     1       2.128   8.029  18.757  0.00  0.00    +0.000 N 
ATOM      5  C   UNL     1       1.709   9.357  18.735  0.00  0.00    +0.000 A 
ATOM      6  C   UNL     1       0.845   9.816  19.674  0.00  0.00    +0.000 A 
ATOM      7  C   UNL     1       0.556   8.903  20.823  0.00  0.00    +0.000 A 
ATOM      8  O   UNL     1      -0.452   9.015  21.518  0.00  0.00    +0.000 OA
ATOM      9  N   UNL     1       1.453   7.899  21.005  0.00  0.00    +0.000 N 
ATOM     10  C   UNL     1       2.086   7.287  19.961  0.00  0.00    +0.000 A 
ATOM     11  O   UNL     1       2.524   6.158  20.120  0.00  0.00    +0.000 OA
ATOM     12  H   UNL     1       1.278   7.297  21.770  0.00  0.00    +0.000 HD
BRANCH   5  13
ATOM     13  N   UNL     1       2.139  10.241  17.757  0.00  0.00    +0.000 N 
ATOM     14  H   UNL     1       1.521  10.957  17.402  0.00  0.00    +0.000 HD
ATOM     15  H   UNL     1       2.856   9.885  17.126  0.00  0.00    +0.000 HD
ENDBRANCH   5  13
BRANCH   4  16
ATOM     16  C   UNL     1       2.707   7.401  17.551  0.00  0.00    +0.000 C 
BRANCH  16  17
ATOM     17  C   UNL     1       4.242   7.274  17.511  0.00  0.00    +0.000 C 
BRANCH  17  19
ATOM     18  C   UNL     1       4.071   4.786  17.208  0.00  0.00    +0.000 C 
ATOM     19  C   UNL     1       4.720   6.067  16.700  0.00  0.00    +0.000 C 
ENDBRANCH  17  19
ENDBRANCH  16  17
ENDBRANCH   4  16
ENDBRANCH   1   6
BRANCH   2  20
ATOM     20  C   UNL     1      -0.194  13.387  20.565  0.00  0.00    +0.000 C 
ATOM     21  C   UNL     1       0.331  14.398  21.583  0.00  0.00    +0.000 C 
ATOM     22  C   UNL     1      -0.637  14.323  22.746  0.00  0.00    +0.000 C 
ATOM     23  O   UNL     1      -0.420  14.819  23.840  0.00  0.00    +0.000 OA
ATOM     24  N   UNL     1      -1.800  13.719  22.271  0.00  0.00    +0.000 N 
ATOM     25  C   UNL     1      -1.666  13.342  20.879  0.00  0.00    +0.000 C 
BRANCH  24  26
ATOM     26  C   UNL     1      -3.037  13.565  22.945  0.00  0.00    +0.000 A 
ATOM     27  C   UNL     1      -3.314  12.571  23.900  0.00  0.00    +0.000 A 
ATOM     28  C   UNL     1      -4.617  12.429  24.422  0.00  0.00    +0.000 A 
ATOM     29  C   UNL     1      -5.637  13.280  24.001  0.00  0.00    +0.000 A 
ATOM     30  C   UNL     1      -5.318  14.339  23.169  0.00  0.00    +0.000 A 
ATOM     31  C   UNL     1      -4.056  14.463  22.633  0.00  0.00    +0.000 A 
ATOM     32  O   UNL     1      -6.229  15.276  22.767  0.00  0.00    +0.000 OA
ATOM     33  C   UNL     1      -7.406  14.561  22.433  0.00  0.00    +0.000 C 
ATOM     34  C   UNL     1      -7.914  13.786  23.645  0.00  0.00    +0.000 C 
ATOM     35  O   UNL     1      -6.927  13.016  24.366  0.00  0.00    +0.000 OA
ENDBRANCH  24  26
ENDBRANCH   2  20
BRANCH   1  36
ATOM     36  C   UNL     1      -0.787  11.361  18.523  0.00  0.00    +0.000 C 
BRANCH  36  37
ATOM     37  C   UNL     1      -2.069  10.519  18.280  0.00  0.00    +0.000 C 
ATOM     38  C   UNL     1      -3.367  11.324  18.325  0.00  0.00    +0.000 C 
ATOM     39  C   UNL     1      -1.987   9.828  16.904  0.00  0.00    +0.000 C 
ENDBRANCH  36  37
ENDBRANCH   1  36
TORSDOF 9
ENDMDL
MODEL 2
REMARK VINA RESULT:      -7.5      3.086      8.906
REMARK  Name = 
REMARK  12 active torsions:
REMARK  status: ('A' for Active; 'I' for Inactive)
REMARK    1  A    between atoms: C_1  and  C_2
REMARK    2  A    between atoms: C_2  and  C_3
REMARK    3  A    between atoms: C_3  and  C_4
REMARK    4  A    between atoms: C_4  and  N_5
REMARK    5  A    between atoms: C_6  and  N_7
REMARK    6  A    between atoms: C_8  and  N_9
REMARK    7  A    between atoms: N_9  and  C_10
REMARK    8  A    between atoms: C_10  and  C_11
REMARK    9  A    between atoms: C_11  and  C_12
REMARK   10  A    between atoms: C_11  and  C_13
REMARK   11  A    between atoms: C_14  and  C_16
REMARK   12  A    between atoms: N_20  and  C_21
REMARK                            x       y       z     vdW  Elec       q    Type
REMARK                         _______ _______ _______ _____ _____    ______ ____
ROOT
ATOM      1  N   UNL     1      -0.052  13.674  20.667  0.00  0.00    +0.000 N 
ATOM      2  C   UNL     1       0.400  12.508  19.997  0.00  0.00    +0.000 C 
ATOM      3  O   UNL     1       1.420  12.504  19.302  0.00  0.00    +0.000 OA
ENDROOT
BRANCH   1   6
ATOM      4  N   UNL     1       1.515  16.697  19.219  0.00  0.00    +0.000 N 
ATOM      5  C   UNL     1       0.580  15.687  19.433  0.00  0.00    +0.000 A 
ATOM      6  C   UNL     1       0.707  14.853  20.495  0.00  0.00    +0.000 A 
ATOM      7  C   UNL     1       1.744  15.214  21.511  0.00  0.00    +0.000 A 
ATOM      8  O   UNL     1       2.218  14.390  22.291  0.00  0.00    +0.000 OA
ATOM      9  N   UNL     1       2.174  16.501  21.468  0.00  0.00    +0.000 N 
ATOM     10  C   UNL     1       2.285  17.195  20.296  0.00  0.00    +0.000 A 
ATOM     11  O   UNL     1       3.052  18.145  20.247  0.00  0.00    +0.000 OA
ATOM     12  H   UNL     1       2.851  16.753  22.144  0.00  0.00    +0.000 HD
BRANCH   5  13
ATOM     13  N   UNL     1      -0.486  15.487  18.569  0.00  0.00    +0.000 N 
ATOM     14  H   UNL     1      -0.404  15.712  17.588  0.00  0.00    +0.000 HD
ATOM     15  H   UNL     1      -1.412  15.553  18.990  0.00  0.00    +0.000 HD
ENDBRANCH   5  13
BRANCH   4  16
ATOM     16  C   UNL     1       1.652  17.329  17.891  0.00  0.00    +0.000 C 
BRANCH  16  17
ATOM     17  C   UNL     1       2.900  16.946  17.071  0.00  0.00    +0.000 C 
BRANCH  17  19
ATOM     18  C   UNL     1       4.744  15.519  18.008  0.00  0.00    +0.000 C 
ATOM     19  C   UNL     1       3.374  15.516  17.342  0.00  0.00    +0.000 C 
ENDBRANCH  17  19
ENDBRANCH  16  17
ENDBRANCH   4  16
ENDBRANCH   1   6
BRANCH   2  20
ATOM     20  C   UNL     1      -0.370  11.194  20.226  0.00  0.00    +0.000 C 
ATOM     21  C   UNL     1      -0.164  10.563  21.603  0.00  0.00    +0.000 C 
ATOM     22  C   UNL     1       0.957   9.562  21.412  0.00  0.00    +0.000 C 
ATOM     23  O   UNL     1       1.551   9.028  22.336  0.00  0.00    +0.000 OA
ATOM     24  N   UNL     1       1.053   9.311  20.045  0.00  0.00    +0.000 N 
ATOM     25  C   UNL     1       0.104  10.108  19.296  0.00  0.00    +0.000 C 
BRANCH  24  26
ATOM     26  C   UNL     1       1.852   8.339  19.394  0.00  0.00    +0.000 A 
ATOM     27  C   UNL     1       2.449   8.504  18.131  0.00  0.00    +0.000 A 
ATOM     28  C   UNL     1       3.125   7.428  17.518  0.00  0.00    +0.000 A 
ATOM     29  C   UNL     1       3.213   6.196  18.164  0.00  0.00    +0.000 A 
ATOM     30  C   UNL     1       2.744   6.091  19.461  0.00  0.00    +0.000 A 
ATOM     31  C   UNL     1       2.057   7.128  20.052  0.00  0.00    +0.000 A 
ATOM     32  O   UNL     1       2.859   4.953  20.210  0.00  0.00    +0.000 OA
ATOM     33  C   UNL     1       2.527   3.880  19.345  0.00  0.00    +0.000 C 
ATOM     34  C   UNL     1       3.477   3.851  18.152  0.00  0.00    +0.000 C 
ATOM     35  O   UNL     1       3.700   5.114  17.487  0.00  0.00    +0.000 OA
ENDBRANCH  24  26
ENDBRANCH   2  20
BRANCH   1  36
ATOM     36  C   UNL     1      -1.328  13.692  21.436  0.00  0.00    +0.000 C 
BRANCH  36  37
ATOM     37  C   UNL     1      -1.400  13.539  22.980  0.00  0.00    +0.000 C 
ATOM     38  C   UNL     1      -1.409  14.863  23.743  0.00  0.00    +0.000 C 
ATOM     39  C   UNL     1      -2.672  12.759  23.368  0.00  0.00    +0.000 C 
ENDBRANCH  36  37
ENDBRANCH   1  36
TORSDOF 9
ENDMDL
MODEL 3
REMARK VINA RESULT:      -7.5      1.489      2.241
REMARK  Name = 
REMARK  12 active torsions:
REMARK  status: ('A' for Active; 'I' for Inactive)
REMARK    1  A    between atoms: C_1  and  C_2
REMARK    2  A    between atoms: C_2  and  C_3
REMARK    3  A    between atoms: C_3  and  C_4
REMARK    4  A    between atoms: C_4  and  N_5
REMARK    5  A    between atoms: C_6  and  N_7
REMARK    6  A    between atoms: C_8  and  N_9
REMARK    7  A    between atoms: N_9  and  C_10
REMARK    8  A    between atoms: C_10  and  C_11
REMARK    9  A    between atoms: C_11  and  C_12
REMARK   10  A    between atoms: C_11  and  C_13
REMARK   11  A    between atoms: C_14  and  C_16
REMARK   12  A    between atoms: N_20  and  C_21
REMARK                            x       y       z     vdW  Elec       q    Type
REMARK                         _______ _______ _______ _____ _____    ______ ____
ROOT
ATOM      1  N   UNL     1       0.164  11.552  19.208  0.00  0.00    +0.000 N 
ATOM      2  C   UNL     1       0.526  12.414  20.275  0.00  0.00    +0.000 C 
ATOM      3  O   UNL     1       1.445  12.144  21.054  0.00  0.00    +0.000 OA
ENDROOT
BRANCH   1   6
ATOM      4  N   UNL     1       1.636   8.218  19.842  0.00  0.00    +0.000 N 
ATOM      5  C   UNL     1       0.731   9.275  19.891  0.00  0.00    +0.000 A 
ATOM      6  C   UNL     1       0.889  10.347  19.076  0.00  0.00    +0.000 A 
ATOM      7  C   UNL     1       1.924  10.227  18.002  0.00  0.00    +0.000 A 
ATOM      8  O   UNL     1       2.426  11.207  17.456  0.00  0.00    +0.000 OA
ATOM      9  N   UNL     1       2.318   8.958  17.718  0.00  0.00    +0.000 N 
ATOM     10  C   UNL     1       2.402   7.988  18.675  0.00  0.00    +0.000 A 
ATOM     11  O   UNL     1       3.142   7.035  18.482  0.00  0.00    +0.000 OA
ATOM     12  H   UNL     1       2.993   8.867  17.000  0.00  0.00    +0.000 HD
BRANCH   5  13
ATOM     13  N   UNL     1      -0.336   9.281  20.777  0.00  0.00    +0.000 N 
ATOM     14  H   UNL     1      -0.299   8.742  21.631  0.00  0.00    +0.000 HD
ATOM     15  H   UNL     1      -1.253   9.439  20.361  0.00  0.00    +0.000 HD
ENDBRANCH   5  13
BRANCH   4  16
ATOM     16  C   UNL     1       1.746   7.266  20.968  0.00  0.00    +0.000 C 
BRANCH  16  17
ATOM     17  C   UNL     1       1.130   5.870  20.750  0.00  0.00    +0.000 C 
BRANCH  17  19
ATOM     18  C   UNL     1       1.444   3.379  20.850  0.00  0.00    +0.000 C 
ATOM     19  C   UNL     1       2.123   4.734  21.007  0.00  0.00    +0.000 C 
ENDBRANCH  17  19
ENDBRANCH  16  17
ENDBRANCH   4  16
ENDBRANCH   1   6
BRANCH   2  20
ATOM     20  C   UNL     1      -0.202  13.766  20.397  0.00  0.00    +0.000 C 
ATOM     21  C   UNL     1       0.267  14.643  21.557  0.00  0.00    +0.000 C 
ATOM     22  C   UNL     1      -0.684  14.331  22.694  0.00  0.00    +0.000 C 
ATOM     23  O   UNL     1      -0.490  14.668  23.851  0.00  0.00    +0.000 OA
ATOM     24  N   UNL     1      -1.811  13.733  22.132  0.00  0.00    +0.000 N 
ATOM     25  C   UNL     1      -1.664  13.580  20.699  0.00  0.00    +0.000 C 
BRANCH  24  26
ATOM     26  C   UNL     1      -3.029  13.400  22.772  0.00  0.00    +0.000 A 
ATOM     27  C   UNL     1      -3.133  12.750  24.015  0.00  0.00    +0.000 A 
ATOM     28  C   UNL     1      -4.395  12.355  24.509  0.00  0.00    +0.000 A 
ATOM     29  C   UNL     1      -5.549  12.614  23.770  0.00  0.00    +0.000 A 
ATOM     30  C   UNL     1      -5.444  13.376  22.620  0.00  0.00    +0.000 A 
ATOM     31  C   UNL     1      -4.213  13.738  22.119  0.00  0.00    +0.000 A 
ATOM     32  O   UNL     1      -6.524  13.756  21.873  0.00  0.00    +0.000 OA
ATOM     33  C   UNL     1      -7.359  12.613  21.783  0.00  0.00    +0.000 C 
ATOM     34  C   UNL     1      -7.787  12.163  23.176  0.00  0.00    +0.000 C 
ATOM     35  O   UNL     1      -6.736  12.064  24.162  0.00  0.00    +0.000 OA
ENDBRANCH  24  26
ENDBRANCH   2  20
BRANCH   1  36
ATOM     36  C   UNL     1      -0.998  11.846  18.322  0.00  0.00    +0.000 C 
BRANCH  36  37
ATOM     37  C   UNL     1      -2.215  10.896  18.162  0.00  0.00    +0.000 C 
ATOM     38  C   UNL     1      -3.569  11.606  18.145  0.00  0.00    +0.000 C 
ATOM     39  C   UNL     1      -2.084  10.095  16.851  0.00  0.00    +0.000 C 
ENDBRANCH  36  37
ENDBRANCH   1  36
TORSDOF 9
ENDMDL
MODEL 4
REMARK VINA RESULT:      -7.4      4.685      9.101
REMARK  Name = 
REMARK  12 active torsions:
REMARK  status: ('A' for Active; 'I' for Inactive)
REMARK    1  A    between atoms: C_1  and  C_2
REMARK    2  A    between atoms: C_2  and  C_3
REMARK    3  A    between atoms: C_3  and  C_4
REMARK    4  A    between atoms: C_4  and  N_5
REMARK    5  A    between atoms: C_6  and  N_7
REMARK    6  A    between atoms: C_8  and  N_9
REMARK    7  A    between atoms: N_9  and  C_10
REMARK    8  A    between atoms: C_10  and  C_11
REMARK    9  A    between atoms: C_11  and  C_12
REMARK   10  A    between atoms: C_11  and  C_13
REMARK   11  A    between atoms: C_14  and  C_16
REMARK   12  A    between atoms: N_20  and  C_21
REMARK                            x       y       z     vdW  Elec       q    Type
REMARK                         _______ _______ _______ _____ _____    ______ ____
ROOT
ATOM      1  N   UNL     1      -0.104  12.468  20.193  0.00  0.00    +0.000 N 
ATOM      2  C   UNL     1       0.696  13.532  19.702  0.00  0.00    +0.000 C 
ATOM      3  O   UNL     1       0.696  13.858  18.511  0.00  0.00    +0.000 OA
ENDROOT
BRANCH   1   6
ATOM      4  N   UNL     1      -2.977  11.186  18.246  0.00  0.00    +0.000 N 
ATOM      5  C   UNL     1      -2.202  12.057  19.009  0.00  0.00    +0.000 A 
ATOM      6  C   UNL     1      -0.900  11.772  19.256  0.00  0.00    +0.000 A 
ATOM      7  C   UNL     1      -0.309  10.624  18.501  0.00  0.00    +0.000 A 
ATOM      8  O   UNL     1       0.699  10.031  18.882  0.00  0.00    +0.000 OA
ATOM      9  N   UNL     1      -1.000  10.240  17.396  0.00  0.00    +0.000 N 
ATOM     10  C   UNL     1      -2.363  10.299  17.332  0.00  0.00    +0.000 A 
ATOM     11  O   UNL     1      -2.946   9.572  16.541  0.00  0.00    +0.000 OA
ATOM     12  H   UNL     1      -0.611   9.490  16.883  0.00  0.00    +0.000 HD
BRANCH   5  13
ATOM     13  N   UNL     1      -2.731  13.219  19.551  0.00  0.00    +0.000 N 
ATOM     14  H   UNL     1      -2.671  13.397  20.544  0.00  0.00    +0.000 HD
ATOM     15  H   UNL     1      -3.522  13.618  19.049  0.00  0.00    +0.000 HD
ENDBRANCH   5  13
BRANCH   4  16
ATOM     16  C   UNL     1      -4.453  11.238  18.311  0.00  0.00    +0.000 C 
BRANCH  16  17
ATOM     17  C   UNL     1      -5.168  11.952  17.147  0.00  0.00    +0.000 C 
BRANCH  17  19
ATOM     18  C   UNL     1      -6.725  13.800  17.832  0.00  0.00    +0.000 C 
ATOM     19  C   UNL     1      -6.615  12.324  17.474  0.00  0.00    +0.000 C 
ENDBRANCH  17  19
ENDBRANCH  16  17
ENDBRANCH   4  16
ENDBRANCH   1   6
BRANCH   2  20
ATOM     20  C   UNL     1       1.518  14.352  20.715  0.00  0.00    +0.000 C 
ATOM     21  C   UNL     1       1.474  15.864  20.500  0.00  0.00    +0.000 C 
ATOM     22  C   UNL     1       2.696  16.176  19.660  0.00  0.00    +0.000 C 
ATOM     23  O   UNL     1       2.876  17.245  19.099  0.00  0.00    +0.000 OA
ATOM     24  N   UNL     1       3.562  15.091  19.779  0.00  0.00    +0.000 N 
ATOM     25  C   UNL     1       2.988  14.049  20.606  0.00  0.00    +0.000 C 
BRANCH  24  26
ATOM     26  C   UNL     1       4.890  14.982  19.298  0.00  0.00    +0.000 A 
ATOM     27  C   UNL     1       5.243  14.747  17.958  0.00  0.00    +0.000 A 
ATOM     28  C   UNL     1       6.592  14.534  17.604  0.00  0.00    +0.000 A 
ATOM     29  C   UNL     1       7.586  14.563  18.581  0.00  0.00    +0.000 A 
ATOM     30  C   UNL     1       7.241  14.933  19.868  0.00  0.00    +0.000 A 
ATOM     31  C   UNL     1       5.923  15.113  20.225  0.00  0.00    +0.000 A 
ATOM     32  O   UNL     1       8.153  15.074  20.877  0.00  0.00    +0.000 OA
ATOM     33  C   UNL     1       9.032  13.967  20.767  0.00  0.00    +0.000 C 
ATOM     34  C   UNL     1       9.716  13.971  19.404  0.00  0.00    +0.000 C 
ATOM     35  O   UNL     1       8.855  14.171  18.262  0.00  0.00    +0.000 OA
ENDBRANCH  24  26
ENDBRANCH   2  20
BRANCH   1  36
ATOM     36  C   UNL     1      -0.037  12.029  21.615  0.00  0.00    +0.000 C 
BRANCH  36  37
ATOM     37  C   UNL     1      -1.040  11.028  22.251  0.00  0.00    +0.000 C 
ATOM     38  C   UNL     1      -0.390   9.963  23.134  0.00  0.00    +0.000 C 
ATOM     39  C   UNL     1      -2.067  11.792  23.109  0.00  0.00    +0.000 C 
ENDBRANCH  36  37
ENDBRANCH   1  36
TORSDOF 9
ENDMDL
MODEL 5
REMARK VINA RESULT:      -7.4      2.812      9.638
REMARK  Name = 
REMARK  12 active torsions:
REMARK  status: ('A' for Active; 'I' for Inactive)
REMARK    1  A    between atoms: C_1  and  C_2
REMARK    2  A    between atoms: C_2  and  C_3
REMARK    3  A    between atoms: C_3  and  C_4
REMARK    4  A    between atoms: C_4  and  N_5
REMARK    5  A    between atoms: C_6  and  N_7
REMARK    6  A    between atoms: C_8  and  N_9
REMARK    7  A    between atoms: N_9  and  C_10
REMARK    8  A    between atoms: C_10  and  C_11
REMARK    9  A    between atoms: C_11  and  C_12
REMARK   10  A    between atoms: C_11  and  C_13
REMARK   11  A    between atoms: C_14  and  C_16
REMARK   12  A    between atoms: N_20  and  C_21
REMARK                            x       y       z     vdW  Elec       q    Type
REMARK                         _______ _______ _______ _____ _____    ______ ____
ROOT
ATOM      1  N   UNL     1      -1.094  11.780  18.753  0.00  0.00    +0.000 N 
ATOM      2  C   UNL     1      -0.595  10.603  19.366  0.00  0.00    +0.000 C 
ATOM      3  O   UNL     1      -1.321   9.638  19.623  0.00  0.00    +0.000 OA
ENDROOT
BRANCH   1   6
ATOM      4  N   UNL     1      -4.777  11.949  19.059  0.00  0.00    +0.000 N 
ATOM      5  C   UNL     1      -3.432  12.154  19.358  0.00  0.00    +0.000 A 
ATOM      6  C   UNL     1      -2.475  11.820  18.457  0.00  0.00    +0.000 A 
ATOM      7  C   UNL     1      -2.944  11.444  17.088  0.00  0.00    +0.000 A 
ATOM      8  O   UNL     1      -2.257  10.778  16.314  0.00  0.00    +0.000 OA
ATOM      9  N   UNL     1      -4.208  11.834  16.781  0.00  0.00    +0.000 N 
ATOM     10  C   UNL     1      -5.206  11.875  17.713  0.00  0.00    +0.000 A 
ATOM     11  O   UNL     1      -6.366  11.805  17.335  0.00  0.00    +0.000 OA
ATOM     12  H   UNL     1      -4.523  11.600  15.872  0.00  0.00    +0.000 HD
BRANCH   5  13
ATOM     13  N   UNL     1      -3.028  12.680  20.575  0.00  0.00    +0.000 N 
ATOM     14  H   UNL     1      -2.564  13.576  20.621  0.00  0.00    +0.000 HD
ATOM     15  H   UNL     1      -2.801  11.996  21.296  0.00  0.00    +0.000 HD
ENDBRANCH   5  13
BRANCH   4  16
ATOM     16  C   UNL     1      -5.789  11.898  20.135  0.00  0.00    +0.000 C 
BRANCH  16  17
ATOM     17  C   UNL     1      -6.400  13.245  20.568  0.00  0.00    +0.000 C 
BRANCH  17  19
ATOM     18  C   UNL     1      -7.916  13.082  22.565  0.00  0.00    +0.000 C 
ATOM     19  C   UNL     1      -6.503  13.392  22.088  0.00  0.00    +0.000 C 
ENDBRANCH  17  19
ENDBRANCH  16  17
ENDBRANCH   4  16
ENDBRANCH   1   6
BRANCH   2  20
ATOM     20  C   UNL     1       0.919  10.507  19.633  0.00  0.00    +0.000 C 
ATOM     21  C   UNL     1       1.792  10.509  18.378  0.00  0.00    +0.000 C 
ATOM     22  C   UNL     1       2.025   9.046  18.061  0.00  0.00    +0.000 C 
ATOM     23  O   UNL     1       2.488   8.649  17.003  0.00  0.00    +0.000 OA
ATOM     24  N   UNL     1       1.738   8.326  19.218  0.00  0.00    +0.000 N 
ATOM     25  C   UNL     1       1.284   9.198  20.281  0.00  0.00    +0.000 C 
BRANCH  24  26
ATOM     26  C   UNL     1       1.948   6.945  19.458  0.00  0.00    +0.000 A 
ATOM     27  C   UNL     1       1.746   6.303  20.692  0.00  0.00    +0.000 A 
ATOM     28  C   UNL     1       2.101   4.948  20.856  0.00  0.00    +0.000 A 
ATOM     29  C   UNL     1       2.647   4.232  19.792  0.00  0.00    +0.000 A 
ATOM     30  C   UNL     1       2.710   4.836  18.548  0.00  0.00    +0.000 A 
ATOM     31  C   UNL     1       2.393   6.167  18.390  0.00  0.00    +0.000 A 
ATOM     32  O   UNL     1       3.149   4.194  17.425  0.00  0.00    +0.000 OA
ATOM     33  C   UNL     1       4.301   3.465  17.816  0.00  0.00    +0.000 C 
ATOM     34  C   UNL     1       3.946   2.469  18.915  0.00  0.00    +0.000 C 
ATOM     35  O   UNL     1       3.160   2.985  20.011  0.00  0.00    +0.000 OA
ENDBRANCH  24  26
ENDBRANCH   2  20
BRANCH   1  36
ATOM     36  C   UNL     1      -0.228  12.971  18.520  0.00  0.00    +0.000 C 
BRANCH  36  37
ATOM     37  C   UNL     1      -0.175  14.192  19.478  0.00  0.00    +0.000 C 
ATOM     38  C   UNL     1       0.352  13.871  20.876  0.00  0.00    +0.000 C 
ATOM     39  C   UNL     1       0.722  15.290  18.873  0.00  0.00    +0.000 C 
ENDBRANCH  36  37
ENDBRANCH   1  36
TORSDOF 9
ENDMDL
MODEL 6
REMARK VINA RESULT:      -7.3      3.035      8.673
REMARK  Name = 
REMARK  12 active torsions:
REMARK  status: ('A' for Active; 'I' for Inactive)
REMARK    1  A    between atoms: C_1  and  C_2
REMARK    2  A    between atoms: C_2  and  C_3
REMARK    3  A    between atoms: C_3  and  C_4
REMARK    4  A    between atoms: C_4  and  N_5
REMARK    5  A    between atoms: C_6  and  N_7
REMARK    6  A    between atoms: C_8  and  N_9
REMARK    7  A    between atoms: N_9  and  C_10
REMARK    8  A    between atoms: C_10  and  C_11
REMARK    9  A    between atoms: C_11  and  C_12
REMARK   10  A    between atoms: C_11  and  C_13
REMARK   11  A    between atoms: C_14  and  C_16
REMARK   12  A    between atoms: N_20  and  C_21
REMARK                            x       y       z     vdW  Elec       q    Type
REMARK                         _______ _______ _______ _____ _____    ______ ____
ROOT
ATOM      1  N   UNL     1      -0.248  13.981  20.904  0.00  0.00    +0.000 N 
ATOM      2  C   UNL     1       0.238  12.763  20.364  0.00  0.00    +0.000 C 
ATOM      3  O   UNL     1       1.288  12.703  19.718  0.00  0.00    +0.000 OA
ENDROOT
BRANCH   1   6
ATOM      4  N   UNL     1       1.402  16.850  19.248  0.00  0.00    +0.000 N 
ATOM      5  C   UNL     1       0.461  15.855  19.503  0.00  0.00    +0.000 A 
ATOM      6  C   UNL     1       0.513  15.146  20.658  0.00  0.00    +0.000 A 
ATOM      7  C   UNL     1       1.469  15.632  21.701  0.00  0.00    +0.000 A 
ATOM      8  O   UNL     1       1.889  14.907  22.601  0.00  0.00    +0.000 OA
ATOM      9  N   UNL     1       1.891  16.914  21.547  0.00  0.00    +0.000 N 
ATOM     10  C   UNL     1       2.086  17.475  20.317  0.00  0.00    +0.000 A 
ATOM     11  O   UNL     1       2.847  18.426  20.218  0.00  0.00    +0.000 OA
ATOM     12  H   UNL     1       2.514  17.249  22.238  0.00  0.00    +0.000 HD
BRANCH   5  13
ATOM     13  N   UNL     1      -0.536  15.544  18.591  0.00  0.00    +0.000 N 
ATOM     14  H   UNL     1      -1.125  14.734  18.728  0.00  0.00    +0.000 HD
ATOM     15  H   UNL     1      -0.365  15.843  17.632  0.00  0.00    +0.000 HD
ENDBRANCH   5  13
BRANCH   4  16
ATOM     16  C   UNL     1       1.634  17.333  17.871  0.00  0.00    +0.000 C 
BRANCH  16  17
ATOM     17  C   UNL     1       2.932  16.862  17.186  0.00  0.00    +0.000 C 
BRANCH  17  19
ATOM     18  C   UNL     1       4.798  15.322  17.863  0.00  0.00    +0.000 C 
ATOM     19  C   UNL     1       3.310  15.425  17.549  0.00  0.00    +0.000 C 
ENDBRANCH  17  19
ENDBRANCH  16  17
ENDBRANCH   4  16
ENDBRANCH   1   6
BRANCH   2  20
ATOM     20  C   UNL     1      -0.536  11.468  20.678  0.00  0.00    +0.000 C 
ATOM     21  C   UNL     1      -0.239  10.861  22.049  0.00  0.00    +0.000 C 
ATOM     22  C   UNL     1       0.846   9.835  21.796  0.00  0.00    +0.000 C 
ATOM     23  O   UNL     1       1.499   9.308  22.683  0.00  0.00    +0.000 OA
ATOM     24  N   UNL     1       0.834   9.555  20.431  0.00  0.00    +0.000 N 
ATOM     25  C   UNL     1      -0.154  10.355  19.739  0.00  0.00    +0.000 C 
BRANCH  24  26
ATOM     26  C   UNL     1       1.563   8.554  19.743  0.00  0.00    +0.000 A 
ATOM     27  C   UNL     1       2.113   8.701  18.457  0.00  0.00    +0.000 A 
ATOM     28  C   UNL     1       2.717   7.602  17.810  0.00  0.00    +0.000 A 
ATOM     29  C   UNL     1       2.780   6.363  18.447  0.00  0.00    +0.000 A 
ATOM     30  C   UNL     1       2.362   6.270  19.763  0.00  0.00    +0.000 A 
ATOM     31  C   UNL     1       1.745   7.332  20.386  0.00  0.00    +0.000 A 
ATOM     32  O   UNL     1       2.460   5.124  20.500  0.00  0.00    +0.000 OA
ATOM     33  C   UNL     1       2.047   4.071  19.645  0.00  0.00    +0.000 C 
ATOM     34  C   UNL     1       2.945   4.010  18.414  0.00  0.00    +0.000 C 
ATOM     35  O   UNL     1       3.192   5.266  17.745  0.00  0.00    +0.000 OA
ENDBRANCH  24  26
ENDBRANCH   2  20
BRANCH   1  36
ATOM     36  C   UNL     1      -1.557  14.059  21.612  0.00  0.00    +0.000 C 
BRANCH  36  37
ATOM     37  C   UNL     1      -2.922  14.158  20.880  0.00  0.00    +0.000 C 
ATOM     38  C   UNL     1      -3.934  13.089  21.291  0.00  0.00    +0.000 C 
ATOM     39  C   UNL     1      -3.557  15.538  21.143  0.00  0.00    +0.000 C 
ENDBRANCH  36  37
ENDBRANCH   1  36
TORSDOF 9
ENDMDL
MODEL 7
REMARK VINA RESULT:      -7.3      3.352      8.320
REMARK  Name = 
REMARK  12 active torsions:
REMARK  status: ('A' for Active; 'I' for Inactive)
REMARK    1  A    between atoms: C_1  and  C_2
REMARK    2  A    between atoms: C_2  and  C_3
REMARK    3  A    between atoms: C_3  and  C_4
REMARK    4  A    between atoms: C_4  and  N_5
REMARK    5  A    between atoms: C_6  and  N_7
REMARK    6  A    between atoms: C_8  and  N_9
REMARK    7  A    between atoms: N_9  and  C_10
REMARK    8  A    between atoms: C_10  and  C_11
REMARK    9  A    between atoms: C_11  and  C_12
REMARK   10  A    between atoms: C_11  and  C_13
REMARK   11  A    between atoms: C_14  and  C_16
REMARK   12  A    between atoms: N_20  and  C_21
REMARK                            x       y       z     vdW  Elec       q    Type
REMARK                         _______ _______ _______ _____ _____    ______ ____
ROOT
ATOM      1  N   UNL     1       0.003  12.893  19.277  0.00  0.00    +0.000 N 
ATOM      2  C   UNL     1       0.502  12.145  20.374  0.00  0.00    +0.000 C 
ATOM      3  O   UNL     1       1.519  12.479  20.989  0.00  0.00    +0.000 OA
ENDROOT
BRANCH   1   6
ATOM      4  N   UNL     1       2.681  15.159  18.100  0.00  0.00    +0.000 N 
ATOM      5  C   UNL     1       1.918  14.002  18.239  0.00  0.00    +0.000 A 
ATOM      6  C   UNL     1       0.731  14.042  18.894  0.00  0.00    +0.000 A 
ATOM      7  C   UNL     1       0.205  15.396  19.247  0.00  0.00    +0.000 A 
ATOM      8  O   UNL     1      -0.626  15.571  20.136  0.00  0.00    +0.000 OA
ATOM      9  N   UNL     1       0.757  16.429  18.559  0.00  0.00    +0.000 N 
ATOM     10  C   UNL     1       2.067  16.431  18.172  0.00  0.00    +0.000 A 
ATOM     11  O   UNL     1       2.616  17.502  17.960  0.00  0.00    +0.000 OA
ATOM     12  H   UNL     1       0.407  17.329  18.777  0.00  0.00    +0.000 HD
BRANCH   5  13
ATOM     13  N   UNL     1       2.347  12.782  17.738  0.00  0.00    +0.000 N 
ATOM     14  H   UNL     1       2.329  12.598  16.745  0.00  0.00    +0.000 HD
ATOM     15  H   UNL     1       2.238  11.986  18.366  0.00  0.00    +0.000 HD
ENDBRANCH   5  13
BRANCH   4  16
ATOM     16  C   UNL     1       4.123  15.078  17.785  0.00  0.00    +0.000 C 
BRANCH  16  17
ATOM     17  C   UNL     1       5.091  15.087  18.984  0.00  0.00    +0.000 C 
BRANCH  17  19
ATOM     18  C   UNL     1       7.204  14.675  17.688  0.00  0.00    +0.000 C 
ATOM     19  C   UNL     1       6.477  15.629  18.627  0.00  0.00    +0.000 C 
ENDBRANCH  17  19
ENDBRANCH  16  17
ENDBRANCH   4  16
ENDBRANCH   1   6
BRANCH   2  20
ATOM     20  C   UNL     1      -0.313  10.929  20.856  0.00  0.00    +0.000 C 
ATOM     21  C   UNL     1      -0.001  10.474  22.281  0.00  0.00    +0.000 C 
ATOM     22  C   UNL     1       1.035   9.380  22.125  0.00  0.00    +0.000 C 
ATOM     23  O   UNL     1       1.691   8.933  23.053  0.00  0.00    +0.000 OA
ATOM     24  N   UNL     1       0.974   8.944  20.803  0.00  0.00    +0.000 N 
ATOM     25  C   UNL     1      -0.001   9.700  20.045  0.00  0.00    +0.000 C 
BRANCH  24  26
ATOM     26  C   UNL     1       1.644   7.841  20.220  0.00  0.00    +0.000 A 
ATOM     27  C   UNL     1       2.362   7.883  19.012  0.00  0.00    +0.000 A 
ATOM     28  C   UNL     1       2.891   6.698  18.455  0.00  0.00    +0.000 A 
ATOM     29  C   UNL     1       2.711   5.478  19.105  0.00  0.00    +0.000 A 
ATOM     30  C   UNL     1       2.125   5.473  20.359  0.00  0.00    +0.000 A 
ATOM     31  C   UNL     1       1.582   6.621  20.891  0.00  0.00    +0.000 A 
ATOM     32  O   UNL     1       1.979   4.343  21.113  0.00  0.00    +0.000 OA
ATOM     33  C   UNL     1       1.539   3.331  20.222  0.00  0.00    +0.000 C 
ATOM     34  C   UNL     1       2.566   3.124  19.113  0.00  0.00    +0.000 C 
ATOM     35  O   UNL     1       3.058   4.320  18.470  0.00  0.00    +0.000 OA
ENDBRANCH  24  26
ENDBRANCH   2  20
BRANCH   1  36
ATOM     36  C   UNL     1      -1.178  12.439  18.490  0.00  0.00    +0.000 C 
BRANCH  36  37
ATOM     37  C   UNL     1      -2.526  12.017  19.134  0.00  0.00    +0.000 C 
ATOM     38  C   UNL     1      -3.147  13.076  20.045  0.00  0.00    +0.000 C 
ATOM     39  C   UNL     1      -3.549  11.681  18.031  0.00  0.00    +0.000 C 
ENDBRANCH  36  37
ENDBRANCH   1  36
TORSDOF 9
ENDMDL
MODEL 8
REMARK VINA RESULT:      -7.2      3.248      8.421
REMARK  Name = 
REMARK  12 active torsions:
REMARK  status: ('A' for Active; 'I' for Inactive)
REMARK    1  A    between atoms: C_1  and  C_2
REMARK    2  A    between atoms: C_2  and  C_3
REMARK    3  A    between atoms: C_3  and  C_4
REMARK    4  A    between atoms: C_4  and  N_5
REMARK    5  A    between atoms: C_6  and  N_7
REMARK    6  A    between atoms: C_8  and  N_9
REMARK    7  A    between atoms: N_9  and  C_10
REMARK    8  A    between atoms: C_10  and  C_11
REMARK    9  A    between atoms: C_11  and  C_12
REMARK   10  A    between atoms: C_11  and  C_13
REMARK   11  A    between atoms: C_14  and  C_16
REMARK   12  A    between atoms: N_20  and  C_21
REMARK                            x       y       z     vdW  Elec       q    Type
REMARK                         _______ _______ _______ _____ _____    ______ ____
ROOT
ATOM      1  N   UNL     1      -1.074  12.624  20.002  0.00  0.00    +0.000 N 
ATOM      2  C   UNL     1      -0.253  11.974  20.959  0.00  0.00    +0.000 C 
ATOM      3  O   UNL     1       0.758  12.506  21.427  0.00  0.00    +0.000 OA
ENDROOT
BRANCH   1   6
ATOM      4  N   UNL     1       0.847  15.459  18.601  0.00  0.00    +0.000 N 
ATOM      5  C   UNL     1       0.389  14.156  18.783  0.00  0.00    +0.000 A 
ATOM      6  C   UNL     1      -0.680  13.914  19.581  0.00  0.00    +0.000 A 
ATOM      7  C   UNL     1      -1.447  15.106  20.056  0.00  0.00    +0.000 A 
ATOM      8  O   UNL     1      -2.172  15.073  21.049  0.00  0.00    +0.000 OA
ATOM      9  N   UNL     1      -1.237  16.248  19.351  0.00  0.00    +0.000 N 
ATOM     10  C   UNL     1      -0.024  16.556  18.805  0.00  0.00    +0.000 A 
ATOM     11  O   UNL     1       0.237  17.727  18.574  0.00  0.00    +0.000 OA
ATOM     12  H   UNL     1      -1.749  17.040  19.650  0.00  0.00    +0.000 HD
BRANCH   5  13
ATOM     13  N   UNL     1       1.012  13.074  18.180  0.00  0.00    +0.000 N 
ATOM     14  H   UNL     1       0.950  12.151  18.587  0.00  0.00    +0.000 HD
ATOM     15  H   UNL     1       1.846  13.293  17.637  0.00  0.00    +0.000 HD
ENDBRANCH   5  13
BRANCH   4  16
ATOM     16  C   UNL     1       2.215  15.715  18.106  0.00  0.00    +0.000 C 
BRANCH  16  17
ATOM     17  C   UNL     1       3.342  15.698  19.157  0.00  0.00    +0.000 C 
BRANCH  17  19
ATOM     18  C   UNL     1       5.839  15.852  18.920  0.00  0.00    +0.000 C 
ATOM     19  C   UNL     1       4.607  14.993  18.662  0.00  0.00    +0.000 C 
ENDBRANCH  17  19
ENDBRANCH  16  17
ENDBRANCH   4  16
ENDBRANCH   1   6
BRANCH   2  20
ATOM     20  C   UNL     1      -0.700  10.597  21.485  0.00  0.00    +0.000 C 
ATOM     21  C   UNL     1       0.000  10.143  22.765  0.00  0.00    +0.000 C 
ATOM     22  C   UNL     1       1.161   9.290  22.296  0.00  0.00    +0.000 C 
ATOM     23  O   UNL     1       2.078   8.938  23.021  0.00  0.00    +0.000 OA
ATOM     24  N   UNL     1       0.889   8.917  20.981  0.00  0.00    +0.000 N 
ATOM     25  C   UNL     1      -0.354   9.497  20.517  0.00  0.00    +0.000 C 
BRANCH  24  26
ATOM     26  C   UNL     1       1.604   8.001  20.171  0.00  0.00    +0.000 A 
ATOM     27  C   UNL     1       2.190   8.312  18.931  0.00  0.00    +0.000 A 
ATOM     28  C   UNL     1       2.777   7.296  18.147  0.00  0.00    +0.000 A 
ATOM     29  C   UNL     1       2.787   5.978  18.600  0.00  0.00    +0.000 A 
ATOM     30  C   UNL     1       2.333   5.712  19.880  0.00  0.00    +0.000 A 
ATOM     31  C   UNL     1       1.733   6.694  20.637  0.00  0.00    +0.000 A 
ATOM     32  O   UNL     1       2.379   4.470  20.448  0.00  0.00    +0.000 OA
ATOM     33  C   UNL     1       1.956   3.564  19.442  0.00  0.00    +0.000 C 
ATOM     34  C   UNL     1       2.882   3.649  18.233  0.00  0.00    +0.000 C 
ATOM     35  O   UNL     1       3.184   4.979  17.757  0.00  0.00    +0.000 OA
ENDBRANCH  24  26
ENDBRANCH   2  20
BRANCH   1  36
ATOM     36  C   UNL     1      -2.245  11.943  19.382  0.00  0.00    +0.000 C 
BRANCH  36  37
ATOM     37  C   UNL     1      -2.343  11.615  17.867  0.00  0.00    +0.000 C 
ATOM     38  C   UNL     1      -1.579  10.360  17.445  0.00  0.00    +0.000 C 
ATOM     39  C   UNL     1      -3.821  11.427  17.468  0.00  0.00    +0.000 C 
ENDBRANCH  36  37
ENDBRANCH   1  36
TORSDOF 9
ENDMDL
MODEL 9
REMARK VINA RESULT:      -7.1      1.071      1.215
REMARK  Name = 
REMARK  12 active torsions:
REMARK  status: ('A' for Active; 'I' for Inactive)
REMARK    1  A    between atoms: C_1  and  C_2
REMARK    2  A    between atoms: C_2  and  C_3
REMARK    3  A    between atoms: C_3  and  C_4
REMARK    4  A    between atoms: C_4  and  N_5
REMARK    5  A    between atoms: C_6  and  N_7
REMARK    6  A    between atoms: C_8  and  N_9
REMARK    7  A    between atoms: N_9  and  C_10
REMARK    8  A    between atoms: C_10  and  C_11
REMARK    9  A    between atoms: C_11  and  C_12
REMARK   10  A    between atoms: C_11  and  C_13
REMARK   11  A    between atoms: C_14  and  C_16
REMARK   12  A    between atoms: N_20  and  C_21
REMARK                            x       y       z     vdW  Elec       q    Type
REMARK                         _______ _______ _______ _____ _____    ______ ____
ROOT
ATOM      1  N   UNL     1      -0.041  10.559  19.981  0.00  0.00    +0.000 N 
ATOM      2  C   UNL     1       0.507  11.706  20.610  0.00  0.00    +0.000 C 
ATOM      3  O   UNL     1       1.583  11.674  21.213  0.00  0.00    +0.000 OA
ENDROOT
BRANCH   1   6
ATOM      4  N   UNL     1       2.037   7.598  19.203  0.00  0.00    +0.000 N 
ATOM      5  C   UNL     1       1.534   8.895  19.130  0.00  0.00    +0.000 A 
ATOM      6  C   UNL     1       0.689   9.354  20.086  0.00  0.00    +0.000 A 
ATOM      7  C   UNL     1       0.515   8.494  21.297  0.00  0.00    +0.000 A 
ATOM      8  O   UNL     1      -0.463   8.584  22.037  0.00  0.00    +0.000 OA
ATOM      9  N   UNL     1       1.482   7.559  21.487  0.00  0.00    +0.000 N 
ATOM     10  C   UNL     1       2.101   6.927  20.447  0.00  0.00    +0.000 A 
ATOM     11  O   UNL     1       2.617   5.837  20.645  0.00  0.00    +0.000 OA
ATOM     12  H   UNL     1       1.382   6.993  22.293  0.00  0.00    +0.000 HD
BRANCH   5  13
ATOM     13  N   UNL     1       1.859   9.744  18.083  0.00  0.00    +0.000 N 
ATOM     14  H   UNL     1       2.614  10.409  18.174  0.00  0.00    +0.000 HD
ATOM     15  H   UNL     1       1.090   9.990  17.461  0.00  0.00    +0.000 HD
ENDBRANCH   5  13
BRANCH   4  16
ATOM     16  C   UNL     1       2.595   6.937  18.005  0.00  0.00    +0.000 C 
BRANCH  16  17
ATOM     17  C   UNL     1       2.159   5.480  17.757  0.00  0.00    +0.000 C 
BRANCH  17  19
ATOM     18  C   UNL     1       2.986   3.109  17.659  0.00  0.00    +0.000 C 
ATOM     19  C   UNL     1       3.325   4.566  17.372  0.00  0.00    +0.000 C 
ENDBRANCH  17  19
ENDBRANCH  16  17
ENDBRANCH   4  16
ENDBRANCH   1   6
BRANCH   2  20
ATOM     20  C   UNL     1      -0.234  13.048  20.449  0.00  0.00    +0.000 C 
ATOM     21  C   UNL     1       0.187  14.135  21.437  0.00  0.00    +0.000 C 
ATOM     22  C   UNL     1      -0.801  14.030  22.580  0.00  0.00    +0.000 C 
ATOM     23  O   UNL     1      -0.650  14.583  23.658  0.00  0.00    +0.000 OA
ATOM     24  N   UNL     1      -1.903  13.322  22.105  0.00  0.00    +0.000 N 
ATOM     25  C   UNL     1      -1.706  12.902  20.733  0.00  0.00    +0.000 C 
BRANCH  24  26
ATOM     26  C   UNL     1      -3.141  13.099  22.756  0.00  0.00    +0.000 A 
ATOM     27  C   UNL     1      -3.283  12.658  24.084  0.00  0.00    +0.000 A 
ATOM     28  C   UNL     1      -4.561  12.350  24.599  0.00  0.00    +0.000 A 
ATOM     29  C   UNL     1      -5.692  12.491  23.797  0.00  0.00    +0.000 A 
ATOM     30  C   UNL     1      -5.551  13.058  22.543  0.00  0.00    +0.000 A 
ATOM     31  C   UNL     1      -4.304  13.331  22.025  0.00  0.00    +0.000 A 
ATOM     32  O   UNL     1      -6.607  13.315  21.714  0.00  0.00    +0.000 OA
ATOM     33  C   UNL     1      -7.448  12.176  21.786  0.00  0.00    +0.000 C 
ATOM     34  C   UNL     1      -7.916  11.957  23.221  0.00  0.00    +0.000 C 
ATOM     35  O   UNL     1      -6.894  12.014  24.239  0.00  0.00    +0.000 OA
ENDBRANCH  24  26
ENDBRANCH   2  20
BRANCH   1  36
ATOM     36  C   UNL     1      -1.378  10.587  19.325  0.00  0.00    +0.000 C 
BRANCH  36  37
ATOM     37  C   UNL     1      -1.583  10.471  17.790  0.00  0.00    +0.000 C 
ATOM     38  C   UNL     1      -2.815   9.665  17.380  0.00  0.00    +0.000 C 
ATOM     39  C   UNL     1      -1.709  11.877  17.172  0.00  0.00    +0.000 C 
ENDBRANCH  36  37
ENDBRANCH   1  36
TORSDOF 9
ENDMDL
