MODEL 1
REMARK VINA RESULT:      -6.7      0.000      0.000
REMARK  Name = 
REMARK  11 active torsions:
REMARK  status: ('A' for Active; 'I' for Inactive)
REMARK    1  A    between atoms: N_4  and  C_5
REMARK    2  A    between atoms: C_5  and  C_6
REMARK    3  A    between atoms: C_6  and  C_7
REMARK    4  A    between atoms: C_7  and  C_8
REMARK    5  A    between atoms: C_8  and  C_9
REMARK    6  A    between atoms: C_9  and  C_10
REMARK    7  A    between atoms: C_10  and  C_11
REMARK    8  A    between atoms: C_11  and  C_12
REMARK    9  A    between atoms: C_12  and  C_13
REMARK   10  A    between atoms: C_13  and  C_14
REMARK   11  A    between atoms: C_14  and  N_15
REMARK                            x       y       z     vdW  Elec       q    Type
REMARK                         _______ _______ _______ _____ _____    ______ ____
ROOT
ATOM      1  C   UNL     1       6.893   5.775  16.092  0.00  0.00    +0.000 C 
ENDROOT
BRANCH   1   2
ATOM      2  C   UNL     1       5.489   5.294  15.731  0.00  0.00    +0.000 C 
BRANCH   2   3
ATOM      3  C   UNL     1       5.118   3.951  16.355  0.00  0.00    +0.000 C 
BRANCH   3   4
ATOM      4  C   UNL     1       3.720   4.078  16.960  0.00  0.00    +0.000 C 
BRANCH   4   5
ATOM      5  C   UNL     1       3.718   4.713  18.343  0.00  0.00    +0.000 C 
BRANCH   5   9
ATOM      6  C   UNL     1       1.429   2.671  21.295  0.00  0.00    +0.000 A 
ATOM      7  C   UNL     1       2.813   2.607  21.278  0.00  0.00    +0.000 A 
ATOM      8  C   UNL     1       3.515   3.287  20.289  0.00  0.00    +0.000 A 
ATOM      9  N   UNL     1       2.873   4.013  19.347  0.00  0.00    +0.000 N 
ATOM     10  C   UNL     1       1.521   4.075  19.353  0.00  0.00    +0.000 A 
ATOM     11  C   UNL     1       0.774   3.415  20.323  0.00  0.00    +0.000 A 
ENDBRANCH   5   9
ENDBRANCH   4   5
ENDBRANCH   3   4
ENDBRANCH   2   3
ENDBRANCH   1   2
BRANCH   1  12
ATOM     12  C   UNL     1       7.327   5.276  17.478  0.00  0.00    +0.000 C 
BRANCH  12  13
ATOM     13  C   UNL     1       7.695   6.427  18.412  0.00  0.00    +0.000 C 
BRANCH  13  14
ATOM     14  C   UNL     1       7.718   7.782  17.708  0.00  0.00    +0.000 C 
BRANCH  14  15
ATOM     15  C   UNL     1       8.484   8.787  18.570  0.00  0.00    +0.000 C 
BRANCH  15  16
ATOM     16  C   UNL     1       8.723  10.092  17.834  0.00  0.00    +0.000 C 
BRANCH  16  17
ATOM     17  N   UNL     1       9.685  10.906  18.613  0.00  0.00    +0.000 N 
ATOM     18  C   UNL     1       9.568  10.979  19.958  0.00  0.00    +0.000 A 
ATOM     19  C   UNL     1      10.456  11.742  20.706  0.00  0.00    +0.000 A 
ATOM     20  C   UNL     1      11.471  12.435  20.057  0.00  0.00    +0.000 A 
ATOM     21  C   UNL     1      11.575  12.357  18.675  0.00  0.00    +0.000 A 
ATOM     22  C   UNL     1      10.665  11.581  17.966  0.00  0.00    +0.000 A 
ENDBRANCH  16  17
ENDBRANCH  15  16
ENDBRANCH  14  15
ENDBRANCH  13  14
ENDBRANCH  12  13
ENDBRANCH   1  12
TORSDOF 11
ENDMDL
MODEL 2
REMARK VINA RESULT:      -6.6      3.393      6.191
REMARK  Name = 
REMARK  11 active torsions:
REMARK  status: ('A' for Active; 'I' for Inactive)
REMARK    1  A    between atoms: N_4  and  C_5
REMARK    2  A    between atoms: C_5  and  C_6
REMARK    3  A    between atoms: C_6  and  C_7
REMARK    4  A    between atoms: C_7  and  C_8
REMARK    5  A    between atoms: C_8  and  C_9
REMARK    6  A    between atoms: C_9  and  C_10
REMARK    7  A    between atoms: C_10  and  C_11
REMARK    8  A    between atoms: C_11  and  C_12
REMARK    9  A    between atoms: C_12  and  C_13
REMARK   10  A    between atoms: C_13  and  C_14
REMARK   11  A    between atoms: C_14  and  N_15
REMARK                            x       y       z     vdW  Elec       q    Type
REMARK                         _______ _______ _______ _____ _____    ______ ____
ROOT
ATOM      1  C   UNL     1       2.136   2.490  19.914  0.00  0.00    +0.000 C 
ENDROOT
BRANCH   1   2
ATOM      2  C   UNL     1       1.004   3.320  20.518  0.00  0.00    +0.000 C 
BRANCH   2   3
ATOM      3  C   UNL     1       1.014   4.784  20.085  0.00  0.00    +0.000 C 
BRANCH   3   4
ATOM      4  C   UNL     1       2.334   5.406  20.542  0.00  0.00    +0.000 C 
BRANCH   4   5
ATOM      5  C   UNL     1       2.887   6.431  19.563  0.00  0.00    +0.000 C 
BRANCH   5   9
ATOM      6  C   UNL     1       0.784  10.125  19.318  0.00  0.00    +0.000 A 
ATOM      7  C   UNL     1       1.449   9.595  18.224  0.00  0.00    +0.000 A 
ATOM      8  C   UNL     1       2.126   8.388  18.356  0.00  0.00    +0.000 A 
ATOM      9  N   UNL     1       2.145   7.720  19.531  0.00  0.00    +0.000 N 
ATOM     10  C   UNL     1       1.504   8.236  20.607  0.00  0.00    +0.000 A 
ATOM     11  C   UNL     1       0.810   9.438  20.523  0.00  0.00    +0.000 A 
ENDBRANCH   5   9
ENDBRANCH   4   5
ENDBRANCH   3   4
ENDBRANCH   2   3
ENDBRANCH   1   2
BRANCH   1  12
ATOM     12  C   UNL     1       1.793   2.009  18.496  0.00  0.00    +0.000 C 
BRANCH  12  13
ATOM     13  C   UNL     1       2.450   2.876  17.423  0.00  0.00    +0.000 C 
BRANCH  13  14
ATOM     14  C   UNL     1       3.848   3.351  17.814  0.00  0.00    +0.000 C 
BRANCH  14  15
ATOM     15  C   UNL     1       4.402   4.252  16.710  0.00  0.00    +0.000 C 
BRANCH  15  16
ATOM     16  C   UNL     1       5.887   4.029  16.494  0.00  0.00    +0.000 C 
BRANCH  16  17
ATOM     17  N   UNL     1       6.637   5.075  17.228  0.00  0.00    +0.000 N 
ATOM     18  C   UNL     1       7.209   4.780  18.417  0.00  0.00    +0.000 A 
ATOM     19  C   UNL     1       7.911   5.748  19.125  0.00  0.00    +0.000 A 
ATOM     20  C   UNL     1       8.019   7.029  18.598  0.00  0.00    +0.000 A 
ATOM     21  C   UNL     1       7.421   7.320  17.380  0.00  0.00    +0.000 A 
ATOM     22  C   UNL     1       6.729   6.321  16.705  0.00  0.00    +0.000 A 
ENDBRANCH  16  17
ENDBRANCH  15  16
ENDBRANCH  14  15
ENDBRANCH  13  14
ENDBRANCH  12  13
ENDBRANCH   1  12
TORSDOF 11
ENDMDL
MODEL 3
REMARK VINA RESULT:      -6.4      1.096      9.932
REMARK  Name = 
REMARK  11 active torsions:
REMARK  status: ('A' for Active; 'I' for Inactive)
REMARK    1  A    between atoms: N_4  and  C_5
REMARK    2  A    between atoms: C_5  and  C_6
REMARK    3  A    between atoms: C_6  and  C_7
REMARK    4  A    between atoms: C_7  and  C_8
REMARK    5  A    between atoms: C_8  and  C_9
REMARK    6  A    between atoms: C_9  and  C_10
REMARK    7  A    between atoms: C_10  and  C_11
REMARK    8  A    between atoms: C_11  and  C_12
REMARK    9  A    between atoms: C_12  and  C_13
REMARK   10  A    between atoms: C_13  and  C_14
REMARK   11  A    between atoms: C_14  and  N_15
REMARK                            x       y       z     vdW  Elec       q    Type
REMARK                         _______ _______ _______ _____ _____    ______ ____
ROOT
ATOM      1  C   UNL     1       7.581   5.630  18.384  0.00  0.00    +0.000 C 
ENDROOT
BRANCH   1   2
ATOM      2  C   UNL     1       8.172   7.028  18.558  0.00  0.00    +0.000 C 
BRANCH   2   3
ATOM      3  C   UNL     1       7.504   8.092  17.691  0.00  0.00    +0.000 C 
BRANCH   3   4
ATOM      4  C   UNL     1       8.437   9.301  17.618  0.00  0.00    +0.000 C 
BRANCH   4   5
ATOM      5  C   UNL     1       8.846   9.828  18.985  0.00  0.00    +0.000 C 
BRANCH   5   9
ATOM      6  C   UNL     1      11.126  13.418  18.792  0.00  0.00    +0.000 A 
ATOM      7  C   UNL     1      10.032  13.209  17.968  0.00  0.00    +0.000 A 
ATOM      8  C   UNL     1       9.323  12.017  18.066  0.00  0.00    +0.000 A 
ATOM      9  N   UNL     1       9.679  11.060  18.951  0.00  0.00    +0.000 N 
ATOM     10  C   UNL     1      10.752  11.254  19.754  0.00  0.00    +0.000 A 
ATOM     11  C   UNL     1      11.491  12.431  19.696  0.00  0.00    +0.000 A 
ENDBRANCH   5   9
ENDBRANCH   4   5
ENDBRANCH   3   4
ENDBRANCH   2   3
ENDBRANCH   1   2
BRANCH   1  12
ATOM     12  C   UNL     1       6.357   5.413  19.286  0.00  0.00    +0.000 C 
BRANCH  12  13
ATOM     13  C   UNL     1       5.061   5.337  18.481  0.00  0.00    +0.000 C 
BRANCH  13  14
ATOM     14  C   UNL     1       5.120   4.311  17.351  0.00  0.00    +0.000 C 
BRANCH  14  15
ATOM     15  C   UNL     1       3.712   3.780  17.077  0.00  0.00    +0.000 C 
BRANCH  15  16
ATOM     16  C   UNL     1       3.465   2.456  17.776  0.00  0.00    +0.000 C 
BRANCH  16  17
ATOM     17  N   UNL     1       2.733   2.714  19.038  0.00  0.00    +0.000 N 
ATOM     18  C   UNL     1       1.473   3.205  18.994  0.00  0.00    +0.000 A 
ATOM     19  C   UNL     1       0.772   3.460  20.166  0.00  0.00    +0.000 A 
ATOM     20  C   UNL     1       1.379   3.207  21.390  0.00  0.00    +0.000 A 
ATOM     21  C   UNL     1       2.675   2.710  21.420  0.00  0.00    +0.000 A 
ATOM     22  C   UNL     1       3.339   2.468  20.223  0.00  0.00    +0.000 A 
ENDBRANCH  16  17
ENDBRANCH  15  16
ENDBRANCH  14  15
ENDBRANCH  13  14
ENDBRANCH  12  13
ENDBRANCH   1  12
TORSDOF 11
ENDMDL
MODEL 4
REMARK VINA RESULT:      -6.4      0.704      9.682
REMARK  Name = 
REMARK  11 active torsions:
REMARK  status: ('A' for Active; 'I' for Inactive)
REMARK    1  A    between atoms: N_4  and  C_5
REMARK    2  A    between atoms: C_5  and  C_6
REMARK    3  A    between atoms: C_6  and  C_7
REMARK    4  A    between atoms: C_7  and  C_8
REMARK    5  A    between atoms: C_8  and  C_9
REMARK    6  A    between atoms: C_9  and  C_10
REMARK    7  A    between atoms: C_10  and  C_11
REMARK    8  A    between atoms: C_11  and  C_12
REMARK    9  A    between atoms: C_12  and  C_13
REMARK   10  A    between atoms: C_13  and  C_14
REMARK   11  A    between atoms: C_14  and  N_15
REMARK                            x       y       z     vdW  Elec       q    Type
REMARK                         _______ _______ _______ _____ _____    ______ ____
ROOT
ATOM      1  C   UNL     1       5.796   6.470  17.736  0.00  0.00    +0.000 C 
ENDROOT
BRANCH   1   2
ATOM      2  C   UNL     1       7.294   6.712  17.911  0.00  0.00    +0.000 C 
BRANCH   2   3
ATOM      3  C   UNL     1       7.787   8.010  17.276  0.00  0.00    +0.000 C 
BRANCH   3   4
ATOM      4  C   UNL     1       8.411   8.871  18.375  0.00  0.00    +0.000 C 
BRANCH   4   5
ATOM      5  C   UNL     1       8.612  10.321  17.962  0.00  0.00    +0.000 C 
BRANCH   5   9
ATOM      6  C   UNL     1      11.828  12.237  19.990  0.00  0.00    +0.000 A 
ATOM      7  C   UNL     1      10.685  11.832  20.662  0.00  0.00    +0.000 A 
ATOM      8  C   UNL     1       9.661  11.216  19.953  0.00  0.00    +0.000 A 
ATOM      9  N   UNL     1       9.758  11.001  18.622  0.00  0.00    +0.000 N 
ATOM     10  C   UNL     1      10.869  11.400  17.958  0.00  0.00    +0.000 A 
ATOM     11  C   UNL     1      11.922  12.018  18.623  0.00  0.00    +0.000 A 
ENDBRANCH   5   9
ENDBRANCH   4   5
ENDBRANCH   3   4
ENDBRANCH   2   3
ENDBRANCH   1   2
BRANCH   1  12
ATOM     12  C   UNL     1       5.397   6.427  16.253  0.00  0.00    +0.000 C 
BRANCH  12  13
ATOM     13  C   UNL     1       5.272   4.995  15.736  0.00  0.00    +0.000 C 
BRANCH  13  14
ATOM     14  C   UNL     1       5.184   3.961  16.857  0.00  0.00    +0.000 C 
BRANCH  14  15
ATOM     15  C   UNL     1       3.762   3.401  16.917  0.00  0.00    +0.000 C 
BRANCH  15  16
ATOM     16  C   UNL     1       2.817   4.341  17.641  0.00  0.00    +0.000 C 
BRANCH  16  17
ATOM     17  N   UNL     1       2.538   3.789  18.988  0.00  0.00    +0.000 N 
ATOM     18  C   UNL     1       3.511   3.128  19.656  0.00  0.00    +0.000 A 
ATOM     19  C   UNL     1       3.268   2.597  20.917  0.00  0.00    +0.000 A 
ATOM     20  C   UNL     1       2.010   2.752  21.489  0.00  0.00    +0.000 A 
ATOM     21  C   UNL     1       1.020   3.427  20.788  0.00  0.00    +0.000 A 
ATOM     22  C   UNL     1       1.307   3.942  19.529  0.00  0.00    +0.000 A 
ENDBRANCH  16  17
ENDBRANCH  15  16
ENDBRANCH  14  15
ENDBRANCH  13  14
ENDBRANCH  12  13
ENDBRANCH   1  12
TORSDOF 11
ENDMDL
MODEL 5
REMARK VINA RESULT:      -6.4      4.895      7.794
REMARK  Name = 
REMARK  11 active torsions:
REMARK  status: ('A' for Active; 'I' for Inactive)
REMARK    1  A    between atoms: N_4  and  C_5
REMARK    2  A    between atoms: C_5  and  C_6
REMARK    3  A    between atoms: C_6  and  C_7
REMARK    4  A    between atoms: C_7  and  C_8
REMARK    5  A    between atoms: C_8  and  C_9
REMARK    6  A    between atoms: C_9  and  C_10
REMARK    7  A    between atoms: C_10  and  C_11
REMARK    8  A    between atoms: C_11  and  C_12
REMARK    9  A    between atoms: C_12  and  C_13
REMARK   10  A    between atoms: C_13  and  C_14
REMARK   11  A    between atoms: C_14  and  N_15
REMARK                            x       y       z     vdW  Elec       q    Type
REMARK                         _______ _______ _______ _____ _____    ______ ____
ROOT
ATOM      1  C   UNL     1       1.940   5.100  20.525  0.00  0.00    +0.000 C 
ENDROOT
BRANCH   1   2
ATOM      2  C   UNL     1       0.971   3.932  20.356  0.00  0.00    +0.000 C 
BRANCH   2   3
ATOM      3  C   UNL     1       1.249   3.073  19.125  0.00  0.00    +0.000 C 
BRANCH   3   4
ATOM      4  C   UNL     1       2.419   2.143  19.448  0.00  0.00    +0.000 C 
BRANCH   4   5
ATOM      5  C   UNL     1       3.430   2.035  18.317  0.00  0.00    +0.000 C 
BRANCH   5   9
ATOM      6  C   UNL     1       5.667   5.597  17.657  0.00  0.00    +0.000 A 
ATOM      7  C   UNL     1       5.707   4.930  18.871  0.00  0.00    +0.000 A 
ATOM      8  C   UNL     1       4.953   3.774  19.039  0.00  0.00    +0.000 A 
ATOM      9  N   UNL     1       4.186   3.286  18.039  0.00  0.00    +0.000 N 
ATOM     10  C   UNL     1       4.137   3.936  16.852  0.00  0.00    +0.000 A 
ATOM     11  C   UNL     1       4.875   5.095  16.635  0.00  0.00    +0.000 A 
ENDBRANCH   5   9
ENDBRANCH   4   5
ENDBRANCH   3   4
ENDBRANCH   2   3
ENDBRANCH   1   2
BRANCH   1  12
ATOM     12  C   UNL     1       2.107   5.893  19.220  0.00  0.00    +0.000 C 
BRANCH  12  13
ATOM     13  C   UNL     1       2.277   7.389  19.477  0.00  0.00    +0.000 C 
BRANCH  13  14
ATOM     14  C   UNL     1       2.635   8.174  18.217  0.00  0.00    +0.000 C 
BRANCH  14  15
ATOM     15  C   UNL     1       1.416   8.975  17.757  0.00  0.00    +0.000 C 
BRANCH  15  16
ATOM     16  C   UNL     1       1.316  10.309  18.473  0.00  0.00    +0.000 C 
BRANCH  16  17
ATOM     17  N   UNL     1      -0.106  10.722  18.511  0.00  0.00    +0.000 N 
ATOM     18  C   UNL     1      -1.026  10.024  17.807  0.00  0.00    +0.000 A 
ATOM     19  C   UNL     1      -2.365  10.399  17.825  0.00  0.00    +0.000 A 
ATOM     20  C   UNL     1      -2.751  11.504  18.574  0.00  0.00    +0.000 A 
ATOM     21  C   UNL     1      -1.794  12.216  19.285  0.00  0.00    +0.000 A 
ATOM     22  C   UNL     1      -0.467  11.805  19.240  0.00  0.00    +0.000 A 
ENDBRANCH  16  17
ENDBRANCH  15  16
ENDBRANCH  14  15
ENDBRANCH  13  14
ENDBRANCH  12  13
ENDBRANCH   1  12
TORSDOF 11
ENDMDL
MODEL 6
REMARK VINA RESULT:      -6.2      5.201      8.678
REMARK  Name = 
REMARK  11 active torsions:
REMARK  status: ('A' for Active; 'I' for Inactive)
REMARK    1  A    between atoms: N_4  and  C_5
REMARK    2  A    between atoms: C_5  and  C_6
REMARK    3  A    between atoms: C_6  and  C_7
REMARK    4  A    between atoms: C_7  and  C_8
REMARK    5  A    between atoms: C_8  and  C_9
REMARK    6  A    between atoms: C_9  and  C_10
REMARK    7  A    between atoms: C_10  and  C_11
REMARK    8  A    between atoms: C_11  and  C_12
REMARK    9  A    between atoms: C_12  and  C_13
REMARK   10  A    between atoms: C_13  and  C_14
REMARK   11  A    between atoms: C_14  and  N_15
REMARK                            x       y       z     vdW  Elec       q    Type
REMARK                         _______ _______ _______ _____ _____    ______ ____
ROOT
ATOM      1  C   UNL     1       3.079   7.811  17.670  0.00  0.00    +0.000 C 
ENDROOT
BRANCH   1   2
ATOM      2  C   UNL     1       2.130   8.400  18.712  0.00  0.00    +0.000 C 
BRANCH   2   3
ATOM      3  C   UNL     1       1.585   9.777  18.342  0.00  0.00    +0.000 C 
BRANCH   3   4
ATOM      4  C   UNL     1       0.074   9.653  18.141  0.00  0.00    +0.000 C 
BRANCH   4   5
ATOM      5  C   UNL     1      -0.727  10.641  18.975  0.00  0.00    +0.000 C 
BRANCH   5   9
ATOM      6  C   UNL     1      -0.543  10.159  23.202  0.00  0.00    +0.000 A 
ATOM      7  C   UNL     1      -0.745  11.401  22.622  0.00  0.00    +0.000 A 
ATOM      8  C   UNL     1      -0.792  11.507  21.236  0.00  0.00    +0.000 A 
ATOM      9  N   UNL     1      -0.647  10.421  20.444  0.00  0.00    +0.000 N 
ATOM     10  C   UNL     1      -0.442   9.206  21.004  0.00  0.00    +0.000 A 
ATOM     11  C   UNL     1      -0.391   9.048  22.385  0.00  0.00    +0.000 A 
ENDBRANCH   5   9
ENDBRANCH   4   5
ENDBRANCH   3   4
ENDBRANCH   2   3
ENDBRANCH   1   2
BRANCH   1  12
ATOM     12  C   UNL     1       3.307   6.309  17.894  0.00  0.00    +0.000 C 
BRANCH  12  13
ATOM     13  C   UNL     1       4.756   5.905  17.633  0.00  0.00    +0.000 C 
BRANCH  13  14
ATOM     14  C   UNL     1       4.993   4.404  17.776  0.00  0.00    +0.000 C 
BRANCH  14  15
ATOM     15  C   UNL     1       3.856   3.646  17.088  0.00  0.00    +0.000 C 
BRANCH  15  16
ATOM     16  C   UNL     1       3.511   2.363  17.821  0.00  0.00    +0.000 C 
BRANCH  16  17
ATOM     17  N   UNL     1       2.767   2.707  19.055  0.00  0.00    +0.000 N 
ATOM     18  C   UNL     1       3.318   2.452  20.264  0.00  0.00    +0.000 A 
ATOM     19  C   UNL     1       2.635   2.761  21.433  0.00  0.00    +0.000 A 
ATOM     20  C   UNL     1       1.372   3.335  21.351  0.00  0.00    +0.000 A 
ATOM     21  C   UNL     1       0.815   3.584  20.104  0.00  0.00    +0.000 A 
ATOM     22  C   UNL     1       1.535   3.260  18.959  0.00  0.00    +0.000 A 
ENDBRANCH  16  17
ENDBRANCH  15  16
ENDBRANCH  14  15
ENDBRANCH  13  14
ENDBRANCH  12  13
ENDBRANCH   1  12
TORSDOF 11
ENDMDL
MODEL 7
REMARK VINA RESULT:      -6.2      4.456      7.228
REMARK  Name = 
REMARK  11 active torsions:
REMARK  status: ('A' for Active; 'I' for Inactive)
REMARK    1  A    between atoms: N_4  and  C_5
REMARK    2  A    between atoms: C_5  and  C_6
REMARK    3  A    between atoms: C_6  and  C_7
REMARK    4  A    between atoms: C_7  and  C_8
REMARK    5  A    between atoms: C_8  and  C_9
REMARK    6  A    between atoms: C_9  and  C_10
REMARK    7  A    between atoms: C_10  and  C_11
REMARK    8  A    between atoms: C_11  and  C_12
REMARK    9  A    between atoms: C_12  and  C_13
REMARK   10  A    between atoms: C_13  and  C_14
REMARK   11  A    between atoms: C_14  and  N_15
REMARK                            x       y       z     vdW  Elec       q    Type
REMARK                         _______ _______ _______ _____ _____    ______ ____
ROOT
ATOM      1  C   UNL     1       1.133   4.291  19.588  0.00  0.00    +0.000 C 
ENDROOT
BRANCH   1   2
ATOM      2  C   UNL     1       1.812   5.231  20.583  0.00  0.00    +0.000 C 
BRANCH   2   3
ATOM      3  C   UNL     1       2.081   6.627  20.027  0.00  0.00    +0.000 C 
BRANCH   3   4
ATOM      4  C   UNL     1       1.516   7.649  21.014  0.00  0.00    +0.000 C 
BRANCH   4   5
ATOM      5  C   UNL     1       1.122   8.964  20.358  0.00  0.00    +0.000 C 
BRANCH   5   9
ATOM      6  C   UNL     1      -1.022  11.739  22.772  0.00  0.00    +0.000 A 
ATOM      7  C   UNL     1      -0.369  12.136  21.616  0.00  0.00    +0.000 A 
ATOM      8  C   UNL     1       0.322  11.193  20.865  0.00  0.00    +0.000 A 
ATOM      9  N   UNL     1       0.367   9.895  21.239  0.00  0.00    +0.000 N 
ATOM     10  C   UNL     1      -0.262   9.501  22.372  0.00  0.00    +0.000 A 
ATOM     11  C   UNL     1      -0.970  10.407  23.155  0.00  0.00    +0.000 A 
ENDBRANCH   5   9
ENDBRANCH   4   5
ENDBRANCH   3   4
ENDBRANCH   2   3
ENDBRANCH   1   2
BRANCH   1  12
ATOM     12  C   UNL     1       1.535   2.827  19.824  0.00  0.00    +0.000 C 
BRANCH  12  13
ATOM     13  C   UNL     1       2.075   2.171  18.555  0.00  0.00    +0.000 C 
BRANCH  13  14
ATOM     14  C   UNL     1       3.590   1.981  18.580  0.00  0.00    +0.000 C 
BRANCH  14  15
ATOM     15  C   UNL     1       4.267   3.253  18.066  0.00  0.00    +0.000 C 
BRANCH  15  16
ATOM     16  C   UNL     1       4.953   4.016  19.184  0.00  0.00    +0.000 C 
BRANCH  16  17
ATOM     17  N   UNL     1       5.746   5.118  18.590  0.00  0.00    +0.000 N 
ATOM     18  C   UNL     1       5.240   5.825  17.554  0.00  0.00    +0.000 A 
ATOM     19  C   UNL     1       5.970   6.858  16.979  0.00  0.00    +0.000 A 
ATOM     20  C   UNL     1       7.232   7.159  17.479  0.00  0.00    +0.000 A 
ATOM     21  C   UNL     1       7.741   6.420  18.537  0.00  0.00    +0.000 A 
ATOM     22  C   UNL     1       6.976   5.395  19.083  0.00  0.00    +0.000 A 
ENDBRANCH  16  17
ENDBRANCH  15  16
ENDBRANCH  14  15
ENDBRANCH  13  14
ENDBRANCH  12  13
ENDBRANCH   1  12
TORSDOF 11
ENDMDL
MODEL 8
REMARK VINA RESULT:      -6.2      5.045      6.806
REMARK  Name = 
REMARK  11 active torsions:
REMARK  status: ('A' for Active; 'I' for Inactive)
REMARK    1  A    between atoms: N_4  and  C_5
REMARK    2  A    between atoms: C_5  and  C_6
REMARK    3  A    between atoms: C_6  and  C_7
REMARK    4  A    between atoms: C_7  and  C_8
REMARK    5  A    between atoms: C_8  and  C_9
REMARK    6  A    between atoms: C_9  and  C_10
REMARK    7  A    between atoms: C_10  and  C_11
REMARK    8  A    between atoms: C_11  and  C_12
REMARK    9  A    between atoms: C_12  and  C_13
REMARK   10  A    between atoms: C_13  and  C_14
REMARK   11  A    between atoms: C_14  and  N_15
REMARK                            x       y       z     vdW  Elec       q    Type
REMARK                         _______ _______ _______ _____ _____    ______ ____
ROOT
ATOM      1  C   UNL     1       1.454   5.419  20.638  0.00  0.00    +0.000 C 
ENDROOT
BRANCH   1   2
ATOM      2  C   UNL     1       1.797   3.945  20.850  0.00  0.00    +0.000 C 
BRANCH   2   3
ATOM      3  C   UNL     1       0.923   2.987  20.045  0.00  0.00    +0.000 C 
BRANCH   3   4
ATOM      4  C   UNL     1       1.566   2.797  18.671  0.00  0.00    +0.000 C 
BRANCH   4   5
ATOM      5  C   UNL     1       3.004   2.305  18.743  0.00  0.00    +0.000 C 
BRANCH   5   9
ATOM      6  C   UNL     1       5.949   4.929  17.140  0.00  0.00    +0.000 A 
ATOM      7  C   UNL     1       5.934   4.590  18.483  0.00  0.00    +0.000 A 
ATOM      8  C   UNL     1       4.948   3.733  18.959  0.00  0.00    +0.000 A 
ATOM      9  N   UNL     1       4.005   3.223  18.136  0.00  0.00    +0.000 N 
ATOM     10  C   UNL     1       4.009   3.556  16.824  0.00  0.00    +0.000 A 
ATOM     11  C   UNL     1       4.976   4.406  16.299  0.00  0.00    +0.000 A 
ENDBRANCH   5   9
ENDBRANCH   4   5
ENDBRANCH   3   4
ENDBRANCH   2   3
ENDBRANCH   1   2
BRANCH   1  12
ATOM     12  C   UNL     1       2.586   6.167  19.917  0.00  0.00    +0.000 C 
BRANCH  12  13
ATOM     13  C   UNL     1       2.244   6.452  18.456  0.00  0.00    +0.000 C 
BRANCH  13  14
ATOM     14  C   UNL     1       3.278   7.335  17.762  0.00  0.00    +0.000 C 
BRANCH  14  15
ATOM     15  C   UNL     1       2.774   8.779  17.736  0.00  0.00    +0.000 C 
BRANCH  15  16
ATOM     16  C   UNL     1       1.277   8.856  17.974  0.00  0.00    +0.000 C 
BRANCH  16  17
ATOM     17  N   UNL     1       1.021   9.815  19.074  0.00  0.00    +0.000 N 
ATOM     18  C   UNL     1       0.577   9.362  20.269  0.00  0.00    +0.000 A 
ATOM     19  C   UNL     1       0.325  10.245  21.312  0.00  0.00    +0.000 A 
ATOM     20  C   UNL     1       0.531  11.605  21.115  0.00  0.00    +0.000 A 
ATOM     21  C   UNL     1       0.979  12.057  19.881  0.00  0.00    +0.000 A 
ATOM     22  C   UNL     1       1.220  11.138  18.866  0.00  0.00    +0.000 A 
ENDBRANCH  16  17
ENDBRANCH  15  16
ENDBRANCH  14  15
ENDBRANCH  13  14
ENDBRANCH  12  13
ENDBRANCH   1  12
TORSDOF 11
ENDMDL
MODEL 9
REMARK VINA RESULT:      -6.2      1.224      2.051
REMARK  Name = 
REMARK  11 active torsions:
REMARK  status: ('A' for Active; 'I' for Inactive)
REMARK    1  A    between atoms: N_4  and  C_5
REMARK    2  A    between atoms: C_5  and  C_6
REMARK    3  A    between atoms: C_6  and  C_7
REMARK    4  A    between atoms: C_7  and  C_8
REMARK    5  A    between atoms: C_8  and  C_9
REMARK    6  A    between atoms: C_9  and  C_10
REMARK    7  A    between atoms: C_10  and  C_11
REMARK    8  A    between atoms: C_11  and  C_12
REMARK    9  A    between atoms: C_12  and  C_13
REMARK   10  A    between atoms: C_13  and  C_14
REMARK   11  A    between atoms: C_14  and  N_15
REMARK                            x       y       z     vdW  Elec       q    Type
REMARK                         _______ _______ _______ _____ _____    ______ ____
ROOT
ATOM      1  C   UNL     1       7.190   5.738  18.550  0.00  0.00    +0.000 C 
ENDROOT
BRANCH   1   2
ATOM      2  C   UNL     1       7.341   4.944  17.253  0.00  0.00    +0.000 C 
BRANCH   2   3
ATOM      3  C   UNL     1       6.037   4.328  16.752  0.00  0.00    +0.000 C 
BRANCH   3   4
ATOM      4  C   UNL     1       4.984   4.483  17.851  0.00  0.00    +0.000 C 
BRANCH   4   5
ATOM      5  C   UNL     1       3.874   3.446  17.770  0.00  0.00    +0.000 C 
BRANCH   5   9
ATOM      6  C   UNL     1       1.351   3.195  21.191  0.00  0.00    +0.000 A 
ATOM      7  C   UNL     1       0.927   3.802  20.020  0.00  0.00    +0.000 A 
ATOM      8  C   UNL     1       1.791   3.864  18.933  0.00  0.00    +0.000 A 
ATOM      9  N   UNL     1       3.035   3.340  18.994  0.00  0.00    +0.000 N 
ATOM     10  C   UNL     1       3.459   2.751  20.137  0.00  0.00    +0.000 A 
ATOM     11  C   UNL     1       2.631   2.662  21.251  0.00  0.00    +0.000 A 
ENDBRANCH   5   9
ENDBRANCH   4   5
ENDBRANCH   3   4
ENDBRANCH   2   3
ENDBRANCH   1   2
BRANCH   1  12
ATOM     12  C   UNL     1       8.081   6.989  18.557  0.00  0.00    +0.000 C 
BRANCH  12  13
ATOM     13  C   UNL     1       7.439   8.152  17.804  0.00  0.00    +0.000 C 
BRANCH  13  14
ATOM     14  C   UNL     1       8.366   9.358  17.666  0.00  0.00    +0.000 C 
BRANCH  14  15
ATOM     15  C   UNL     1       8.933   9.719  19.040  0.00  0.00    +0.000 C 
BRANCH  15  16
ATOM     16  C   UNL     1       9.985  10.807  18.946  0.00  0.00    +0.000 C 
BRANCH  16  17
ATOM     17  N   UNL     1       9.798  11.748  20.075  0.00  0.00    +0.000 N 
ATOM     18  C   UNL     1       9.040  11.382  21.133  0.00  0.00    +0.000 A 
ATOM     19  C   UNL     1       8.846  12.251  22.200  0.00  0.00    +0.000 A 
ATOM     20  C   UNL     1       9.441  13.507  22.169  0.00  0.00    +0.000 A 
ATOM     21  C   UNL     1      10.210  13.872  21.073  0.00  0.00    +0.000 A 
ATOM     22  C   UNL     1      10.378  12.971  20.028  0.00  0.00    +0.000 A 
ENDBRANCH  16  17
ENDBRANCH  15  16
ENDBRANCH  14  15
ENDBRANCH  13  14
ENDBRANCH  12  13
ENDBRANCH   1  12
TORSDOF 11
ENDMDL
