MODEL 1
REMARK VINA RESULT:      -8.4      0.000      0.000
REMARK  Name = 
REMARK  8 active torsions:
REMARK  status: ('A' for Active; 'I' for Inactive)
REMARK    1  A    between atoms: C_1  and  C_2
REMARK    2  A    between atoms: N_4  and  C_5
REMARK    3  A    between atoms: N_4  and  C_6
REMARK    4  A    between atoms: C_6  and  C_7
REMARK    5  A    between atoms: C_11  and  N_12
REMARK    6  A    between atoms: C_13  and  C_15
REMARK    7  A    between atoms: C_18  and  C_19
REMARK    8  A    between atoms: C_22  and  C_23
REMARK                            x       y       z     vdW  Elec       q    Type
REMARK                         _______ _______ _______ _____ _____    ______ ____
ROOT
ATOM      1  N   UNL     1       2.131   7.800  19.151  0.00  0.00    +0.000 N 
ATOM      2  C   UNL     1       1.549   7.711  20.406  0.00  0.00    +0.000 C 
ATOM      3  O   UNL     1       1.568   6.724  21.135  0.00  0.00    +0.000 OA
ATOM      4  H   UNL     1       2.014   8.667  18.644  0.00  0.00    +0.000 HD
ENDROOT
BRANCH   1   9
ATOM      5  C   UNL     1       5.780   4.470  16.010  0.00  0.00    +0.000 A 
ATOM      6  C   UNL     1       5.695   5.771  16.462  0.00  0.00    +0.000 A 
ATOM      7  N   UNL     1       4.541   5.837  17.198  0.00  0.00    +0.000 N 
ATOM      8  C   UNL     1       3.968   6.927  17.836  0.00  0.00    +0.000 A 
ATOM      9  C   UNL     1       2.794   6.789  18.485  0.00  0.00    +0.000 A 
ATOM     10  C   UNL     1       2.178   5.457  18.493  0.00  0.00    +0.000 A 
ATOM     11  C   UNL     1       2.752   4.401  17.881  0.00  0.00    +0.000 A 
ATOM     12  C   UNL     1       3.984   4.568  17.190  0.00  0.00    +0.000 A 
ATOM     13  N   UNL     1       4.715   3.728  16.491  0.00  0.00    +0.000 NA
BRANCH   5  14
ATOM     14  C   UNL     1       6.797   3.881  15.079  0.00  0.00    +0.000 C 
BRANCH  14  18
ATOM     15  C   UNL     1       7.481   5.574  11.734  0.00  0.00    +0.000 C 
ATOM     16  C   UNL     1       7.549   5.205  13.193  0.00  0.00    +0.000 C 
ATOM     17  O   UNL     1       8.379   5.745  13.925  0.00  0.00    +0.000 OA
ATOM     18  N   UNL     1       6.656   4.245  13.662  0.00  0.00    +0.000 N 
ATOM     19  C   UNL     1       5.667   3.563  12.834  0.00  0.00    +0.000 C 
ENDBRANCH  14  18
ENDBRANCH   5  14
ENDBRANCH   1   9
BRANCH   2  20
ATOM     20  C   UNL     1       0.798   8.901  20.885  0.00  0.00    +0.000 A 
ATOM     21  C   UNL     1       0.584   8.993  22.263  0.00  0.00    +0.000 A 
ATOM     22  C   UNL     1      -0.109  10.076  22.802  0.00  0.00    +0.000 A 
ATOM     23  C   UNL     1      -0.586  11.120  21.994  0.00  0.00    +0.000 A 
ATOM     24  C   UNL     1      -0.348  11.020  20.608  0.00  0.00    +0.000 A 
ATOM     25  C   UNL     1       0.332   9.921  20.053  0.00  0.00    +0.000 A 
BRANCH  23  26
ATOM     26  C   UNL     1      -1.302  12.267  22.601  0.00  0.00    +0.000 A 
ATOM     27  C   UNL     1      -2.552  12.091  23.228  0.00  0.00    +0.000 A 
ATOM     28  C   UNL     1      -3.269  13.167  23.759  0.00  0.00    +0.000 A 
ATOM     29  C   UNL     1      -2.747  14.462  23.704  0.00  0.00    +0.000 A 
ATOM     30  C   UNL     1      -1.497  14.654  23.102  0.00  0.00    +0.000 A 
ATOM     31  C   UNL     1      -0.791  13.573  22.555  0.00  0.00    +0.000 A 
BRANCH  29  32
ATOM     32  C   UNL     1      -3.506  15.629  24.282  0.00  0.00    +0.000 C 
ATOM     33  F   UNL     1      -3.613  15.591  25.641  0.00  0.00    +0.000 F 
ATOM     34  F   UNL     1      -2.923  16.825  23.990  0.00  0.00    +0.000 F 
ATOM     35  F   UNL     1      -4.781  15.710  23.812  0.00  0.00    +0.000 F 
ENDBRANCH  29  32
ENDBRANCH  23  26
ENDBRANCH   2  20
TORSDOF 6
ENDMDL
MODEL 2
REMARK VINA RESULT:      -8.3      0.714      1.001
REMARK  Name = 
REMARK  8 active torsions:
REMARK  status: ('A' for Active; 'I' for Inactive)
REMARK    1  A    between atoms: C_1  and  C_2
REMARK    2  A    between atoms: N_4  and  C_5
REMARK    3  A    between atoms: N_4  and  C_6
REMARK    4  A    between atoms: C_6  and  C_7
REMARK    5  A    between atoms: C_11  and  N_12
REMARK    6  A    between atoms: C_13  and  C_15
REMARK    7  A    between atoms: C_18  and  C_19
REMARK    8  A    between atoms: C_22  and  C_23
REMARK                            x       y       z     vdW  Elec       q    Type
REMARK                         _______ _______ _______ _____ _____    ______ ____
ROOT
ATOM      1  N   UNL     1       1.977   8.234  19.204  0.00  0.00    +0.000 N 
ATOM      2  C   UNL     1       1.418   8.131  20.468  0.00  0.00    +0.000 C 
ATOM      3  O   UNL     1       1.536   7.172  21.225  0.00  0.00    +0.000 OA
ATOM      4  H   UNL     1       1.775   9.071  18.673  0.00  0.00    +0.000 HD
ENDROOT
BRANCH   1   9
ATOM      5  C   UNL     1       5.974   5.134  16.257  0.00  0.00    +0.000 A 
ATOM      6  C   UNL     1       5.810   6.414  16.745  0.00  0.00    +0.000 A 
ATOM      7  N   UNL     1       4.599   6.418  17.388  0.00  0.00    +0.000 N 
ATOM      8  C   UNL     1       3.941   7.466  18.014  0.00  0.00    +0.000 A 
ATOM      9  C   UNL     1       2.724   7.269  18.560  0.00  0.00    +0.000 A 
ATOM     10  C   UNL     1       2.153   5.920  18.472  0.00  0.00    +0.000 A 
ATOM     11  C   UNL     1       2.809   4.905  17.873  0.00  0.00    +0.000 A 
ATOM     12  C   UNL     1       4.087   5.134  17.291  0.00  0.00    +0.000 A 
ATOM     13  N   UNL     1       4.899   4.343  16.625  0.00  0.00    +0.000 NA
BRANCH   5  14
ATOM     14  C   UNL     1       7.081   4.610  15.393  0.00  0.00    +0.000 C 
BRANCH  14  18
ATOM     15  C   UNL     1       7.445   5.090  11.630  0.00  0.00    +0.000 C 
ATOM     16  C   UNL     1       7.673   5.191  13.115  0.00  0.00    +0.000 C 
ATOM     17  O   UNL     1       8.624   5.845  13.548  0.00  0.00    +0.000 OA
ATOM     18  N   UNL     1       6.785   4.525  13.956  0.00  0.00    +0.000 N 
ATOM     19  C   UNL     1       5.657   3.724  13.494  0.00  0.00    +0.000 C 
ENDBRANCH  14  18
ENDBRANCH   5  14
ENDBRANCH   1   9
BRANCH   2  20
ATOM     20  C   UNL     1       0.564   9.261  20.921  0.00  0.00    +0.000 A 
ATOM     21  C   UNL     1       0.213   9.276  22.273  0.00  0.00    +0.000 A 
ATOM     22  C   UNL     1      -0.582  10.299  22.788  0.00  0.00    +0.000 A 
ATOM     23  C   UNL     1      -1.031  11.358  21.982  0.00  0.00    +0.000 A 
ATOM     24  C   UNL     1      -0.655  11.335  20.624  0.00  0.00    +0.000 A 
ATOM     25  C   UNL     1       0.131  10.297  20.092  0.00  0.00    +0.000 A 
BRANCH  23  26
ATOM     26  C   UNL     1      -1.860  12.440  22.564  0.00  0.00    +0.000 A 
ATOM     27  C   UNL     1      -3.243  12.513  22.304  0.00  0.00    +0.000 A 
ATOM     28  C   UNL     1      -4.033  13.555  22.798  0.00  0.00    +0.000 A 
ATOM     29  C   UNL     1      -3.469  14.554  23.596  0.00  0.00    +0.000 A 
ATOM     30  C   UNL     1      -2.099  14.488  23.882  0.00  0.00    +0.000 A 
ATOM     31  C   UNL     1      -1.309  13.450  23.368  0.00  0.00    +0.000 A 
BRANCH  29  32
ATOM     32  C   UNL     1      -4.311  15.677  24.145  0.00  0.00    +0.000 C 
ATOM     33  F   UNL     1      -4.391  16.755  23.314  0.00  0.00    +0.000 F 
ATOM     34  F   UNL     1      -5.597  15.296  24.381  0.00  0.00    +0.000 F 
ATOM     35  F   UNL     1      -3.838  16.156  25.328  0.00  0.00    +0.000 F 
ENDBRANCH  29  32
ENDBRANCH  23  26
ENDBRANCH   2  20
TORSDOF 6
ENDMDL
MODEL 3
REMARK VINA RESULT:      -8.1      6.948     13.256
REMARK  Name = 
REMARK  8 active torsions:
REMARK  status: ('A' for Active; 'I' for Inactive)
REMARK    1  A    between atoms: C_1  and  C_2
REMARK    2  A    between atoms: N_4  and  C_5
REMARK    3  A    between atoms: N_4  and  C_6
REMARK    4  A    between atoms: C_6  and  C_7
REMARK    5  A    between atoms: C_11  and  N_12
REMARK    6  A    between atoms: C_13  and  C_15
REMARK    7  A    between atoms: C_18  and  C_19
REMARK    8  A    between atoms: C_22  and  C_23
REMARK                            x       y       z     vdW  Elec       q    Type
REMARK                         _______ _______ _______ _____ _____    ______ ____
ROOT
ATOM      1  N   UNL     1      -0.506  11.017  20.494  0.00  0.00    +0.000 N 
ATOM      2  C   UNL     1      -0.104   9.752  20.895  0.00  0.00    +0.000 C 
ATOM      3  O   UNL     1      -0.425   9.198  21.942  0.00  0.00    +0.000 OA
ATOM      4  H   UNL     1      -0.142  11.365  19.618  0.00  0.00    +0.000 HD
ENDROOT
BRANCH   1   9
ATOM      5  C   UNL     1      -4.700  14.550  22.542  0.00  0.00    +0.000 A 
ATOM      6  C   UNL     1      -4.495  13.694  21.480  0.00  0.00    +0.000 A 
ATOM      7  N   UNL     1      -3.249  13.156  21.668  0.00  0.00    +0.000 N 
ATOM      8  C   UNL     1      -2.544  12.271  20.865  0.00  0.00    +0.000 A 
ATOM      9  C   UNL     1      -1.300  11.887  21.213  0.00  0.00    +0.000 A 
ATOM     10  C   UNL     1      -0.749  12.430  22.461  0.00  0.00    +0.000 A 
ATOM     11  C   UNL     1      -1.449  13.279  23.241  0.00  0.00    +0.000 A 
ATOM     12  C   UNL     1      -2.756  13.683  22.851  0.00  0.00    +0.000 A 
ATOM     13  N   UNL     1      -3.614  14.515  23.399  0.00  0.00    +0.000 NA
BRANCH   5  14
ATOM     14  C   UNL     1      -5.862  15.469  22.776  0.00  0.00    +0.000 C 
BRANCH  14  18
ATOM     15  C   UNL     1      -7.768  16.801  19.756  0.00  0.00    +0.000 C 
ATOM     16  C   UNL     1      -7.319  15.918  20.891  0.00  0.00    +0.000 C 
ATOM     17  O   UNL     1      -7.916  14.866  21.124  0.00  0.00    +0.000 OA
ATOM     18  N   UNL     1      -6.228  16.338  21.648  0.00  0.00    +0.000 N 
ATOM     19  C   UNL     1      -5.500  17.582  21.425  0.00  0.00    +0.000 C 
ENDBRANCH  14  18
ENDBRANCH   5  14
ENDBRANCH   1   9
BRANCH   2  20
ATOM     20  C   UNL     1       0.837   9.029  19.998  0.00  0.00    +0.000 A 
ATOM     21  C   UNL     1       1.502   7.929  20.545  0.00  0.00    +0.000 A 
ATOM     22  C   UNL     1       2.400   7.190  19.777  0.00  0.00    +0.000 A 
ATOM     23  C   UNL     1       2.645   7.500  18.430  0.00  0.00    +0.000 A 
ATOM     24  C   UNL     1       1.954   8.603  17.889  0.00  0.00    +0.000 A 
ATOM     25  C   UNL     1       1.061   9.367  18.662  0.00  0.00    +0.000 A 
BRANCH  23  26
ATOM     26  C   UNL     1       3.592   6.682  17.635  0.00  0.00    +0.000 A 
ATOM     27  C   UNL     1       3.617   5.279  17.759  0.00  0.00    +0.000 A 
ATOM     28  C   UNL     1       4.539   4.493  17.061  0.00  0.00    +0.000 A 
ATOM     29  C   UNL     1       5.456   5.084  16.189  0.00  0.00    +0.000 A 
ATOM     30  C   UNL     1       5.434   6.477  16.038  0.00  0.00    +0.000 A 
ATOM     31  C   UNL     1       4.519   7.261  16.755  0.00  0.00    +0.000 A 
BRANCH  29  32
ATOM     32  C   UNL     1       6.448   4.248  15.422  0.00  0.00    +0.000 C 
ATOM     33  F   UNL     1       6.008   2.984  15.159  0.00  0.00    +0.000 F 
ATOM     34  F   UNL     1       6.761   4.789  14.212  0.00  0.00    +0.000 F 
ATOM     35  F   UNL     1       7.630   4.100  16.082  0.00  0.00    +0.000 F 
ENDBRANCH  29  32
ENDBRANCH  23  26
ENDBRANCH   2  20
TORSDOF 6
ENDMDL
MODEL 4
REMARK VINA RESULT:      -8.1      0.765      1.283
REMARK  Name = 
REMARK  8 active torsions:
REMARK  status: ('A' for Active; 'I' for Inactive)
REMARK    1  A    between atoms: C_1  and  C_2
REMARK    2  A    between atoms: N_4  and  C_5
REMARK    3  A    between atoms: N_4  and  C_6
REMARK    4  A    between atoms: C_6  and  C_7
REMARK    5  A    between atoms: C_11  and  N_12
REMARK    6  A    between atoms: C_13  and  C_15
REMARK    7  A    between atoms: C_18  and  C_19
REMARK    8  A    between atoms: C_22  and  C_23
REMARK                            x       y       z     vdW  Elec       q    Type
REMARK                         _______ _______ _______ _____ _____    ______ ____
ROOT
ATOM      1  N   UNL     1       2.082   7.846  19.153  0.00  0.00    +0.000 N 
ATOM      2  C   UNL     1       1.543   7.704  20.422  0.00  0.00    +0.000 C 
ATOM      3  O   UNL     1       1.659   6.717  21.142  0.00  0.00    +0.000 OA
ATOM      4  H   UNL     1       1.884   8.704  18.656  0.00  0.00    +0.000 HD
ENDROOT
BRANCH   1   9
ATOM      5  C   UNL     1       5.994   4.798  16.043  0.00  0.00    +0.000 A 
ATOM      6  C   UNL     1       5.858   6.060  16.585  0.00  0.00    +0.000 A 
ATOM      7  N   UNL     1       4.654   6.059  17.238  0.00  0.00    +0.000 N 
ATOM      8  C   UNL     1       4.021   7.092  17.914  0.00  0.00    +0.000 A 
ATOM      9  C   UNL     1       2.806   6.895  18.463  0.00  0.00    +0.000 A 
ATOM     10  C   UNL     1       2.209   5.561  18.324  0.00  0.00    +0.000 A 
ATOM     11  C   UNL     1       2.840   4.560  17.677  0.00  0.00    +0.000 A 
ATOM     12  C   UNL     1       4.116   4.790  17.093  0.00  0.00    +0.000 A 
ATOM     13  N   UNL     1       4.908   4.012  16.388  0.00  0.00    +0.000 NA
BRANCH   5  14
ATOM     14  C   UNL     1       7.083   4.291  15.147  0.00  0.00    +0.000 C 
BRANCH  14  18
ATOM     15  C   UNL     1       7.585   5.456  11.552  0.00  0.00    +0.000 C 
ATOM     16  C   UNL     1       7.744   5.296  13.042  0.00  0.00    +0.000 C 
ATOM     17  O   UNL     1       8.642   5.899  13.632  0.00  0.00    +0.000 OA
ATOM     18  N   UNL     1       6.854   4.454  13.704  0.00  0.00    +0.000 N 
ATOM     19  C   UNL     1       5.787   3.705  13.050  0.00  0.00    +0.000 C 
ENDBRANCH  14  18
ENDBRANCH   5  14
ENDBRANCH   1   9
BRANCH   2  20
ATOM     20  C   UNL     1       0.712   8.828  20.930  0.00  0.00    +0.000 A 
ATOM     21  C   UNL     1       0.260   9.750  19.983  0.00  0.00    +0.000 A 
ATOM     22  C   UNL     1      -0.528  10.834  20.369  0.00  0.00    +0.000 A 
ATOM     23  C   UNL     1      -0.918  11.022  21.704  0.00  0.00    +0.000 A 
ATOM     24  C   UNL     1      -0.466  10.074  22.644  0.00  0.00    +0.000 A 
ATOM     25  C   UNL     1       0.345   8.988  22.268  0.00  0.00    +0.000 A 
BRANCH  23  26
ATOM     26  C   UNL     1      -1.771  12.175  22.077  0.00  0.00    +0.000 A 
ATOM     27  C   UNL     1      -2.332  12.274  23.366  0.00  0.00    +0.000 A 
ATOM     28  C   UNL     1      -3.184  13.324  23.722  0.00  0.00    +0.000 A 
ATOM     29  C   UNL     1      -3.486  14.332  22.803  0.00  0.00    +0.000 A 
ATOM     30  C   UNL     1      -2.922  14.261  21.522  0.00  0.00    +0.000 A 
ATOM     31  C   UNL     1      -2.083  13.196  21.166  0.00  0.00    +0.000 A 
BRANCH  29  32
ATOM     32  C   UNL     1      -4.394  15.476  23.177  0.00  0.00    +0.000 C 
ATOM     33  F   UNL     1      -5.708  15.243  22.898  0.00  0.00    +0.000 F 
ATOM     34  F   UNL     1      -4.344  15.768  24.506  0.00  0.00    +0.000 F 
ATOM     35  F   UNL     1      -4.076  16.630  22.528  0.00  0.00    +0.000 F 
ENDBRANCH  29  32
ENDBRANCH  23  26
ENDBRANCH   2  20
TORSDOF 6
ENDMDL
MODEL 5
REMARK VINA RESULT:      -8.1      6.852     13.251
REMARK  Name = 
REMARK  8 active torsions:
REMARK  status: ('A' for Active; 'I' for Inactive)
REMARK    1  A    between atoms: C_1  and  C_2
REMARK    2  A    between atoms: N_4  and  C_5
REMARK    3  A    between atoms: N_4  and  C_6
REMARK    4  A    between atoms: C_6  and  C_7
REMARK    5  A    between atoms: C_11  and  N_12
REMARK    6  A    between atoms: C_13  and  C_15
REMARK    7  A    between atoms: C_18  and  C_19
REMARK    8  A    between atoms: C_22  and  C_23
REMARK                            x       y       z     vdW  Elec       q    Type
REMARK                         _______ _______ _______ _____ _____    ______ ____
ROOT
ATOM      1  N   UNL     1      -0.168  11.040  20.774  0.00  0.00    +0.000 N 
ATOM      2  C   UNL     1       0.112   9.777  21.271  0.00  0.00    +0.000 C 
ATOM      3  O   UNL     1      -0.248   9.342  22.361  0.00  0.00    +0.000 OA
ATOM      4  H   UNL     1       0.216  11.281  19.870  0.00  0.00    +0.000 HD
ENDROOT
BRANCH   1   9
ATOM      5  C   UNL     1      -4.148  14.538  23.263  0.00  0.00    +0.000 A 
ATOM      6  C   UNL     1      -4.094  13.303  22.650  0.00  0.00    +0.000 A 
ATOM      7  N   UNL     1      -2.776  13.098  22.337  0.00  0.00    +0.000 N 
ATOM      8  C   UNL     1      -2.187  12.033  21.672  0.00  0.00    +0.000 A 
ATOM      9  C   UNL     1      -0.861  12.040  21.427  0.00  0.00    +0.000 A 
ATOM     10  C   UNL     1      -0.091  13.196  21.901  0.00  0.00    +0.000 A 
ATOM     11  C   UNL     1      -0.673  14.219  22.560  0.00  0.00    +0.000 A 
ATOM     12  C   UNL     1      -2.075  14.201  22.798  0.00  0.00    +0.000 A 
ATOM     13  N   UNL     1      -2.877  15.075  23.367  0.00  0.00    +0.000 NA
BRANCH   5  14
ATOM     14  C   UNL     1      -5.363  15.290  23.718  0.00  0.00    +0.000 C 
BRANCH  14  18
ATOM     15  C   UNL     1      -7.022  17.248  20.900  0.00  0.00    +0.000 C 
ATOM     16  C   UNL     1      -6.095  16.861  22.022  0.00  0.00    +0.000 C 
ATOM     17  O   UNL     1      -5.168  17.608  22.339  0.00  0.00    +0.000 OA
ATOM     18  N   UNL     1      -6.325  15.648  22.666  0.00  0.00    +0.000 N 
ATOM     19  C   UNL     1      -7.396  14.720  22.318  0.00  0.00    +0.000 C 
ENDBRANCH  14  18
ENDBRANCH   5  14
ENDBRANCH   1   9
BRANCH   2  20
ATOM     20  C   UNL     1       0.963   8.895  20.429  0.00  0.00    +0.000 A 
ATOM     21  C   UNL     1       1.297   9.375  19.160  0.00  0.00    +0.000 A 
ATOM     22  C   UNL     1       2.094   8.617  18.303  0.00  0.00    +0.000 A 
ATOM     23  C   UNL     1       2.610   7.370  18.689  0.00  0.00    +0.000 A 
ATOM     24  C   UNL     1       2.276   6.908  19.978  0.00  0.00    +0.000 A 
ATOM     25  C   UNL     1       1.457   7.657  20.842  0.00  0.00    +0.000 A 
BRANCH  23  26
ATOM     26  C   UNL     1       3.469   6.597  17.760  0.00  0.00    +0.000 A 
ATOM     27  C   UNL     1       3.472   5.189  17.778  0.00  0.00    +0.000 A 
ATOM     28  C   UNL     1       4.315   4.442  16.949  0.00  0.00    +0.000 A 
ATOM     29  C   UNL     1       5.171   5.081  16.050  0.00  0.00    +0.000 A 
ATOM     30  C   UNL     1       5.168   6.481  16.004  0.00  0.00    +0.000 A 
ATOM     31  C   UNL     1       4.334   7.225  16.851  0.00  0.00    +0.000 A 
BRANCH  29  32
ATOM     32  C   UNL     1       6.077   4.288  15.143  0.00  0.00    +0.000 C 
ATOM     33  F   UNL     1       6.047   2.946  15.380  0.00  0.00    +0.000 F 
ATOM     34  F   UNL     1       5.758   4.438  13.827  0.00  0.00    +0.000 F 
ATOM     35  F   UNL     1       7.383   4.656  15.256  0.00  0.00    +0.000 F 
ENDBRANCH  29  32
ENDBRANCH  23  26
ENDBRANCH   2  20
TORSDOF 6
ENDMDL
MODEL 6
REMARK VINA RESULT:      -8.1      1.368      1.715
REMARK  Name = 
REMARK  8 active torsions:
REMARK  status: ('A' for Active; 'I' for Inactive)
REMARK    1  A    between atoms: C_1  and  C_2
REMARK    2  A    between atoms: N_4  and  C_5
REMARK    3  A    between atoms: N_4  and  C_6
REMARK    4  A    between atoms: C_6  and  C_7
REMARK    5  A    between atoms: C_11  and  N_12
REMARK    6  A    between atoms: C_13  and  C_15
REMARK    7  A    between atoms: C_18  and  C_19
REMARK    8  A    between atoms: C_22  and  C_23
REMARK                            x       y       z     vdW  Elec       q    Type
REMARK                         _______ _______ _______ _____ _____    ______ ____
ROOT
ATOM      1  N   UNL     1       1.804   7.901  19.042  0.00  0.00    +0.000 N 
ATOM      2  C   UNL     1       1.481   9.137  18.505  0.00  0.00    +0.000 C 
ATOM      3  O   UNL     1       1.868   9.570  17.424  0.00  0.00    +0.000 OA
ATOM      4  H   UNL     1       1.438   7.682  19.959  0.00  0.00    +0.000 HD
ENDROOT
BRANCH   1   9
ATOM      5  C   UNL     1       5.999   4.962  16.208  0.00  0.00    +0.000 A 
ATOM      6  C   UNL     1       5.671   6.269  16.506  0.00  0.00    +0.000 A 
ATOM      7  N   UNL     1       4.531   6.205  17.264  0.00  0.00    +0.000 N 
ATOM      8  C   UNL     1       3.765   7.237  17.786  0.00  0.00    +0.000 A 
ATOM      9  C   UNL     1       2.643   6.960  18.480  0.00  0.00    +0.000 A 
ATOM     10  C   UNL     1       2.291   5.547  18.663  0.00  0.00    +0.000 A 
ATOM     11  C   UNL     1       3.052   4.552  18.163  0.00  0.00    +0.000 A 
ATOM     12  C   UNL     1       4.225   4.863  17.421  0.00  0.00    +0.000 A 
ATOM     13  N   UNL     1       5.098   4.097  16.805  0.00  0.00    +0.000 NA
BRANCH   5  14
ATOM     14  C   UNL     1       7.104   4.467  15.324  0.00  0.00    +0.000 C 
BRANCH  14  18
ATOM     15  C   UNL     1       7.547   5.263  11.623  0.00  0.00    +0.000 C 
ATOM     16  C   UNL     1       7.747   5.233  13.116  0.00  0.00    +0.000 C 
ATOM     17  O   UNL     1       8.697   5.834  13.620  0.00  0.00    +0.000 OA
ATOM     18  N   UNL     1       6.835   4.509  13.879  0.00  0.00    +0.000 N 
ATOM     19  C   UNL     1       5.706   3.766  13.330  0.00  0.00    +0.000 C 
ENDBRANCH  14  18
ENDBRANCH   5  14
ENDBRANCH   1   9
BRANCH   2  20
ATOM     20  C   UNL     1       0.633  10.032  19.337  0.00  0.00    +0.000 A 
ATOM     21  C   UNL     1      -0.463  10.622  18.703  0.00  0.00    +0.000 A 
ATOM     22  C   UNL     1      -1.315  11.473  19.406  0.00  0.00    +0.000 A 
ATOM     23  C   UNL     1      -1.123  11.743  20.770  0.00  0.00    +0.000 A 
ATOM     24  C   UNL     1      -0.022  11.127  21.398  0.00  0.00    +0.000 A 
ATOM     25  C   UNL     1       0.854  10.283  20.692  0.00  0.00    +0.000 A 
BRANCH  23  26
ATOM     26  C   UNL     1      -2.059  12.638  21.493  0.00  0.00    +0.000 A 
ATOM     27  C   UNL     1      -2.737  12.197  22.646  0.00  0.00    +0.000 A 
ATOM     28  C   UNL     1      -3.664  13.006  23.311  0.00  0.00    +0.000 A 
ATOM     29  C   UNL     1      -3.928  14.300  22.857  0.00  0.00    +0.000 A 
ATOM     30  C   UNL     1      -3.249  14.763  21.722  0.00  0.00    +0.000 A 
ATOM     31  C   UNL     1      -2.334  13.941  21.050  0.00  0.00    +0.000 A 
BRANCH  29  32
ATOM     32  C   UNL     1      -4.918  15.186  23.571  0.00  0.00    +0.000 C 
ATOM     33  F   UNL     1      -5.882  14.496  24.243  0.00  0.00    +0.000 F 
ATOM     34  F   UNL     1      -4.324  15.990  24.496  0.00  0.00    +0.000 F 
ATOM     35  F   UNL     1      -5.581  16.019  22.722  0.00  0.00    +0.000 F 
ENDBRANCH  29  32
ENDBRANCH  23  26
ENDBRANCH   2  20
TORSDOF 6
ENDMDL
MODEL 7
REMARK VINA RESULT:      -8.1      0.741      1.238
REMARK  Name = 
REMARK  8 active torsions:
REMARK  status: ('A' for Active; 'I' for Inactive)
REMARK    1  A    between atoms: C_1  and  C_2
REMARK    2  A    between atoms: N_4  and  C_5
REMARK    3  A    between atoms: N_4  and  C_6
REMARK    4  A    between atoms: C_6  and  C_7
REMARK    5  A    between atoms: C_11  and  N_12
REMARK    6  A    between atoms: C_13  and  C_15
REMARK    7  A    between atoms: C_18  and  C_19
REMARK    8  A    between atoms: C_22  and  C_23
REMARK                            x       y       z     vdW  Elec       q    Type
REMARK                         _______ _______ _______ _____ _____    ______ ____
ROOT
ATOM      1  N   UNL     1       2.078   7.910  19.174  0.00  0.00    +0.000 N 
ATOM      2  C   UNL     1       1.552   7.783  20.449  0.00  0.00    +0.000 C 
ATOM      3  O   UNL     1       1.659   6.796  21.172  0.00  0.00    +0.000 OA
ATOM      4  H   UNL     1       1.890   8.770  18.676  0.00  0.00    +0.000 HD
ENDROOT
BRANCH   1   9
ATOM      5  C   UNL     1       5.916   4.770  16.063  0.00  0.00    +0.000 A 
ATOM      6  C   UNL     1       5.818   6.028  16.621  0.00  0.00    +0.000 A 
ATOM      7  N   UNL     1       4.607   6.060  17.261  0.00  0.00    +0.000 N 
ATOM      8  C   UNL     1       4.003   7.106  17.944  0.00  0.00    +0.000 A 
ATOM      9  C   UNL     1       2.776   6.944  18.478  0.00  0.00    +0.000 A 
ATOM     10  C   UNL     1       2.135   5.633  18.316  0.00  0.00    +0.000 A 
ATOM     11  C   UNL     1       2.738   4.620  17.662  0.00  0.00    +0.000 A 
ATOM     12  C   UNL     1       4.028   4.813  17.094  0.00  0.00    +0.000 A 
ATOM     13  N   UNL     1       4.799   4.017  16.386  0.00  0.00    +0.000 NA
BRANCH   5  14
ATOM     14  C   UNL     1       6.997   4.236  15.172  0.00  0.00    +0.000 C 
BRANCH  14  18
ATOM     15  C   UNL     1       7.523   5.389  11.577  0.00  0.00    +0.000 C 
ATOM     16  C   UNL     1       7.675   5.231  13.068  0.00  0.00    +0.000 C 
ATOM     17  O   UNL     1       8.576   5.826  13.659  0.00  0.00    +0.000 OA
ATOM     18  N   UNL     1       6.774   4.399  13.728  0.00  0.00    +0.000 N 
ATOM     19  C   UNL     1       5.702   3.659  13.071  0.00  0.00    +0.000 C 
ENDBRANCH  14  18
ENDBRANCH   5  14
ENDBRANCH   1   9
BRANCH   2  20
ATOM     20  C   UNL     1       0.748   8.923  20.963  0.00  0.00    +0.000 A 
ATOM     21  C   UNL     1       0.298   9.848  20.018  0.00  0.00    +0.000 A 
ATOM     22  C   UNL     1      -0.466  10.947  20.409  0.00  0.00    +0.000 A 
ATOM     23  C   UNL     1      -0.833  11.149  21.749  0.00  0.00    +0.000 A 
ATOM     24  C   UNL     1      -0.384  10.198  22.687  0.00  0.00    +0.000 A 
ATOM     25  C   UNL     1       0.403   9.097  22.305  0.00  0.00    +0.000 A 
BRANCH  23  26
ATOM     26  C   UNL     1      -1.661  12.319  22.128  0.00  0.00    +0.000 A 
ATOM     27  C   UNL     1      -2.786  12.688  21.364  0.00  0.00    +0.000 A 
ATOM     28  C   UNL     1      -3.548  13.819  21.672  0.00  0.00    +0.000 A 
ATOM     29  C   UNL     1      -3.226  14.610  22.777  0.00  0.00    +0.000 A 
ATOM     30  C   UNL     1      -2.122  14.247  23.560  0.00  0.00    +0.000 A 
ATOM     31  C   UNL     1      -1.351  13.123  23.236  0.00  0.00    +0.000 A 
BRANCH  29  32
ATOM     32  C   UNL     1      -4.046  15.826  23.127  0.00  0.00    +0.000 C 
ATOM     33  F   UNL     1      -3.296  16.897  23.514  0.00  0.00    +0.000 F 
ATOM     34  F   UNL     1      -4.802  16.262  22.082  0.00  0.00    +0.000 F 
ATOM     35  F   UNL     1      -4.916  15.593  24.148  0.00  0.00    +0.000 F 
ENDBRANCH  29  32
ENDBRANCH  23  26
ENDBRANCH   2  20
TORSDOF 6
ENDMDL
MODEL 8
REMARK VINA RESULT:      -8.0      1.228      1.737
REMARK  Name = 
REMARK  8 active torsions:
REMARK  status: ('A' for Active; 'I' for Inactive)
REMARK    1  A    between atoms: C_1  and  C_2
REMARK    2  A    between atoms: N_4  and  C_5
REMARK    3  A    between atoms: N_4  and  C_6
REMARK    4  A    between atoms: C_6  and  C_7
REMARK    5  A    between atoms: C_11  and  N_12
REMARK    6  A    between atoms: C_13  and  C_15
REMARK    7  A    between atoms: C_18  and  C_19
REMARK    8  A    between atoms: C_22  and  C_23
REMARK                            x       y       z     vdW  Elec       q    Type
REMARK                         _______ _______ _______ _____ _____    ______ ____
ROOT
ATOM      1  N   UNL     1       1.923   7.828  18.950  0.00  0.00    +0.000 N 
ATOM      2  C   UNL     1       1.624   9.086  18.449  0.00  0.00    +0.000 C 
ATOM      3  O   UNL     1       1.966   9.518  17.352  0.00  0.00    +0.000 OA
ATOM      4  H   UNL     1       1.602   7.611  19.884  0.00  0.00    +0.000 HD
ENDROOT
BRANCH   1   9
ATOM      5  C   UNL     1       5.935   4.741  16.010  0.00  0.00    +0.000 A 
ATOM      6  C   UNL     1       5.733   6.038  16.435  0.00  0.00    +0.000 A 
ATOM      7  N   UNL     1       4.550   6.027  17.126  0.00  0.00    +0.000 N 
ATOM      8  C   UNL     1       3.871   7.079  17.722  0.00  0.00    +0.000 A 
ATOM      9  C   UNL     1       2.687   6.862  18.328  0.00  0.00    +0.000 A 
ATOM     10  C   UNL     1       2.173   5.487  18.337  0.00  0.00    +0.000 A 
ATOM     11  C   UNL     1       2.850   4.469  17.766  0.00  0.00    +0.000 A 
ATOM     12  C   UNL     1       4.092   4.719  17.120  0.00  0.00    +0.000 A 
ATOM     13  N   UNL     1       4.911   3.927  16.465  0.00  0.00    +0.000 NA
BRANCH   5  14
ATOM     14  C   UNL     1       7.029   4.217  15.130  0.00  0.00    +0.000 C 
BRANCH  14  18
ATOM     15  C   UNL     1       7.566   5.393  11.544  0.00  0.00    +0.000 C 
ATOM     16  C   UNL     1       7.705   5.235  13.036  0.00  0.00    +0.000 C 
ATOM     17  O   UNL     1       8.583   5.853  13.640  0.00  0.00    +0.000 OA
ATOM     18  N   UNL     1       6.820   4.378  13.684  0.00  0.00    +0.000 N 
ATOM     19  C   UNL     1       5.776   3.610  13.013  0.00  0.00    +0.000 C 
ENDBRANCH  14  18
ENDBRANCH   5  14
ENDBRANCH   1   9
BRANCH   2  20
ATOM     20  C   UNL     1       0.865  10.003  19.340  0.00  0.00    +0.000 A 
ATOM     21  C   UNL     1       0.575  11.271  18.831  0.00  0.00    +0.000 A 
ATOM     22  C   UNL     1      -0.136  12.196  19.595  0.00  0.00    +0.000 A 
ATOM     23  C   UNL     1      -0.607  11.881  20.880  0.00  0.00    +0.000 A 
ATOM     24  C   UNL     1      -0.319  10.592  21.371  0.00  0.00    +0.000 A 
ATOM     25  C   UNL     1       0.414   9.660  20.615  0.00  0.00    +0.000 A 
BRANCH  23  26
ATOM     26  C   UNL     1      -1.376  12.882  21.658  0.00  0.00    +0.000 A 
ATOM     27  C   UNL     1      -2.384  13.654  21.049  0.00  0.00    +0.000 A 
ATOM     28  C   UNL     1      -3.083  14.641  21.752  0.00  0.00    +0.000 A 
ATOM     29  C   UNL     1      -2.814  14.873  23.103  0.00  0.00    +0.000 A 
ATOM     30  C   UNL     1      -1.829  14.101  23.731  0.00  0.00    +0.000 A 
ATOM     31  C   UNL     1      -1.118  13.125  23.016  0.00  0.00    +0.000 A 
BRANCH  29  32
ATOM     32  C   UNL     1      -3.568  15.926  23.874  0.00  0.00    +0.000 C 
ATOM     33  F   UNL     1      -4.542  16.543  23.147  0.00  0.00    +0.000 F 
ATOM     34  F   UNL     1      -4.192  15.419  24.974  0.00  0.00    +0.000 F 
ATOM     35  F   UNL     1      -2.758  16.921  24.329  0.00  0.00    +0.000 F 
ENDBRANCH  29  32
ENDBRANCH  23  26
ENDBRANCH   2  20
TORSDOF 6
ENDMDL
MODEL 9
REMARK VINA RESULT:      -8.0      1.166      1.443
REMARK  Name = 
REMARK  8 active torsions:
REMARK  status: ('A' for Active; 'I' for Inactive)
REMARK    1  A    between atoms: C_1  and  C_2
REMARK    2  A    between atoms: N_4  and  C_5
REMARK    3  A    between atoms: N_4  and  C_6
REMARK    4  A    between atoms: C_6  and  C_7
REMARK    5  A    between atoms: C_11  and  N_12
REMARK    6  A    between atoms: C_13  and  C_15
REMARK    7  A    between atoms: C_18  and  C_19
REMARK    8  A    between atoms: C_22  and  C_23
REMARK                            x       y       z     vdW  Elec       q    Type
REMARK                         _______ _______ _______ _____ _____    ______ ____
ROOT
ATOM      1  N   UNL     1       2.191   7.796  19.175  0.00  0.00    +0.000 N 
ATOM      2  C   UNL     1       1.541   8.898  18.641  0.00  0.00    +0.000 C 
ATOM      3  O   UNL     1       1.448   9.164  17.446  0.00  0.00    +0.000 OA
ATOM      4  H   UNL     1       2.217   7.714  20.182  0.00  0.00    +0.000 HD
ENDROOT
BRANCH   1   9
ATOM      5  C   UNL     1       5.967   4.662  15.984  0.00  0.00    +0.000 A 
ATOM      6  C   UNL     1       5.875   5.922  16.537  0.00  0.00    +0.000 A 
ATOM      7  N   UNL     1       4.682   5.951  17.208  0.00  0.00    +0.000 N 
ATOM      8  C   UNL     1       4.088   6.996  17.900  0.00  0.00    +0.000 A 
ATOM      9  C   UNL     1       2.876   6.830  18.466  0.00  0.00    +0.000 A 
ATOM     10  C   UNL     1       2.240   5.514  18.328  0.00  0.00    +0.000 A 
ATOM     11  C   UNL     1       2.833   4.501  17.665  0.00  0.00    +0.000 A 
ATOM     12  C   UNL     1       4.106   4.699  17.063  0.00  0.00    +0.000 A 
ATOM     13  N   UNL     1       4.864   3.904  16.340  0.00  0.00    +0.000 NA
BRANCH   5  14
ATOM     14  C   UNL     1       7.028   4.130  15.068  0.00  0.00    +0.000 C 
BRANCH  14  18
ATOM     15  C   UNL     1       7.580   5.509  11.558  0.00  0.00    +0.000 C 
ATOM     16  C   UNL     1       7.717   5.261  13.037  0.00  0.00    +0.000 C 
ATOM     17  O   UNL     1       8.605   5.829  13.675  0.00  0.00    +0.000 OA
ATOM     18  N   UNL     1       6.820   4.379  13.634  0.00  0.00    +0.000 N 
ATOM     19  C   UNL     1       5.765   3.668  12.921  0.00  0.00    +0.000 C 
ENDBRANCH  14  18
ENDBRANCH   5  14
ENDBRANCH   1   9
BRANCH   2  20
ATOM     20  C   UNL     1       0.952   9.864  19.605  0.00  0.00    +0.000 A 
ATOM     21  C   UNL     1       1.388  11.188  19.510  0.00  0.00    +0.000 A 
ATOM     22  C   UNL     1       0.887  12.163  20.372  0.00  0.00    +0.000 A 
ATOM     23  C   UNL     1      -0.087  11.862  21.337  0.00  0.00    +0.000 A 
ATOM     24  C   UNL     1      -0.527  10.525  21.409  0.00  0.00    +0.000 A 
ATOM     25  C   UNL     1      -0.013   9.531  20.558  0.00  0.00    +0.000 A 
BRANCH  23  26
ATOM     26  C   UNL     1      -0.613  12.926  22.225  0.00  0.00    +0.000 A 
ATOM     27  C   UNL     1      -1.705  12.682  23.080  0.00  0.00    +0.000 A 
ATOM     28  C   UNL     1      -2.251  13.687  23.886  0.00  0.00    +0.000 A 
ATOM     29  C   UNL     1      -1.704  14.972  23.882  0.00  0.00    +0.000 A 
ATOM     30  C   UNL     1      -0.605  15.229  23.052  0.00  0.00    +0.000 A 
ATOM     31  C   UNL     1      -0.073  14.222  22.234  0.00  0.00    +0.000 A 
BRANCH  29  32
ATOM     32  C   UNL     1      -2.276  16.061  24.753  0.00  0.00    +0.000 C 
ATOM     33  F   UNL     1      -1.792  16.051  26.028  0.00  0.00    +0.000 F 
ATOM     34  F   UNL     1      -2.015  17.307  24.268  0.00  0.00    +0.000 F 
ATOM     35  F   UNL     1      -3.630  15.981  24.870  0.00  0.00    +0.000 F 
ENDBRANCH  29  32
ENDBRANCH  23  26
ENDBRANCH   2  20
TORSDOF 6
ENDMDL
