MODEL 1
REMARK VINA RESULT:      -7.4      0.000      0.000
REMARK  Name = 
REMARK  8 active torsions:
REMARK  status: ('A' for Active; 'I' for Inactive)
REMARK    1  A    between atoms: C_1  and  C_2
REMARK    2  A    between atoms: C_2  and  C_3
REMARK    3  A    between atoms: N_5  and  C_6
REMARK    4  A    between atoms: C_9  and  C_10
REMARK    5  A    between atoms: C_16  and  C_17
REMARK    6  A    between atoms: C_17  and  O_19
REMARK    7  A    between atoms: O_19  and  C_20
REMARK    8  A    between atoms: N_21  and  C_22
REMARK                            x       y       z     vdW  Elec       q    Type
REMARK                         _______ _______ _______ _____ _____    ______ ____
ROOT
ATOM      1  C   UNL     1       3.430   6.501  17.695  0.00  0.00    +0.000 C 
ATOM      2  C   UNL     1       4.945   6.850  17.704  0.00  0.00    +0.000 C 
ATOM      3  C   UNL     1       5.782   5.761  16.973  0.00  0.00    +0.000 C 
ATOM      4  C   UNL     1       6.252   4.604  17.881  0.00  0.00    +0.000 C 
ATOM      5  C   UNL     1       5.244   3.469  17.655  0.00  0.00    +0.000 C 
ATOM      6  C   UNL     1       4.098   4.179  16.938  0.00  0.00    +0.000 C 
ATOM      7  C   UNL     1       3.298   5.002  18.007  0.00  0.00    +0.000 C 
ATOM      8  N   UNL     1       4.844   5.114  16.046  0.00  0.00    +0.000 NA
ATOM      9  C   UNL     1       5.499   4.512  14.893  0.00  0.00    +0.000 C 
ENDROOT
BRANCH   1  13
ATOM     10  C   UNL     1       0.850   9.201  19.879  0.00  0.00    +0.000 A 
ATOM     11  C   UNL     1       1.142   9.391  18.532  0.00  0.00    +0.000 A 
ATOM     12  C   UNL     1       1.993   8.522  17.861  0.00  0.00    +0.000 A 
ATOM     13  C   UNL     1       2.584   7.438  18.522  0.00  0.00    +0.000 A 
ATOM     14  C   UNL     1       2.334   7.270  19.887  0.00  0.00    +0.000 A 
ATOM     15  C   UNL     1       1.481   8.155  20.567  0.00  0.00    +0.000 A 
BRANCH  10  18
ATOM     16  C   UNL     1       0.287  11.224  21.188  0.00  0.00    +0.000 C 
ATOM     17  O   UNL     1       1.386  11.765  21.152  0.00  0.00    +0.000 OA
ATOM     18  N   UNL     1      -0.061  10.028  20.574  0.00  0.00    +0.000 N 
ATOM     19  H   UNL     1      -1.043   9.807  20.497  0.00  0.00    +0.000 HD
BRANCH  16  21
ATOM     20  C   UNL     1      -1.289  10.967  23.104  0.00  0.00    +0.000 C 
ATOM     21  C   UNL     1      -0.867  11.859  21.945  0.00  0.00    +0.000 C 
ENDBRANCH  16  21
ENDBRANCH  10  18
ENDBRANCH   1  13
BRANCH   7  22
ATOM     22  C   UNL     1       1.882   4.509  18.184  0.00  0.00    +0.000 C 
ATOM     23  O   UNL     1       1.077   4.485  17.257  0.00  0.00    +0.000 OA
BRANCH  22  24
ATOM     24  O   UNL     1       1.622   4.110  19.453  0.00  0.00    +0.000 OA
ATOM     25  C   UNL     1       1.944   2.744  19.731  0.00  0.00    +0.000 C 
ENDBRANCH  22  24
ENDBRANCH   7  22
TORSDOF 5
ENDMDL
MODEL 2
REMARK VINA RESULT:      -7.2      0.269      1.015
REMARK  Name = 
REMARK  8 active torsions:
REMARK  status: ('A' for Active; 'I' for Inactive)
REMARK    1  A    between atoms: C_1  and  C_2
REMARK    2  A    between atoms: C_2  and  C_3
REMARK    3  A    between atoms: N_5  and  C_6
REMARK    4  A    between atoms: C_9  and  C_10
REMARK    5  A    between atoms: C_16  and  C_17
REMARK    6  A    between atoms: C_17  and  O_19
REMARK    7  A    between atoms: O_19  and  C_20
REMARK    8  A    between atoms: N_21  and  C_22
REMARK                            x       y       z     vdW  Elec       q    Type
REMARK                         _______ _______ _______ _____ _____    ______ ____
ROOT
ATOM      1  C   UNL     1       3.334   6.658  17.719  0.00  0.00    +0.000 C 
ATOM      2  C   UNL     1       4.823   7.097  17.799  0.00  0.00    +0.000 C 
ATOM      3  C   UNL     1       5.761   6.040  17.148  0.00  0.00    +0.000 C 
ATOM      4  C   UNL     1       6.247   4.938  18.115  0.00  0.00    +0.000 C 
ATOM      5  C   UNL     1       5.320   3.740  17.869  0.00  0.00    +0.000 C 
ATOM      6  C   UNL     1       4.177   4.360  17.071  0.00  0.00    +0.000 C 
ATOM      7  C   UNL     1       3.273   5.163  18.070  0.00  0.00    +0.000 C 
ATOM      8  N   UNL     1       4.916   5.313  16.192  0.00  0.00    +0.000 NA
ATOM      9  C   UNL     1       5.667   4.720  15.094  0.00  0.00    +0.000 C 
ENDROOT
BRANCH   1  13
ATOM     10  C   UNL     1       0.792   9.264  20.057  0.00  0.00    +0.000 A 
ATOM     11  C   UNL     1       1.480   8.200  20.630  0.00  0.00    +0.000 A 
ATOM     12  C   UNL     1       2.271   7.364  19.852  0.00  0.00    +0.000 A 
ATOM     13  C   UNL     1       2.390   7.565  18.471  0.00  0.00    +0.000 A 
ATOM     14  C   UNL     1       1.663   8.602  17.880  0.00  0.00    +0.000 A 
ATOM     15  C   UNL     1       0.856   9.441  18.667  0.00  0.00    +0.000 A 
BRANCH  10  18
ATOM     16  C   UNL     1       0.483  11.421  21.229  0.00  0.00    +0.000 C 
ATOM     17  O   UNL     1       1.548  11.942  20.917  0.00  0.00    +0.000 OA
ATOM     18  N   UNL     1       0.031  10.171  20.828  0.00  0.00    +0.000 N 
ATOM     19  H   UNL     1      -0.945   9.955  20.972  0.00  0.00    +0.000 HD
BRANCH  16  21
ATOM     20  C   UNL     1      -1.261  11.148  22.990  0.00  0.00    +0.000 C 
ATOM     21  C   UNL     1      -0.501  12.147  22.129  0.00  0.00    +0.000 C 
ENDBRANCH  16  21
ENDBRANCH  10  18
ENDBRANCH   1  13
BRANCH   7  22
ATOM     22  C   UNL     1       1.880   4.591  18.186  0.00  0.00    +0.000 C 
ATOM     23  O   UNL     1       1.123   4.511  17.222  0.00  0.00    +0.000 OA
BRANCH  22  24
ATOM     24  O   UNL     1       1.581   4.192  19.447  0.00  0.00    +0.000 OA
ATOM     25  C   UNL     1       2.012   2.868  19.775  0.00  0.00    +0.000 C 
ENDBRANCH  22  24
ENDBRANCH   7  22
TORSDOF 5
ENDMDL
MODEL 3
REMARK VINA RESULT:      -6.9      1.265      1.322
REMARK  Name = 
REMARK  8 active torsions:
REMARK  status: ('A' for Active; 'I' for Inactive)
REMARK    1  A    between atoms: C_1  and  C_2
REMARK    2  A    between atoms: C_2  and  C_3
REMARK    3  A    between atoms: N_5  and  C_6
REMARK    4  A    between atoms: C_9  and  C_10
REMARK    5  A    between atoms: C_16  and  C_17
REMARK    6  A    between atoms: C_17  and  O_19
REMARK    7  A    between atoms: O_19  and  C_20
REMARK    8  A    between atoms: N_21  and  C_22
REMARK                            x       y       z     vdW  Elec       q    Type
REMARK                         _______ _______ _______ _____ _____    ______ ____
ROOT
ATOM      1  C   UNL     1       3.475   6.408  17.774  0.00  0.00    +0.000 C 
ATOM      2  C   UNL     1       5.005   6.655  17.902  0.00  0.00    +0.000 C 
ATOM      3  C   UNL     1       5.820   5.429  17.397  0.00  0.00    +0.000 C 
ATOM      4  C   UNL     1       6.107   4.366  18.479  0.00  0.00    +0.000 C 
ATOM      5  C   UNL     1       5.040   3.282  18.282  0.00  0.00    +0.000 C 
ATOM      6  C   UNL     1       4.028   3.971  17.370  0.00  0.00    +0.000 C 
ATOM      7  C   UNL     1       3.196   4.973  18.245  0.00  0.00    +0.000 C 
ATOM      8  N   UNL     1       4.929   4.735  16.458  0.00  0.00    +0.000 NA
ATOM      9  C   UNL     1       5.642   3.951  15.459  0.00  0.00    +0.000 C 
ENDROOT
BRANCH   1  13
ATOM     10  C   UNL     1       0.925   9.535  19.335  0.00  0.00    +0.000 A 
ATOM     11  C   UNL     1       1.405   9.561  18.030  0.00  0.00    +0.000 A 
ATOM     12  C   UNL     1       2.242   8.555  17.562  0.00  0.00    +0.000 A 
ATOM     13  C   UNL     1       2.630   7.496  18.391  0.00  0.00    +0.000 A 
ATOM     14  C   UNL     1       2.192   7.490  19.718  0.00  0.00    +0.000 A 
ATOM     15  C   UNL     1       1.353   8.512  20.193  0.00  0.00    +0.000 A 
BRANCH  10  18
ATOM     16  C   UNL     1      -1.231  10.747  19.276  0.00  0.00    +0.000 C 
ATOM     17  O   UNL     1      -1.757  10.120  18.363  0.00  0.00    +0.000 OA
ATOM     18  N   UNL     1       0.021  10.505  19.824  0.00  0.00    +0.000 N 
ATOM     19  H   UNL     1       0.242  10.945  20.706  0.00  0.00    +0.000 HD
BRANCH  16  21
ATOM     20  C   UNL     1      -1.470  12.081  21.369  0.00  0.00    +0.000 C 
ATOM     21  C   UNL     1      -1.953  11.909  19.936  0.00  0.00    +0.000 C 
ENDBRANCH  16  21
ENDBRANCH  10  18
ENDBRANCH   1  13
BRANCH   7  22
ATOM     22  C   UNL     1       1.735   4.601  18.328  0.00  0.00    +0.000 C 
ATOM     23  O   UNL     1       1.029   4.496  17.329  0.00  0.00    +0.000 OA
BRANCH  22  24
ATOM     24  O   UNL     1       1.317   4.405  19.603  0.00  0.00    +0.000 OA
ATOM     25  C   UNL     1       1.057   3.041  19.947  0.00  0.00    +0.000 C 
ENDBRANCH  22  24
ENDBRANCH   7  22
TORSDOF 5
ENDMDL
MODEL 4
REMARK VINA RESULT:      -6.9      4.726      6.460
REMARK  Name = 
REMARK  8 active torsions:
REMARK  status: ('A' for Active; 'I' for Inactive)
REMARK    1  A    between atoms: C_1  and  C_2
REMARK    2  A    between atoms: C_2  and  C_3
REMARK    3  A    between atoms: N_5  and  C_6
REMARK    4  A    between atoms: C_9  and  C_10
REMARK    5  A    between atoms: C_16  and  C_17
REMARK    6  A    between atoms: C_17  and  O_19
REMARK    7  A    between atoms: O_19  and  C_20
REMARK    8  A    between atoms: N_21  and  C_22
REMARK                            x       y       z     vdW  Elec       q    Type
REMARK                         _______ _______ _______ _____ _____    ______ ____
ROOT
ATOM      1  C   UNL     1       5.494   5.060  18.349  0.00  0.00    +0.000 C 
ATOM      2  C   UNL     1       4.312   5.347  19.318  0.00  0.00    +0.000 C 
ATOM      3  C   UNL     1       3.277   4.186  19.309  0.00  0.00    +0.000 C 
ATOM      4  C   UNL     1       2.170   4.329  18.243  0.00  0.00    +0.000 C 
ATOM      5  C   UNL     1       2.620   3.456  17.064  0.00  0.00    +0.000 C 
ATOM      6  C   UNL     1       4.087   3.186  17.390  0.00  0.00    +0.000 C 
ATOM      7  C   UNL     1       4.901   4.484  17.054  0.00  0.00    +0.000 C 
ATOM      8  N   UNL     1       4.030   3.003  18.870  0.00  0.00    +0.000 NA
ATOM      9  C   UNL     1       3.456   1.749  19.338  0.00  0.00    +0.000 C 
ENDROOT
BRANCH   1  13
ATOM     10  C   UNL     1       8.045   8.528  17.923  0.00  0.00    +0.000 A 
ATOM     11  C   UNL     1       6.822   8.430  17.268  0.00  0.00    +0.000 A 
ATOM     12  C   UNL     1       6.033   7.294  17.404  0.00  0.00    +0.000 A 
ATOM     13  C   UNL     1       6.451   6.217  18.196  0.00  0.00    +0.000 A 
ATOM     14  C   UNL     1       7.701   6.288  18.817  0.00  0.00    +0.000 A 
ATOM     15  C   UNL     1       8.501   7.433  18.672  0.00  0.00    +0.000 A 
BRANCH  10  18
ATOM     16  C   UNL     1       9.238  10.427  18.969  0.00  0.00    +0.000 C 
ATOM     17  O   UNL     1       9.029  10.138  20.142  0.00  0.00    +0.000 OA
ATOM     18  N   UNL     1       8.842   9.693  17.859  0.00  0.00    +0.000 N 
ATOM     19  H   UNL     1       9.262   9.921  16.969  0.00  0.00    +0.000 HD
BRANCH  16  21
ATOM     20  C   UNL     1      11.415  11.625  19.177  0.00  0.00    +0.000 C 
ATOM     21  C   UNL     1      10.006  11.685  18.605  0.00  0.00    +0.000 C 
ENDBRANCH  16  21
ENDBRANCH  10  18
ENDBRANCH   1  13
BRANCH   7  22
ATOM     22  C   UNL     1       5.893   4.278  15.934  0.00  0.00    +0.000 C 
ATOM     23  O   UNL     1       7.071   4.004  16.146  0.00  0.00    +0.000 OA
BRANCH  22  24
ATOM     24  O   UNL     1       5.336   4.428  14.707  0.00  0.00    +0.000 OA
ATOM     25  C   UNL     1       6.085   3.853  13.633  0.00  0.00    +0.000 C 
ENDBRANCH  22  24
ENDBRANCH   7  22
TORSDOF 5
ENDMDL
MODEL 5
REMARK VINA RESULT:      -6.9      2.491      3.539
REMARK  Name = 
REMARK  8 active torsions:
REMARK  status: ('A' for Active; 'I' for Inactive)
REMARK    1  A    between atoms: C_1  and  C_2
REMARK    2  A    between atoms: C_2  and  C_3
REMARK    3  A    between atoms: N_5  and  C_6
REMARK    4  A    between atoms: C_9  and  C_10
REMARK    5  A    between atoms: C_16  and  C_17
REMARK    6  A    between atoms: C_17  and  O_19
REMARK    7  A    between atoms: O_19  and  C_20
REMARK    8  A    between atoms: N_21  and  C_22
REMARK                            x       y       z     vdW  Elec       q    Type
REMARK                         _______ _______ _______ _____ _____    ______ ____
ROOT
ATOM      1  C   UNL     1       2.906   5.577  19.259  0.00  0.00    +0.000 C 
ATOM      2  C   UNL     1       1.821   4.490  19.500  0.00  0.00    +0.000 C 
ATOM      3  C   UNL     1       2.419   3.058  19.383  0.00  0.00    +0.000 C 
ATOM      4  C   UNL     1       2.395   2.473  17.954  0.00  0.00    +0.000 C 
ATOM      5  C   UNL     1       3.800   2.717  17.388  0.00  0.00    +0.000 C 
ATOM      6  C   UNL     1       4.387   3.724  18.373  0.00  0.00    +0.000 C 
ATOM      7  C   UNL     1       3.755   5.126  18.060  0.00  0.00    +0.000 C 
ATOM      8  N   UNL     1       3.851   3.214  19.669  0.00  0.00    +0.000 NA
ATOM      9  C   UNL     1       4.471   2.002  20.185  0.00  0.00    +0.000 C 
ENDROOT
BRANCH   1  13
ATOM     10  C   UNL     1       1.219   9.545  18.896  0.00  0.00    +0.000 A 
ATOM     11  C   UNL     1       1.727   8.858  17.798  0.00  0.00    +0.000 A 
ATOM     12  C   UNL     1       2.285   7.594  17.947  0.00  0.00    +0.000 A 
ATOM     13  C   UNL     1       2.357   6.982  19.205  0.00  0.00    +0.000 A 
ATOM     14  C   UNL     1       1.894   7.686  20.319  0.00  0.00    +0.000 A 
ATOM     15  C   UNL     1       1.339   8.968  20.169  0.00  0.00    +0.000 A 
BRANCH  10  18
ATOM     16  C   UNL     1      -0.764  10.971  18.502  0.00  0.00    +0.000 C 
ATOM     17  O   UNL     1      -1.603  10.080  18.414  0.00  0.00    +0.000 OA
ATOM     18  N   UNL     1       0.587  10.802  18.771  0.00  0.00    +0.000 N 
ATOM     19  H   UNL     1       1.120  11.619  19.033  0.00  0.00    +0.000 HD
BRANCH  16  21
ATOM     20  C   UNL     1       0.067  13.321  18.460  0.00  0.00    +0.000 C 
ATOM     21  C   UNL     1      -1.157  12.427  18.324  0.00  0.00    +0.000 C 
ENDBRANCH  16  21
ENDBRANCH  10  18
ENDBRANCH   1  13
BRANCH   7  22
ATOM     22  C   UNL     1       4.775   6.133  17.586  0.00  0.00    +0.000 C 
ATOM     23  O   UNL     1       4.668   6.716  16.510  0.00  0.00    +0.000 OA
BRANCH  22  24
ATOM     24  O   UNL     1       5.789   6.306  18.469  0.00  0.00    +0.000 OA
ATOM     25  C   UNL     1       7.085   6.438  17.877  0.00  0.00    +0.000 C 
ENDBRANCH  22  24
ENDBRANCH   7  22
TORSDOF 5
ENDMDL
MODEL 6
REMARK VINA RESULT:      -6.9      0.718      1.005
REMARK  Name = 
REMARK  8 active torsions:
REMARK  status: ('A' for Active; 'I' for Inactive)
REMARK    1  A    between atoms: C_1  and  C_2
REMARK    2  A    between atoms: C_2  and  C_3
REMARK    3  A    between atoms: N_5  and  C_6
REMARK    4  A    between atoms: C_9  and  C_10
REMARK    5  A    between atoms: C_16  and  C_17
REMARK    6  A    between atoms: C_17  and  O_19
REMARK    7  A    between atoms: O_19  and  C_20
REMARK    8  A    between atoms: N_21  and  C_22
REMARK                            x       y       z     vdW  Elec       q    Type
REMARK                         _______ _______ _______ _____ _____    ______ ____
ROOT
ATOM      1  C   UNL     1       3.471   6.660  17.777  0.00  0.00    +0.000 C 
ATOM      2  C   UNL     1       4.783   7.316  17.260  0.00  0.00    +0.000 C 
ATOM      3  C   UNL     1       5.750   6.253  16.664  0.00  0.00    +0.000 C 
ATOM      4  C   UNL     1       6.713   5.621  17.692  0.00  0.00    +0.000 C 
ATOM      5  C   UNL     1       6.068   4.286  18.091  0.00  0.00    +0.000 C 
ATOM      6  C   UNL     1       4.647   4.429  17.555  0.00  0.00    +0.000 C 
ATOM      7  C   UNL     1       3.859   5.376  18.527  0.00  0.00    +0.000 C 
ATOM      8  N   UNL     1       4.889   5.132  16.262  0.00  0.00    +0.000 NA
ATOM      9  C   UNL     1       5.458   4.325  15.191  0.00  0.00    +0.000 C 
ENDROOT
BRANCH   1  13
ATOM     10  C   UNL     1       0.714   9.404  19.673  0.00  0.00    +0.000 A 
ATOM     11  C   UNL     1       1.082   9.536  18.337  0.00  0.00    +0.000 A 
ATOM     12  C   UNL     1       1.988   8.655  17.760  0.00  0.00    +0.000 A 
ATOM     13  C   UNL     1       2.560   7.617  18.507  0.00  0.00    +0.000 A 
ATOM     14  C   UNL     1       2.232   7.508  19.861  0.00  0.00    +0.000 A 
ATOM     15  C   UNL     1       1.323   8.405  20.446  0.00  0.00    +0.000 A 
BRANCH  10  18
ATOM     16  C   UNL     1       0.055  11.319  21.094  0.00  0.00    +0.000 C 
ATOM     17  O   UNL     1       1.178  11.739  21.350  0.00  0.00    +0.000 OA
ATOM     18  N   UNL     1      -0.252  10.242  20.273  0.00  0.00    +0.000 N 
ATOM     19  H   UNL     1      -1.210  10.138  19.971  0.00  0.00    +0.000 HD
BRANCH  16  21
ATOM     20  C   UNL     1      -1.505  11.383  23.038  0.00  0.00    +0.000 C 
ATOM     21  C   UNL     1      -1.176  11.987  21.681  0.00  0.00    +0.000 C 
ENDBRANCH  16  21
ENDBRANCH  10  18
ENDBRANCH   1  13
BRANCH   7  22
ATOM     22  C   UNL     1       2.719   4.677  19.227  0.00  0.00    +0.000 C 
ATOM     23  O   UNL     1       2.732   4.452  20.435  0.00  0.00    +0.000 OA
BRANCH  22  24
ATOM     24  O   UNL     1       1.713   4.341  18.383  0.00  0.00    +0.000 OA
ATOM     25  C   UNL     1       1.172   3.032  18.584  0.00  0.00    +0.000 C 
ENDBRANCH  22  24
ENDBRANCH   7  22
TORSDOF 5
ENDMDL
MODEL 7
REMARK VINA RESULT:      -6.8      2.432      3.610
REMARK  Name = 
REMARK  8 active torsions:
REMARK  status: ('A' for Active; 'I' for Inactive)
REMARK    1  A    between atoms: C_1  and  C_2
REMARK    2  A    between atoms: C_2  and  C_3
REMARK    3  A    between atoms: N_5  and  C_6
REMARK    4  A    between atoms: C_9  and  C_10
REMARK    5  A    between atoms: C_16  and  C_17
REMARK    6  A    between atoms: C_17  and  O_19
REMARK    7  A    between atoms: O_19  and  C_20
REMARK    8  A    between atoms: N_21  and  C_22
REMARK                            x       y       z     vdW  Elec       q    Type
REMARK                         _______ _______ _______ _____ _____    ______ ____
ROOT
ATOM      1  C   UNL     1       2.887   5.584  19.121  0.00  0.00    +0.000 C 
ATOM      2  C   UNL     1       1.814   4.490  19.384  0.00  0.00    +0.000 C 
ATOM      3  C   UNL     1       2.436   3.065  19.337  0.00  0.00    +0.000 C 
ATOM      4  C   UNL     1       2.452   2.423  17.933  0.00  0.00    +0.000 C 
ATOM      5  C   UNL     1       3.866   2.666  17.387  0.00  0.00    +0.000 C 
ATOM      6  C   UNL     1       4.415   3.722  18.342  0.00  0.00    +0.000 C 
ATOM      7  C   UNL     1       3.768   5.100  17.960  0.00  0.00    +0.000 C 
ATOM      8  N   UNL     1       3.860   3.256  19.646  0.00  0.00    +0.000 NA
ATOM      9  C   UNL     1       4.487   2.075  20.224  0.00  0.00    +0.000 C 
ENDROOT
BRANCH   1  13
ATOM     10  C   UNL     1       1.369   9.633  18.979  0.00  0.00    +0.000 A 
ATOM     11  C   UNL     1       1.409   8.904  20.163  0.00  0.00    +0.000 A 
ATOM     12  C   UNL     1       1.880   7.597  20.176  0.00  0.00    +0.000 A 
ATOM     13  C   UNL     1       2.317   6.977  18.999  0.00  0.00    +0.000 A 
ATOM     14  C   UNL     1       2.233   7.686  17.797  0.00  0.00    +0.000 A 
ATOM     15  C   UNL     1       1.749   9.005  17.784  0.00  0.00    +0.000 A 
BRANCH  10  18
ATOM     16  C   UNL     1      -0.353  11.393  18.728  0.00  0.00    +0.000 C 
ATOM     17  O   UNL     1      -1.332  10.663  18.623  0.00  0.00    +0.000 OA
ATOM     18  N   UNL     1       0.957  10.985  18.941  0.00  0.00    +0.000 N 
ATOM     19  H   UNL     1       1.627  11.683  19.228  0.00  0.00    +0.000 HD
BRANCH  16  21
ATOM     20  C   UNL     1       0.876  13.561  18.632  0.00  0.00    +0.000 C 
ATOM     21  C   UNL     1      -0.496  12.903  18.641  0.00  0.00    +0.000 C 
ENDBRANCH  16  21
ENDBRANCH  10  18
ENDBRANCH   1  13
BRANCH   7  22
ATOM     22  C   UNL     1       4.782   6.104  17.466  0.00  0.00    +0.000 C 
ATOM     23  O   UNL     1       4.706   6.618  16.354  0.00  0.00    +0.000 OA
BRANCH  22  24
ATOM     24  O   UNL     1       5.754   6.356  18.377  0.00  0.00    +0.000 OA
ATOM     25  C   UNL     1       7.081   6.395  17.843  0.00  0.00    +0.000 C 
ENDBRANCH  22  24
ENDBRANCH   7  22
TORSDOF 5
ENDMDL
MODEL 8
REMARK VINA RESULT:      -6.8      1.312      1.731
REMARK  Name = 
REMARK  8 active torsions:
REMARK  status: ('A' for Active; 'I' for Inactive)
REMARK    1  A    between atoms: C_1  and  C_2
REMARK    2  A    between atoms: C_2  and  C_3
REMARK    3  A    between atoms: N_5  and  C_6
REMARK    4  A    between atoms: C_9  and  C_10
REMARK    5  A    between atoms: C_16  and  C_17
REMARK    6  A    between atoms: C_17  and  O_19
REMARK    7  A    between atoms: O_19  and  C_20
REMARK    8  A    between atoms: N_21  and  C_22
REMARK                            x       y       z     vdW  Elec       q    Type
REMARK                         _______ _______ _______ _____ _____    ______ ____
ROOT
ATOM      1  C   UNL     1       3.404   6.375  17.794  0.00  0.00    +0.000 C 
ATOM      2  C   UNL     1       4.916   6.672  18.003  0.00  0.00    +0.000 C 
ATOM      3  C   UNL     1       5.793   5.451  17.602  0.00  0.00    +0.000 C 
ATOM      4  C   UNL     1       6.042   4.443  18.745  0.00  0.00    +0.000 C 
ATOM      5  C   UNL     1       5.018   3.320  18.532  0.00  0.00    +0.000 C 
ATOM      6  C   UNL     1       4.046   3.940  17.531  0.00  0.00    +0.000 C 
ATOM      7  C   UNL     1       3.135   4.953  18.309  0.00  0.00    +0.000 C 
ATOM      8  N   UNL     1       4.980   4.692  16.642  0.00  0.00    +0.000 NA
ATOM      9  C   UNL     1       5.775   3.888  15.724  0.00  0.00    +0.000 C 
ENDROOT
BRANCH   1  13
ATOM     10  C   UNL     1       0.937   9.507  19.473  0.00  0.00    +0.000 A 
ATOM     11  C   UNL     1       1.449   8.476  20.254  0.00  0.00    +0.000 A 
ATOM     12  C   UNL     1       2.219   7.469  19.684  0.00  0.00    +0.000 A 
ATOM     13  C   UNL     1       2.493   7.462  18.311  0.00  0.00    +0.000 A 
ATOM     14  C   UNL     1       1.942   8.468  17.513  0.00  0.00    +0.000 A 
ATOM     15  C   UNL     1       1.156   9.480  18.089  0.00  0.00    +0.000 A 
BRANCH  10  18
ATOM     16  C   UNL     1      -1.060  10.962  19.606  0.00  0.00    +0.000 C 
ATOM     17  O   UNL     1      -1.745  10.393  18.762  0.00  0.00    +0.000 OA
ATOM     18  N   UNL     1       0.205  10.580  20.030  0.00  0.00    +0.000 N 
ATOM     19  H   UNL     1       0.563  10.998  20.877  0.00  0.00    +0.000 HD
BRANCH  16  21
ATOM     20  C   UNL     1      -0.816  13.433  19.828  0.00  0.00    +0.000 C 
ATOM     21  C   UNL     1      -1.573  12.205  20.312  0.00  0.00    +0.000 C 
ENDBRANCH  16  21
ENDBRANCH  10  18
ENDBRANCH   1  13
BRANCH   7  22
ATOM     22  C   UNL     1       1.682   4.542  18.320  0.00  0.00    +0.000 C 
ATOM     23  O   UNL     1       1.024   4.436  17.288  0.00  0.00    +0.000 OA
BRANCH  22  24
ATOM     24  O   UNL     1       1.213   4.313  19.571  0.00  0.00    +0.000 OA
ATOM     25  C   UNL     1       1.458   2.996  20.073  0.00  0.00    +0.000 C 
ENDBRANCH  22  24
ENDBRANCH   7  22
TORSDOF 5
ENDMDL
MODEL 9
REMARK VINA RESULT:      -6.7      0.997      1.182
REMARK  Name = 
REMARK  8 active torsions:
REMARK  status: ('A' for Active; 'I' for Inactive)
REMARK    1  A    between atoms: C_1  and  C_2
REMARK    2  A    between atoms: C_2  and  C_3
REMARK    3  A    between atoms: N_5  and  C_6
REMARK    4  A    between atoms: C_9  and  C_10
REMARK    5  A    between atoms: C_16  and  C_17
REMARK    6  A    between atoms: C_17  and  O_19
REMARK    7  A    between atoms: O_19  and  C_20
REMARK    8  A    between atoms: N_21  and  C_22
REMARK                            x       y       z     vdW  Elec       q    Type
REMARK                         _______ _______ _______ _____ _____    ______ ____
ROOT
ATOM      1  C   UNL     1       3.234   6.668  18.080  0.00  0.00    +0.000 C 
ATOM      2  C   UNL     1       4.612   7.225  17.622  0.00  0.00    +0.000 C 
ATOM      3  C   UNL     1       5.546   6.084  17.126  0.00  0.00    +0.000 C 
ATOM      4  C   UNL     1       6.406   5.437  18.234  0.00  0.00    +0.000 C 
ATOM      5  C   UNL     1       5.658   4.159  18.639  0.00  0.00    +0.000 C 
ATOM      6  C   UNL     1       4.282   4.364  18.011  0.00  0.00    +0.000 C 
ATOM      7  C   UNL     1       3.498   5.394  18.897  0.00  0.00    +0.000 C 
ATOM      8  N   UNL     1       4.645   5.001  16.711  0.00  0.00    +0.000 NA
ATOM      9  C   UNL     1       5.226   4.120  15.707  0.00  0.00    +0.000 C 
ENDROOT
BRANCH   1  13
ATOM     10  C   UNL     1       0.531   9.626  19.710  0.00  0.00    +0.000 A 
ATOM     11  C   UNL     1       0.909   9.634  18.372  0.00  0.00    +0.000 A 
ATOM     12  C   UNL     1       1.798   8.686  17.880  0.00  0.00    +0.000 A 
ATOM     13  C   UNL     1       2.341   7.704  18.718  0.00  0.00    +0.000 A 
ATOM     14  C   UNL     1       2.004   7.721  20.074  0.00  0.00    +0.000 A 
ATOM     15  C   UNL     1       1.112   8.685  20.572  0.00  0.00    +0.000 A 
BRANCH  10  18
ATOM     16  C   UNL     1      -0.097  11.633  21.014  0.00  0.00    +0.000 C 
ATOM     17  O   UNL     1       1.033  12.013  21.302  0.00  0.00    +0.000 OA
ATOM     18  N   UNL     1      -0.419  10.535  20.229  0.00  0.00    +0.000 N 
ATOM     19  H   UNL     1      -1.368  10.461  19.889  0.00  0.00    +0.000 HD
BRANCH  16  21
ATOM     20  C   UNL     1      -2.111  12.940  20.339  0.00  0.00    +0.000 C 
ATOM     21  C   UNL     1      -1.319  12.384  21.514  0.00  0.00    +0.000 C 
ENDBRANCH  16  21
ENDBRANCH  10  18
ENDBRANCH   1  13
BRANCH   7  22
ATOM     22  C   UNL     1       2.277   4.791  19.550  0.00  0.00    +0.000 C 
ATOM     23  O   UNL     1       1.310   4.403  18.899  0.00  0.00    +0.000 OA
BRANCH  22  24
ATOM     24  O   UNL     1       2.381   4.734  20.901  0.00  0.00    +0.000 OA
ATOM     25  C   UNL     1       2.205   3.430  21.462  0.00  0.00    +0.000 C 
ENDBRANCH  22  24
ENDBRANCH   7  22
TORSDOF 5
ENDMDL
