MODEL 1
REMARK VINA RESULT:      -7.2      0.000      0.000
REMARK  Name = 
REMARK  9 active torsions:
REMARK  status: ('A' for Active; 'I' for Inactive)
REMARK    1  A    between atoms: C_1  and  O_2
REMARK    2  A    between atoms: O_2  and  C_3
REMARK    3  A    between atoms: C_6  and  S_7
REMARK    4  A    between atoms: S_7  and  N_10
REMARK    5  A    between atoms: C_17  and  N_18
REMARK    6  A    between atoms: C_19  and  C_21
REMARK    7  A    between atoms: C_21  and  S_22
REMARK    8  A    between atoms: S_22  and  C_23
REMARK    9  A    between atoms: N_27  and  C_28
REMARK                            x       y       z     vdW  Elec       q    Type
REMARK                         _______ _______ _______ _____ _____    ______ ____
ROOT
ATOM      1  C   UNL     1       1.475   9.248  18.840  0.00  0.00    +0.000 A 
ATOM      2  C   UNL     1       1.863   8.575  17.673  0.00  0.00    +0.000 A 
ATOM      3  C   UNL     1       2.430   7.310  17.710  0.00  0.00    +0.000 A 
ATOM      4  C   UNL     1       2.579   6.676  18.937  0.00  0.00    +0.000 A 
ATOM      5  C   UNL     1       2.105   7.292  20.103  0.00  0.00    +0.000 A 
ATOM      6  C   UNL     1       1.581   8.584  20.088  0.00  0.00    +0.000 A 
ENDROOT
BRANCH   6   7
ATOM      7  N   UNL     1       1.202   9.183  21.320  0.00  0.00    +0.000 N 
ATOM      8  C   UNL     1      -0.006   8.946  21.997  0.00  0.00    +0.000 C 
ATOM      9  O   UNL     1      -0.895   8.173  21.631  0.00  0.00    +0.000 OA
ATOM     10  H   UNL     1       1.942   9.665  21.834  0.00  0.00    +0.000 HD
BRANCH   8  11
ATOM     11  C   UNL     1      -0.177   9.725  23.285  0.00  0.00    +0.000 C 
BRANCH  11  12
ATOM     12  S   UNL     1      -1.467  11.015  23.080  0.00  0.00    +0.000 S 
BRANCH  12  13
ATOM     13  C   UNL     1      -0.556  12.358  22.467  0.00  0.00    +0.000 A 
ATOM     14  N   UNL     1       0.402  12.250  21.573  0.00  0.00    +0.000 NA
ATOM     15  C   UNL     1       0.844  13.530  21.361  0.00  0.00    +0.000 A 
ATOM     16  C   UNL     1       0.136  14.428  22.124  0.00  0.00    +0.000 A 
ATOM     17  N   UNL     1      -0.765  13.668  22.828  0.00  0.00    +0.000 N 
ATOM     18  C   UNL     1      -1.682  14.218  23.796  0.00  0.00    +0.000 C 
ENDBRANCH  12  13
ENDBRANCH  11  12
ENDBRANCH   8  11
ENDBRANCH   6   7
BRANCH   4  19
ATOM     19  S   UNL     1       3.277   5.027  18.959  0.00  0.00    +0.000 S 
ATOM     20  O   UNL     1       3.400   4.616  20.330  0.00  0.00    +0.000 OA
ATOM     21  O   UNL     1       2.497   4.244  18.012  0.00  0.00    +0.000 OA
BRANCH  19  22
ATOM     22  N   UNL     1       4.848   5.217  18.290  0.00  0.00    +0.000 NA
ATOM     23  C   UNL     1       5.943   5.432  19.270  0.00  0.00    +0.000 C 
ATOM     24  C   UNL     1       7.300   5.644  18.613  0.00  0.00    +0.000 C 
ATOM     25  C   UNL     1       7.587   4.580  17.568  0.00  0.00    +0.000 C 
ATOM     26  C   UNL     1       6.501   4.617  16.507  0.00  0.00    +0.000 C 
ATOM     27  C   UNL     1       5.125   4.359  17.109  0.00  0.00    +0.000 C 
ENDBRANCH  19  22
ENDBRANCH   4  19
BRANCH   1  29
ATOM     28  C   UNL     1      -0.383  10.642  18.425  0.00  0.00    +0.000 C 
ATOM     29  O   UNL     1       1.008  10.546  18.761  0.00  0.00    +0.000 OA
ENDBRANCH   1  29
TORSDOF 7
ENDMDL
MODEL 2
REMARK VINA RESULT:      -7.2      4.546      7.816
REMARK  Name = 
REMARK  9 active torsions:
REMARK  status: ('A' for Active; 'I' for Inactive)
REMARK    1  A    between atoms: C_1  and  O_2
REMARK    2  A    between atoms: O_2  and  C_3
REMARK    3  A    between atoms: C_6  and  S_7
REMARK    4  A    between atoms: S_7  and  N_10
REMARK    5  A    between atoms: C_17  and  N_18
REMARK    6  A    between atoms: C_19  and  C_21
REMARK    7  A    between atoms: C_21  and  S_22
REMARK    8  A    between atoms: S_22  and  C_23
REMARK    9  A    between atoms: N_27  and  C_28
REMARK                            x       y       z     vdW  Elec       q    Type
REMARK                         _______ _______ _______ _____ _____    ______ ____
ROOT
ATOM      1  C   UNL     1       6.391   5.336  16.070  0.00  0.00    +0.000 A 
ATOM      2  C   UNL     1       5.564   4.205  16.101  0.00  0.00    +0.000 A 
ATOM      3  C   UNL     1       4.446   4.135  16.919  0.00  0.00    +0.000 A 
ATOM      4  C   UNL     1       4.116   5.235  17.700  0.00  0.00    +0.000 A 
ATOM      5  C   UNL     1       4.873   6.411  17.607  0.00  0.00    +0.000 A 
ATOM      6  C   UNL     1       6.028   6.478  16.828  0.00  0.00    +0.000 A 
ENDROOT
BRANCH   6   7
ATOM      7  N   UNL     1       6.799   7.672  16.850  0.00  0.00    +0.000 N 
ATOM      8  C   UNL     1       7.818   7.960  17.773  0.00  0.00    +0.000 C 
ATOM      9  O   UNL     1       8.201   7.213  18.676  0.00  0.00    +0.000 OA
ATOM     10  H   UNL     1       6.731   8.268  16.023  0.00  0.00    +0.000 HD
BRANCH   8  11
ATOM     11  C   UNL     1       8.476   9.313  17.593  0.00  0.00    +0.000 C 
BRANCH  11  12
ATOM     12  S   UNL     1       9.104   9.932  19.204  0.00  0.00    +0.000 S 
BRANCH  12  13
ATOM     13  C   UNL     1       9.322  11.625  18.892  0.00  0.00    +0.000 A 
ATOM     14  N   UNL     1       9.131  12.186  17.718  0.00  0.00    +0.000 NA
ATOM     15  C   UNL     1       9.396  13.518  17.908  0.00  0.00    +0.000 A 
ATOM     16  C   UNL     1       9.737  13.771  19.216  0.00  0.00    +0.000 A 
ATOM     17  N   UNL     1       9.682  12.550  19.842  0.00  0.00    +0.000 N 
ATOM     18  C   UNL     1      10.020  12.354  21.231  0.00  0.00    +0.000 C 
ENDBRANCH  12  13
ENDBRANCH  11  12
ENDBRANCH   8  11
ENDBRANCH   6   7
BRANCH   4  19
ATOM     19  S   UNL     1       2.646   5.140  18.720  0.00  0.00    +0.000 S 
ATOM     20  O   UNL     1       1.562   4.686  17.893  0.00  0.00    +0.000 OA
ATOM     21  O   UNL     1       3.030   4.406  19.916  0.00  0.00    +0.000 OA
BRANCH  19  22
ATOM     22  N   UNL     1       2.346   6.764  19.193  0.00  0.00    +0.000 NA
ATOM     23  C   UNL     1       1.916   7.681  18.107  0.00  0.00    +0.000 C 
ATOM     24  C   UNL     1       1.715   9.115  18.580  0.00  0.00    +0.000 C 
ATOM     25  C   UNL     1       0.861   9.175  19.834  0.00  0.00    +0.000 C 
ATOM     26  C   UNL     1       1.532   8.369  20.933  0.00  0.00    +0.000 C 
ATOM     27  C   UNL     1       1.710   6.911  20.527  0.00  0.00    +0.000 C 
ENDBRANCH  19  22
ENDBRANCH   4  19
BRANCH   1  29
ATOM     28  C   UNL     1       7.330   5.035  13.926  0.00  0.00    +0.000 C 
ATOM     29  O   UNL     1       7.548   5.321  15.315  0.00  0.00    +0.000 OA
ENDBRANCH   1  29
TORSDOF 7
ENDMDL
MODEL 3
REMARK VINA RESULT:      -7.1      2.308      3.596
REMARK  Name = 
REMARK  9 active torsions:
REMARK  status: ('A' for Active; 'I' for Inactive)
REMARK    1  A    between atoms: C_1  and  O_2
REMARK    2  A    between atoms: O_2  and  C_3
REMARK    3  A    between atoms: C_6  and  S_7
REMARK    4  A    between atoms: S_7  and  N_10
REMARK    5  A    between atoms: C_17  and  N_18
REMARK    6  A    between atoms: C_19  and  C_21
REMARK    7  A    between atoms: C_21  and  S_22
REMARK    8  A    between atoms: S_22  and  C_23
REMARK    9  A    between atoms: N_27  and  C_28
REMARK                            x       y       z     vdW  Elec       q    Type
REMARK                         _______ _______ _______ _____ _____    ______ ____
ROOT
ATOM      1  C   UNL     1       1.906   4.352  18.966  0.00  0.00    +0.000 A 
ATOM      2  C   UNL     1       2.306   3.533  17.900  0.00  0.00    +0.000 A 
ATOM      3  C   UNL     1       3.275   3.932  16.992  0.00  0.00    +0.000 A 
ATOM      4  C   UNL     1       3.896   5.161  17.169  0.00  0.00    +0.000 A 
ATOM      5  C   UNL     1       3.582   5.949  18.285  0.00  0.00    +0.000 A 
ATOM      6  C   UNL     1       2.574   5.585  19.177  0.00  0.00    +0.000 A 
ENDROOT
BRANCH   6   7
ATOM      7  N   UNL     1       2.245   6.474  20.236  0.00  0.00    +0.000 N 
ATOM      8  C   UNL     1       1.831   7.807  20.074  0.00  0.00    +0.000 C 
ATOM      9  O   UNL     1       1.673   8.384  18.996  0.00  0.00    +0.000 OA
ATOM     10  H   UNL     1       2.120   6.052  21.158  0.00  0.00    +0.000 HD
BRANCH   8  11
ATOM     11  C   UNL     1       1.559   8.550  21.366  0.00  0.00    +0.000 C 
BRANCH  11  12
ATOM     12  S   UNL     1      -0.159   9.199  21.376  0.00  0.00    +0.000 S 
BRANCH  12  13
ATOM     13  C   UNL     1       0.092  10.915  21.349  0.00  0.00    +0.000 A 
ATOM     14  N   UNL     1       0.979  11.517  20.587  0.00  0.00    +0.000 NA
ATOM     15  C   UNL     1       0.842  12.854  20.861  0.00  0.00    +0.000 A 
ATOM     16  C   UNL     1      -0.148  13.067  21.791  0.00  0.00    +0.000 A 
ATOM     17  N   UNL     1      -0.629  11.818  22.095  0.00  0.00    +0.000 N 
ATOM     18  C   UNL     1      -1.659  11.580  23.077  0.00  0.00    +0.000 C 
ENDBRANCH  12  13
ENDBRANCH  11  12
ENDBRANCH   8  11
ENDBRANCH   6   7
BRANCH   4  19
ATOM     19  S   UNL     1       5.174   5.639  16.008  0.00  0.00    +0.000 S 
ATOM     20  O   UNL     1       5.387   4.541  15.106  0.00  0.00    +0.000 OA
ATOM     21  O   UNL     1       4.797   6.953  15.509  0.00  0.00    +0.000 OA
BRANCH  19  22
ATOM     22  N   UNL     1       6.578   5.847  16.977  0.00  0.00    +0.000 NA
ATOM     23  C   UNL     1       6.832   7.230  17.452  0.00  0.00    +0.000 C 
ATOM     24  C   UNL     1       8.116   7.358  18.261  0.00  0.00    +0.000 C 
ATOM     25  C   UNL     1       8.204   6.292  19.340  0.00  0.00    +0.000 C 
ATOM     26  C   UNL     1       8.149   4.921  18.691  0.00  0.00    +0.000 C 
ATOM     27  C   UNL     1       6.857   4.724  17.908  0.00  0.00    +0.000 C 
ENDBRANCH  19  22
ENDBRANCH   4  19
BRANCH   1  29
ATOM     28  C   UNL     1       1.270   3.082  20.850  0.00  0.00    +0.000 C 
ATOM     29  O   UNL     1       0.867   3.956  19.786  0.00  0.00    +0.000 OA
ENDBRANCH   1  29
TORSDOF 7
ENDMDL
MODEL 4
REMARK VINA RESULT:      -7.1      0.963      1.352
REMARK  Name = 
REMARK  9 active torsions:
REMARK  status: ('A' for Active; 'I' for Inactive)
REMARK    1  A    between atoms: C_1  and  O_2
REMARK    2  A    between atoms: O_2  and  C_3
REMARK    3  A    between atoms: C_6  and  S_7
REMARK    4  A    between atoms: S_7  and  N_10
REMARK    5  A    between atoms: C_17  and  N_18
REMARK    6  A    between atoms: C_19  and  C_21
REMARK    7  A    between atoms: C_21  and  S_22
REMARK    8  A    between atoms: S_22  and  C_23
REMARK    9  A    between atoms: N_27  and  C_28
REMARK                            x       y       z     vdW  Elec       q    Type
REMARK                         _______ _______ _______ _____ _____    ______ ____
ROOT
ATOM      1  C   UNL     1       1.740   8.669  18.841  0.00  0.00    +0.000 A 
ATOM      2  C   UNL     1       2.085   7.945  17.692  0.00  0.00    +0.000 A 
ATOM      3  C   UNL     1       2.571   6.648  17.761  0.00  0.00    +0.000 A 
ATOM      4  C   UNL     1       2.681   6.037  19.003  0.00  0.00    +0.000 A 
ATOM      5  C   UNL     1       2.248   6.709  20.154  0.00  0.00    +0.000 A 
ATOM      6  C   UNL     1       1.805   8.031  20.106  0.00  0.00    +0.000 A 
ENDROOT
BRANCH   6   7
ATOM      7  N   UNL     1       1.465   8.682  21.323  0.00  0.00    +0.000 N 
ATOM      8  C   UNL     1       0.194   8.669  21.920  0.00  0.00    +0.000 C 
ATOM      9  O   UNL     1      -0.797   8.076  21.487  0.00  0.00    +0.000 OA
ATOM     10  H   UNL     1       2.247   9.017  21.889  0.00  0.00    +0.000 HD
BRANCH   8  11
ATOM     11  C   UNL     1       0.087   9.459  23.208  0.00  0.00    +0.000 C 
BRANCH  11  12
ATOM     12  S   UNL     1      -1.139  10.814  23.023  0.00  0.00    +0.000 S 
BRANCH  12  13
ATOM     13  C   UNL     1      -0.358  11.869  21.889  0.00  0.00    +0.000 A 
ATOM     14  N   UNL     1       0.931  11.844  21.628  0.00  0.00    +0.000 NA
ATOM     15  C   UNL     1       1.127  12.816  20.681  0.00  0.00    +0.000 A 
ATOM     16  C   UNL     1      -0.060  13.430  20.353  0.00  0.00    +0.000 A 
ATOM     17  N   UNL     1      -1.009  12.812  21.129  0.00  0.00    +0.000 N 
ATOM     18  C   UNL     1      -2.401  13.191  21.133  0.00  0.00    +0.000 C 
ENDBRANCH  12  13
ENDBRANCH  11  12
ENDBRANCH   8  11
ENDBRANCH   6   7
BRANCH   4  19
ATOM     19  S   UNL     1       3.275   4.348  19.067  0.00  0.00    +0.000 S 
ATOM     20  O   UNL     1       3.277   3.931  20.441  0.00  0.00    +0.000 OA
ATOM     21  O   UNL     1       2.516   3.614  18.065  0.00  0.00    +0.000 OA
BRANCH  19  22
ATOM     22  N   UNL     1       4.897   4.442  18.508  0.00  0.00    +0.000 NA
ATOM     23  C   UNL     1       5.082   4.300  17.042  0.00  0.00    +0.000 C 
ATOM     24  C   UNL     1       6.543   4.342  16.616  0.00  0.00    +0.000 C 
ATOM     25  C   UNL     1       7.272   5.523  17.234  0.00  0.00    +0.000 C 
ATOM     26  C   UNL     1       7.187   5.424  18.747  0.00  0.00    +0.000 C 
ATOM     27  C   UNL     1       5.741   5.430  19.228  0.00  0.00    +0.000 C 
ENDBRANCH  19  22
ENDBRANCH   4  19
BRANCH   1  29
ATOM     28  C   UNL     1      -0.035  10.167  18.422  0.00  0.00    +0.000 C 
ATOM     29  O   UNL     1       1.355   9.992  18.731  0.00  0.00    +0.000 OA
ENDBRANCH   1  29
TORSDOF 7
ENDMDL
MODEL 5
REMARK VINA RESULT:      -7.1      2.337      3.796
REMARK  Name = 
REMARK  9 active torsions:
REMARK  status: ('A' for Active; 'I' for Inactive)
REMARK    1  A    between atoms: C_1  and  O_2
REMARK    2  A    between atoms: O_2  and  C_3
REMARK    3  A    between atoms: C_6  and  S_7
REMARK    4  A    between atoms: S_7  and  N_10
REMARK    5  A    between atoms: C_17  and  N_18
REMARK    6  A    between atoms: C_19  and  C_21
REMARK    7  A    between atoms: C_21  and  S_22
REMARK    8  A    between atoms: S_22  and  C_23
REMARK    9  A    between atoms: N_27  and  C_28
REMARK                            x       y       z     vdW  Elec       q    Type
REMARK                         _______ _______ _______ _____ _____    ______ ____
ROOT
ATOM      1  C   UNL     1       1.950   4.402  19.108  0.00  0.00    +0.000 A 
ATOM      2  C   UNL     1       2.340   3.556  18.061  0.00  0.00    +0.000 A 
ATOM      3  C   UNL     1       3.296   3.934  17.130  0.00  0.00    +0.000 A 
ATOM      4  C   UNL     1       3.912   5.172  17.265  0.00  0.00    +0.000 A 
ATOM      5  C   UNL     1       3.607   5.989  18.362  0.00  0.00    +0.000 A 
ATOM      6  C   UNL     1       2.612   5.645  19.277  0.00  0.00    +0.000 A 
ENDROOT
BRANCH   6   7
ATOM      7  N   UNL     1       2.291   6.561  20.315  0.00  0.00    +0.000 N 
ATOM      8  C   UNL     1       1.790   7.859  20.121  0.00  0.00    +0.000 C 
ATOM      9  O   UNL     1       1.539   8.377  19.030  0.00  0.00    +0.000 OA
ATOM     10  H   UNL     1       2.243   6.175  21.259  0.00  0.00    +0.000 HD
BRANCH   8  11
ATOM     11  C   UNL     1       1.548   8.644  21.394  0.00  0.00    +0.000 C 
BRANCH  11  12
ATOM     12  S   UNL     1      -0.196   9.216  21.465  0.00  0.00    +0.000 S 
BRANCH  12  13
ATOM     13  C   UNL     1      -0.061  10.878  20.988  0.00  0.00    +0.000 A 
ATOM     14  N   UNL     1       0.607  11.786  21.665  0.00  0.00    +0.000 NA
ATOM     15  C   UNL     1       0.472  12.945  20.946  0.00  0.00    +0.000 A 
ATOM     16  C   UNL     1      -0.277  12.736  19.811  0.00  0.00    +0.000 A 
ATOM     17  N   UNL     1      -0.610  11.405  19.843  0.00  0.00    +0.000 N 
ATOM     18  C   UNL     1      -1.444  10.771  18.850  0.00  0.00    +0.000 C 
ENDBRANCH  12  13
ENDBRANCH  11  12
ENDBRANCH   8  11
ENDBRANCH   6   7
BRANCH   4  19
ATOM     19  S   UNL     1       5.172   5.625  16.074  0.00  0.00    +0.000 S 
ATOM     20  O   UNL     1       5.378   4.504  15.199  0.00  0.00    +0.000 OA
ATOM     21  O   UNL     1       4.782   6.923  15.546  0.00  0.00    +0.000 OA
BRANCH  19  22
ATOM     22  N   UNL     1       6.587   5.864  17.018  0.00  0.00    +0.000 NA
ATOM     23  C   UNL     1       6.845   7.261  17.448  0.00  0.00    +0.000 C 
ATOM     24  C   UNL     1       8.139   7.415  18.237  0.00  0.00    +0.000 C 
ATOM     25  C   UNL     1       8.243   6.383  19.346  0.00  0.00    +0.000 C 
ATOM     26  C   UNL     1       8.182   4.992  18.740  0.00  0.00    +0.000 C 
ATOM     27  C   UNL     1       6.880   4.770  17.980  0.00  0.00    +0.000 C 
ENDBRANCH  19  22
ENDBRANCH   4  19
BRANCH   1  29
ATOM     28  C   UNL     1       1.259   2.930  20.819  0.00  0.00    +0.000 C 
ATOM     29  O   UNL     1       0.923   4.023  19.952  0.00  0.00    +0.000 OA
ENDBRANCH   1  29
TORSDOF 7
ENDMDL
MODEL 6
REMARK VINA RESULT:      -7.0      3.171      4.954
REMARK  Name = 
REMARK  9 active torsions:
REMARK  status: ('A' for Active; 'I' for Inactive)
REMARK    1  A    between atoms: C_1  and  O_2
REMARK    2  A    between atoms: O_2  and  C_3
REMARK    3  A    between atoms: C_6  and  S_7
REMARK    4  A    between atoms: S_7  and  N_10
REMARK    5  A    between atoms: C_17  and  N_18
REMARK    6  A    between atoms: C_19  and  C_21
REMARK    7  A    between atoms: C_21  and  S_22
REMARK    8  A    between atoms: S_22  and  C_23
REMARK    9  A    between atoms: N_27  and  C_28
REMARK                            x       y       z     vdW  Elec       q    Type
REMARK                         _______ _______ _______ _____ _____    ______ ____
ROOT
ATOM      1  C   UNL     1       2.695   4.574  17.986  0.00  0.00    +0.000 A 
ATOM      2  C   UNL     1       3.430   3.589  17.312  0.00  0.00    +0.000 A 
ATOM      3  C   UNL     1       4.681   3.848  16.774  0.00  0.00    +0.000 A 
ATOM      4  C   UNL     1       5.238   5.108  16.943  0.00  0.00    +0.000 A 
ATOM      5  C   UNL     1       4.562   6.075  17.700  0.00  0.00    +0.000 A 
ATOM      6  C   UNL     1       3.282   5.846  18.204  0.00  0.00    +0.000 A 
ENDROOT
BRANCH   6   7
ATOM      7  N   UNL     1       2.617   6.902  18.885  0.00  0.00    +0.000 N 
ATOM      8  C   UNL     1       2.249   8.130  18.311  0.00  0.00    +0.000 C 
ATOM      9  O   UNL     1       2.430   8.457  17.136  0.00  0.00    +0.000 OA
ATOM     10  H   UNL     1       2.214   6.668  19.795  0.00  0.00    +0.000 HD
BRANCH   8  11
ATOM     11  C   UNL     1       1.567   9.096  19.258  0.00  0.00    +0.000 C 
BRANCH  11  12
ATOM     12  S   UNL     1       1.485  10.770  18.507  0.00  0.00    +0.000 S 
BRANCH  12  13
ATOM     13  C   UNL     1      -0.067  11.337  19.034  0.00  0.00    +0.000 A 
ATOM     14  N   UNL     1      -0.244  12.188  20.021  0.00  0.00    +0.000 NA
ATOM     15  C   UNL     1      -1.600  12.377  20.097  0.00  0.00    +0.000 A 
ATOM     16  C   UNL     1      -2.254  11.641  19.137  0.00  0.00    +0.000 A 
ATOM     17  N   UNL     1      -1.262  10.981  18.454  0.00  0.00    +0.000 N 
ATOM     18  C   UNL     1      -1.520  10.052  17.381  0.00  0.00    +0.000 C 
ENDBRANCH  12  13
ENDBRANCH  11  12
ENDBRANCH   8  11
ENDBRANCH   6   7
BRANCH   4  19
ATOM     19  S   UNL     1       6.872   5.410  16.274  0.00  0.00    +0.000 S 
ATOM     20  O   UNL     1       7.182   6.799  16.471  0.00  0.00    +0.000 OA
ATOM     21  O   UNL     1       7.731   4.369  16.818  0.00  0.00    +0.000 OA
BRANCH  19  22
ATOM     22  N   UNL     1       6.709   5.107  14.591  0.00  0.00    +0.000 NA
ATOM     23  C   UNL     1       7.856   5.528  13.747  0.00  0.00    +0.000 C 
ATOM     24  C   UNL     1       7.629   5.279  12.262  0.00  0.00    +0.000 C 
ATOM     25  C   UNL     1       7.137   3.866  12.001  0.00  0.00    +0.000 C 
ATOM     26  C   UNL     1       5.838   3.643  12.756  0.00  0.00    +0.000 C 
ATOM     27  C   UNL     1       6.025   3.831  14.256  0.00  0.00    +0.000 C 
ENDBRANCH  19  22
ENDBRANCH   4  19
BRANCH   1  29
ATOM     28  C   UNL     1       1.288   3.047  19.108  0.00  0.00    +0.000 C 
ATOM     29  O   UNL     1       1.411   4.299  18.418  0.00  0.00    +0.000 OA
ENDBRANCH   1  29
TORSDOF 7
ENDMDL
MODEL 7
REMARK VINA RESULT:      -7.0      3.134      4.613
REMARK  Name = 
REMARK  9 active torsions:
REMARK  status: ('A' for Active; 'I' for Inactive)
REMARK    1  A    between atoms: C_1  and  O_2
REMARK    2  A    between atoms: O_2  and  C_3
REMARK    3  A    between atoms: C_6  and  S_7
REMARK    4  A    between atoms: S_7  and  N_10
REMARK    5  A    between atoms: C_17  and  N_18
REMARK    6  A    between atoms: C_19  and  C_21
REMARK    7  A    between atoms: C_21  and  S_22
REMARK    8  A    between atoms: S_22  and  C_23
REMARK    9  A    between atoms: N_27  and  C_28
REMARK                            x       y       z     vdW  Elec       q    Type
REMARK                         _______ _______ _______ _____ _____    ______ ____
ROOT
ATOM      1  C   UNL     1       3.024   4.996  18.337  0.00  0.00    +0.000 A 
ATOM      2  C   UNL     1       3.923   3.924  18.258  0.00  0.00    +0.000 A 
ATOM      3  C   UNL     1       5.138   4.032  17.599  0.00  0.00    +0.000 A 
ATOM      4  C   UNL     1       5.490   5.252  17.037  0.00  0.00    +0.000 A 
ATOM      5  C   UNL     1       4.649   6.362  17.192  0.00  0.00    +0.000 A 
ATOM      6  C   UNL     1       3.402   6.256  17.807  0.00  0.00    +0.000 A 
ENDROOT
BRANCH   6   7
ATOM      7  N   UNL     1       2.561   7.401  17.851  0.00  0.00    +0.000 N 
ATOM      8  C   UNL     1       2.076   8.003  19.024  0.00  0.00    +0.000 C 
ATOM      9  O   UNL     1       2.326   7.639  20.175  0.00  0.00    +0.000 OA
ATOM     10  H   UNL     1       2.467   7.925  16.980  0.00  0.00    +0.000 HD
BRANCH   8  11
ATOM     11  C   UNL     1       1.180   9.203  18.798  0.00  0.00    +0.000 C 
BRANCH  11  12
ATOM     12  S   UNL     1       0.298   9.638  20.350  0.00  0.00    +0.000 S 
BRANCH  12  13
ATOM     13  C   UNL     1      -0.892  10.772  19.795  0.00  0.00    +0.000 A 
ATOM     14  N   UNL     1      -1.610  10.611  18.706  0.00  0.00    +0.000 NA
ATOM     15  C   UNL     1      -2.424  11.713  18.644  0.00  0.00    +0.000 A 
ATOM     16  C   UNL     1      -2.206  12.547  19.715  0.00  0.00    +0.000 A 
ATOM     17  N   UNL     1      -1.224  11.933  20.453  0.00  0.00    +0.000 N 
ATOM     18  C   UNL     1      -0.657  12.502  21.651  0.00  0.00    +0.000 C 
ENDBRANCH  12  13
ENDBRANCH  11  12
ENDBRANCH   8  11
ENDBRANCH   6   7
BRANCH   4  19
ATOM     19  S   UNL     1       7.082   5.382  16.224  0.00  0.00    +0.000 S 
ATOM     20  O   UNL     1       7.531   6.742  16.346  0.00  0.00    +0.000 OA
ATOM     21  O   UNL     1       7.887   4.282  16.731  0.00  0.00    +0.000 OA
BRANCH  19  22
ATOM     22  N   UNL     1       6.748   5.050  14.572  0.00  0.00    +0.000 NA
ATOM     23  C   UNL     1       7.863   5.308  13.626  0.00  0.00    +0.000 C 
ATOM     24  C   UNL     1       7.489   5.042  12.174  0.00  0.00    +0.000 C 
ATOM     25  C   UNL     1       6.819   3.689  12.008  0.00  0.00    +0.000 C 
ATOM     26  C   UNL     1       5.570   3.643  12.869  0.00  0.00    +0.000 C 
ATOM     27  C   UNL     1       5.898   3.853  14.342  0.00  0.00    +0.000 C 
ENDBRANCH  19  22
ENDBRANCH   4  19
BRANCH   1  29
ATOM     28  C   UNL     1       1.412   3.434  19.067  0.00  0.00    +0.000 C 
ATOM     29  O   UNL     1       1.783   4.811  18.916  0.00  0.00    +0.000 OA
ENDBRANCH   1  29
TORSDOF 7
ENDMDL
MODEL 8
REMARK VINA RESULT:      -6.9      2.792      8.436
REMARK  Name = 
REMARK  9 active torsions:
REMARK  status: ('A' for Active; 'I' for Inactive)
REMARK    1  A    between atoms: C_1  and  O_2
REMARK    2  A    between atoms: O_2  and  C_3
REMARK    3  A    between atoms: C_6  and  S_7
REMARK    4  A    between atoms: S_7  and  N_10
REMARK    5  A    between atoms: C_17  and  N_18
REMARK    6  A    between atoms: C_19  and  C_21
REMARK    7  A    between atoms: C_21  and  S_22
REMARK    8  A    between atoms: S_22  and  C_23
REMARK    9  A    between atoms: N_27  and  C_28
REMARK                            x       y       z     vdW  Elec       q    Type
REMARK                         _______ _______ _______ _____ _____    ______ ____
ROOT
ATOM      1  C   UNL     1       2.585   7.582  18.406  0.00  0.00    +0.000 A 
ATOM      2  C   UNL     1       2.244   8.706  17.641  0.00  0.00    +0.000 A 
ATOM      3  C   UNL     1       1.396   9.692  18.124  0.00  0.00    +0.000 A 
ATOM      4  C   UNL     1       0.905   9.581  19.418  0.00  0.00    +0.000 A 
ATOM      5  C   UNL     1       1.314   8.517  20.232  0.00  0.00    +0.000 A 
ATOM      6  C   UNL     1       2.124   7.491  19.744  0.00  0.00    +0.000 A 
ENDROOT
BRANCH   6   7
ATOM      7  N   UNL     1       2.428   6.396  20.597  0.00  0.00    +0.000 N 
ATOM      8  C   UNL     1       1.841   5.122  20.518  0.00  0.00    +0.000 C 
ATOM      9  O   UNL     1       0.999   4.770  19.688  0.00  0.00    +0.000 OA
ATOM     10  H   UNL     1       3.264   6.493  21.176  0.00  0.00    +0.000 HD
BRANCH   8  11
ATOM     11  C   UNL     1       2.324   4.133  21.558  0.00  0.00    +0.000 C 
BRANCH  11  12
ATOM     12  S   UNL     1       2.816   2.556  20.755  0.00  0.00    +0.000 S 
BRANCH  12  13
ATOM     13  C   UNL     1       3.859   3.099  19.479  0.00  0.00    +0.000 A 
ATOM     14  N   UNL     1       5.015   3.692  19.677  0.00  0.00    +0.000 NA
ATOM     15  C   UNL     1       5.513   3.940  18.423  0.00  0.00    +0.000 A 
ATOM     16  C   UNL     1       4.654   3.479  17.453  0.00  0.00    +0.000 A 
ATOM     17  N   UNL     1       3.597   2.936  18.139  0.00  0.00    +0.000 N 
ATOM     18  C   UNL     1       2.435   2.375  17.493  0.00  0.00    +0.000 C 
ENDBRANCH  12  13
ENDBRANCH  11  12
ENDBRANCH   8  11
ENDBRANCH   6   7
BRANCH   4  19
ATOM     19  S   UNL     1      -0.157  10.885  20.035  0.00  0.00    +0.000 S 
ATOM     20  O   UNL     1      -0.444  10.606  21.415  0.00  0.00    +0.000 OA
ATOM     21  O   UNL     1       0.469  12.138  19.641  0.00  0.00    +0.000 OA
BRANCH  19  22
ATOM     22  N   UNL     1      -1.603  10.730  19.121  0.00  0.00    +0.000 NA
ATOM     23  C   UNL     1      -2.535  11.884  19.190  0.00  0.00    +0.000 C 
ATOM     24  C   UNL     1      -3.818  11.665  18.401  0.00  0.00    +0.000 C 
ATOM     25  C   UNL     1      -3.531  11.166  16.995  0.00  0.00    +0.000 C 
ATOM     26  C   UNL     1      -2.758   9.862  17.076  0.00  0.00    +0.000 C 
ATOM     27  C   UNL     1      -1.438  10.041  17.815  0.00  0.00    +0.000 C 
ENDBRANCH  19  22
ENDBRANCH   4  19
BRANCH   1  29
ATOM     28  C   UNL     1       4.459   7.057  17.071  0.00  0.00    +0.000 C 
ATOM     29  O   UNL     1       3.352   6.577  17.848  0.00  0.00    +0.000 OA
ENDBRANCH   1  29
TORSDOF 7
ENDMDL
MODEL 9
REMARK VINA RESULT:      -6.9      3.174      4.856
REMARK  Name = 
REMARK  9 active torsions:
REMARK  status: ('A' for Active; 'I' for Inactive)
REMARK    1  A    between atoms: C_1  and  O_2
REMARK    2  A    between atoms: O_2  and  C_3
REMARK    3  A    between atoms: C_6  and  S_7
REMARK    4  A    between atoms: S_7  and  N_10
REMARK    5  A    between atoms: C_17  and  N_18
REMARK    6  A    between atoms: C_19  and  C_21
REMARK    7  A    between atoms: C_21  and  S_22
REMARK    8  A    between atoms: S_22  and  C_23
REMARK    9  A    between atoms: N_27  and  C_28
REMARK                            x       y       z     vdW  Elec       q    Type
REMARK                         _______ _______ _______ _____ _____    ______ ____
ROOT
ATOM      1  C   UNL     1       2.929   4.704  18.132  0.00  0.00    +0.000 A 
ATOM      2  C   UNL     1       3.759   3.635  17.769  0.00  0.00    +0.000 A 
ATOM      3  C   UNL     1       4.992   3.834  17.166  0.00  0.00    +0.000 A 
ATOM      4  C   UNL     1       5.433   5.134  16.954  0.00  0.00    +0.000 A 
ATOM      5  C   UNL     1       4.662   6.216  17.402  0.00  0.00    +0.000 A 
ATOM      6  C   UNL     1       3.398   6.031  17.963  0.00  0.00    +0.000 A 
ENDROOT
BRANCH   6   7
ATOM      7  N   UNL     1       2.632   7.176  18.312  0.00  0.00    +0.000 N 
ATOM      8  C   UNL     1       2.155   7.468  19.601  0.00  0.00    +0.000 C 
ATOM      9  O   UNL     1       2.351   6.787  20.611  0.00  0.00    +0.000 OA
ATOM     10  H   UNL     1       2.595   7.924  17.617  0.00  0.00    +0.000 HD
BRANCH   8  11
ATOM     11  C   UNL     1       1.345   8.743  19.706  0.00  0.00    +0.000 C 
BRANCH  11  12
ATOM     12  S   UNL     1       1.417   9.674  18.125  0.00  0.00    +0.000 S 
BRANCH  12  13
ATOM     13  C   UNL     1       0.666  11.180  18.546  0.00  0.00    +0.000 A 
ATOM     14  N   UNL     1       1.325  12.238  18.966  0.00  0.00    +0.000 NA
ATOM     15  C   UNL     1       0.369  13.200  19.171  0.00  0.00    +0.000 A 
ATOM     16  C   UNL     1      -0.883  12.724  18.859  0.00  0.00    +0.000 A 
ATOM     17  N   UNL     1      -0.683  11.428  18.453  0.00  0.00    +0.000 N 
ATOM     18  C   UNL     1      -1.755  10.539  18.078  0.00  0.00    +0.000 C 
ENDBRANCH  12  13
ENDBRANCH  11  12
ENDBRANCH   8  11
ENDBRANCH   6   7
BRANCH   4  19
ATOM     19  S   UNL     1       7.045   5.371  16.210  0.00  0.00    +0.000 S 
ATOM     20  O   UNL     1       7.413   6.750  16.379  0.00  0.00    +0.000 OA
ATOM     21  O   UNL     1       7.890   4.305  16.726  0.00  0.00    +0.000 OA
BRANCH  19  22
ATOM     22  N   UNL     1       6.796   5.059  14.539  0.00  0.00    +0.000 NA
ATOM     23  C   UNL     1       7.895   5.484  13.635  0.00  0.00    +0.000 C 
ATOM     24  C   UNL     1       7.592   5.227  12.165  0.00  0.00    +0.000 C 
ATOM     25  C   UNL     1       7.097   3.809  11.936  0.00  0.00    +0.000 C 
ATOM     26  C   UNL     1       5.841   3.581  12.758  0.00  0.00    +0.000 C 
ATOM     27  C   UNL     1       6.105   3.777  14.246  0.00  0.00    +0.000 C 
ENDBRANCH  19  22
ENDBRANCH   4  19
BRANCH   1  29
ATOM     28  C   UNL     1       1.188   3.129  18.371  0.00  0.00    +0.000 C 
ATOM     29  O   UNL     1       1.667   4.454  18.638  0.00  0.00    +0.000 OA
ENDBRANCH   1  29
TORSDOF 7
ENDMDL
