MODEL 1
REMARK VINA RESULT:      -7.1      0.000      0.000
REMARK  Name = 
REMARK  9 active torsions:
REMARK  status: ('A' for Active; 'I' for Inactive)
REMARK    1  A    between atoms: C_1  and  C_2
REMARK    2  A    between atoms: C_2  and  C_3
REMARK    3  A    between atoms: C_4  and  C_5
REMARK    4  A    between atoms: C_5  and  C_6
REMARK    5  A    between atoms: C_6  and  C_7
REMARK    6  A    between atoms: C_7  and  C_8
REMARK    7  A    between atoms: C_7  and  O_9
REMARK    8  A    between atoms: C_7  and  C_10
REMARK    9  A    between atoms: C_13  and  C_14
REMARK                            x       y       z     vdW  Elec       q    Type
REMARK                         _______ _______ _______ _____ _____    ______ ____
ROOT
ATOM      1  C   UNL     1       4.191   4.197  17.401  0.00  0.00    +0.000 C 
ATOM      2  C   UNL     1       2.969   3.391  16.897  0.00  0.00    +0.000 C 
ENDROOT
BRANCH   1   3
ATOM      3  C   UNL     1       5.019   4.744  16.161  0.00  0.00    +0.000 C 
ATOM      4  C   UNL     1       5.220   6.272  16.013  0.00  0.00    +0.000 C 
ATOM      5  C   UNL     1       6.194   6.852  16.989  0.00  0.00    +0.000 C 
ATOM      6  C   UNL     1       7.164   6.108  17.554  0.00  0.00    +0.000 C 
ATOM      7  C   UNL     1       7.998   6.646  18.677  0.00  0.00    +0.000 C 
ATOM      8  C   UNL     1       7.410   4.680  17.144  0.00  0.00    +0.000 C 
ATOM      9  C   UNL     1       6.459   4.169  16.050  0.00  0.00    +0.000 C 
ENDBRANCH   1   3
BRANCH   1  10
ATOM     10  O   UNL     1       4.958   3.321  18.233  0.00  0.00    +0.000 OA
ATOM     11  H   UNL     1       5.384   3.837  18.930  0.00  0.00    +0.000 HD
ENDBRANCH   1  10
BRANCH   1  12
ATOM     12  C   UNL     1       3.619   5.299  18.350  0.00  0.00    +0.000 C 
BRANCH  12  13
ATOM     13  C   UNL     1       2.160   5.123  18.776  0.00  0.00    +0.000 C 
BRANCH  13  17
ATOM     14  C   UNL     1       1.420   2.714  21.740  0.00  0.00    +0.000 C 
ATOM     15  C   UNL     1       1.362   3.328  20.369  0.00  0.00    +0.000 C 
ATOM     16  C   UNL     1       0.640   2.551  19.301  0.00  0.00    +0.000 C 
ATOM     17  C   UNL     1       1.961   4.506  20.127  0.00  0.00    +0.000 C 
ENDBRANCH  13  17
ENDBRANCH  12  13
ENDBRANCH   1  12
TORSDOF 5
ENDMDL
MODEL 2
REMARK VINA RESULT:      -7.1      1.018      5.841
REMARK  Name = 
REMARK  9 active torsions:
REMARK  status: ('A' for Active; 'I' for Inactive)
REMARK    1  A    between atoms: C_1  and  C_2
REMARK    2  A    between atoms: C_2  and  C_3
REMARK    3  A    between atoms: C_4  and  C_5
REMARK    4  A    between atoms: C_5  and  C_6
REMARK    5  A    between atoms: C_6  and  C_7
REMARK    6  A    between atoms: C_7  and  C_8
REMARK    7  A    between atoms: C_7  and  O_9
REMARK    8  A    between atoms: C_7  and  C_10
REMARK    9  A    between atoms: C_13  and  C_14
REMARK                            x       y       z     vdW  Elec       q    Type
REMARK                         _______ _______ _______ _____ _____    ______ ____
ROOT
ATOM      1  C   UNL     1       4.179   4.181  17.663  0.00  0.00    +0.000 C 
ATOM      2  C   UNL     1       3.928   5.413  18.565  0.00  0.00    +0.000 C 
ENDROOT
BRANCH   1   3
ATOM      3  C   UNL     1       2.793   3.506  17.282  0.00  0.00    +0.000 C 
ATOM      4  C   UNL     1       2.508   2.063  17.765  0.00  0.00    +0.000 C 
ATOM      5  C   UNL     1       2.218   1.961  19.229  0.00  0.00    +0.000 C 
ATOM      6  C   UNL     1       1.737   3.002  19.935  0.00  0.00    +0.000 C 
ATOM      7  C   UNL     1       1.647   2.950  21.430  0.00  0.00    +0.000 C 
ATOM      8  C   UNL     1       1.340   4.294  19.272  0.00  0.00    +0.000 C 
ATOM      9  C   UNL     1       1.544   4.306  17.748  0.00  0.00    +0.000 C 
ENDBRANCH   1   3
BRANCH   1  10
ATOM     10  O   UNL     1       5.042   3.299  18.388  0.00  0.00    +0.000 OA
ATOM     11  H   UNL     1       5.889   3.737  18.540  0.00  0.00    +0.000 HD
ENDBRANCH   1  10
BRANCH   1  12
ATOM     12  C   UNL     1       5.017   4.699  16.449  0.00  0.00    +0.000 C 
BRANCH  12  13
ATOM     13  C   UNL     1       6.499   4.961  16.722  0.00  0.00    +0.000 C 
BRANCH  13  17
ATOM     14  C   UNL     1       8.084   8.333  17.841  0.00  0.00    +0.000 C 
ATOM     15  C   UNL     1       7.590   6.915  17.901  0.00  0.00    +0.000 C 
ATOM     16  C   UNL     1       7.965   6.110  19.117  0.00  0.00    +0.000 C 
ATOM     17  C   UNL     1       6.871   6.403  16.888  0.00  0.00    +0.000 C 
ENDBRANCH  13  17
ENDBRANCH  12  13
ENDBRANCH   1  12
TORSDOF 5
ENDMDL
MODEL 3
REMARK VINA RESULT:      -7.0      1.711      6.179
REMARK  Name = 
REMARK  9 active torsions:
REMARK  status: ('A' for Active; 'I' for Inactive)
REMARK    1  A    between atoms: C_1  and  C_2
REMARK    2  A    between atoms: C_2  and  C_3
REMARK    3  A    between atoms: C_4  and  C_5
REMARK    4  A    between atoms: C_5  and  C_6
REMARK    5  A    between atoms: C_6  and  C_7
REMARK    6  A    between atoms: C_7  and  C_8
REMARK    7  A    between atoms: C_7  and  O_9
REMARK    8  A    between atoms: C_7  and  C_10
REMARK    9  A    between atoms: C_13  and  C_14
REMARK                            x       y       z     vdW  Elec       q    Type
REMARK                         _______ _______ _______ _____ _____    ______ ____
ROOT
ATOM      1  C   UNL     1       4.731   4.087  18.254  0.00  0.00    +0.000 C 
ATOM      2  C   UNL     1       4.541   5.404  19.047  0.00  0.00    +0.000 C 
ENDROOT
BRANCH   1   3
ATOM      3  C   UNL     1       3.374   3.704  17.524  0.00  0.00    +0.000 C 
ATOM      4  C   UNL     1       2.806   2.275  17.706  0.00  0.00    +0.000 C 
ATOM      5  C   UNL     1       2.213   2.027  19.057  0.00  0.00    +0.000 C 
ATOM      6  C   UNL     1       1.742   3.030  19.823  0.00  0.00    +0.000 C 
ATOM      7  C   UNL     1       1.342   2.795  21.248  0.00  0.00    +0.000 C 
ATOM      8  C   UNL     1       1.665   4.446  19.317  0.00  0.00    +0.000 C 
ATOM      9  C   UNL     1       2.175   4.627  17.878  0.00  0.00    +0.000 C 
ENDBRANCH   1   3
BRANCH   1  10
ATOM     10  O   UNL     1       5.154   3.091  19.190  0.00  0.00    +0.000 OA
ATOM     11  H   UNL     1       4.951   2.216  18.836  0.00  0.00    +0.000 HD
ENDBRANCH   1  10
BRANCH   1  12
ATOM     12  C   UNL     1       5.947   4.328  17.303  0.00  0.00    +0.000 C 
BRANCH  12  13
ATOM     13  C   UNL     1       5.693   4.079  15.816  0.00  0.00    +0.000 C 
BRANCH  13  17
ATOM     14  C   UNL     1       7.777   5.180  12.720  0.00  0.00    +0.000 C 
ATOM     15  C   UNL     1       6.781   4.429  13.559  0.00  0.00    +0.000 C 
ATOM     16  C   UNL     1       5.818   3.527  12.835  0.00  0.00    +0.000 C 
ATOM     17  C   UNL     1       6.754   4.595  14.892  0.00  0.00    +0.000 C 
ENDBRANCH  13  17
ENDBRANCH  12  13
ENDBRANCH   1  12
TORSDOF 5
ENDMDL
MODEL 4
REMARK VINA RESULT:      -7.0      1.643      6.077
REMARK  Name = 
REMARK  9 active torsions:
REMARK  status: ('A' for Active; 'I' for Inactive)
REMARK    1  A    between atoms: C_1  and  C_2
REMARK    2  A    between atoms: C_2  and  C_3
REMARK    3  A    between atoms: C_4  and  C_5
REMARK    4  A    between atoms: C_5  and  C_6
REMARK    5  A    between atoms: C_6  and  C_7
REMARK    6  A    between atoms: C_7  and  C_8
REMARK    7  A    between atoms: C_7  and  O_9
REMARK    8  A    between atoms: C_7  and  C_10
REMARK    9  A    between atoms: C_13  and  C_14
REMARK                            x       y       z     vdW  Elec       q    Type
REMARK                         _______ _______ _______ _____ _____    ______ ____
ROOT
ATOM      1  C   UNL     1       4.693   4.104  18.129  0.00  0.00    +0.000 C 
ATOM      2  C   UNL     1       4.617   5.483  18.828  0.00  0.00    +0.000 C 
ENDROOT
BRANCH   1   3
ATOM      3  C   UNL     1       3.270   3.729  17.531  0.00  0.00    +0.000 C 
ATOM      4  C   UNL     1       2.716   2.302  17.763  0.00  0.00    +0.000 C 
ATOM      5  C   UNL     1       2.255   2.052  19.164  0.00  0.00    +0.000 C 
ATOM      6  C   UNL     1       1.864   3.054  19.974  0.00  0.00    +0.000 C 
ATOM      7  C   UNL     1       1.602   2.816  21.431  0.00  0.00    +0.000 C 
ATOM      8  C   UNL     1       1.745   4.472  19.483  0.00  0.00    +0.000 C 
ATOM      9  C   UNL     1       2.115   4.656  18.002  0.00  0.00    +0.000 C 
ENDBRANCH   1   3
BRANCH   1  10
ATOM     10  O   UNL     1       5.147   3.163  19.106  0.00  0.00    +0.000 OA
ATOM     11  H   UNL     1       6.098   3.271  19.234  0.00  0.00    +0.000 HD
ENDBRANCH   1  10
BRANCH   1  12
ATOM     12  C   UNL     1       5.842   4.218  17.076  0.00  0.00    +0.000 C 
BRANCH  12  13
ATOM     13  C   UNL     1       5.546   5.090  15.854  0.00  0.00    +0.000 C 
BRANCH  13  17
ATOM     14  C   UNL     1       6.093   3.309  12.439  0.00  0.00    +0.000 C 
ATOM     15  C   UNL     1       6.289   4.265  13.581  0.00  0.00    +0.000 C 
ATOM     16  C   UNL     1       7.551   5.086  13.578  0.00  0.00    +0.000 C 
ATOM     17  C   UNL     1       5.378   4.344  14.566  0.00  0.00    +0.000 C 
ENDBRANCH  13  17
ENDBRANCH  12  13
ENDBRANCH   1  12
TORSDOF 5
ENDMDL
MODEL 5
REMARK VINA RESULT:      -6.9      2.205      5.799
REMARK  Name = 
REMARK  9 active torsions:
REMARK  status: ('A' for Active; 'I' for Inactive)
REMARK    1  A    between atoms: C_1  and  C_2
REMARK    2  A    between atoms: C_2  and  C_3
REMARK    3  A    between atoms: C_4  and  C_5
REMARK    4  A    between atoms: C_5  and  C_6
REMARK    5  A    between atoms: C_6  and  C_7
REMARK    6  A    between atoms: C_7  and  C_8
REMARK    7  A    between atoms: C_7  and  O_9
REMARK    8  A    between atoms: C_7  and  C_10
REMARK    9  A    between atoms: C_13  and  C_14
REMARK                            x       y       z     vdW  Elec       q    Type
REMARK                         _______ _______ _______ _____ _____    ______ ____
ROOT
ATOM      1  C   UNL     1       6.464   5.443  17.427  0.00  0.00    +0.000 C 
ATOM      2  C   UNL     1       7.581   6.406  17.897  0.00  0.00    +0.000 C 
ENDROOT
BRANCH   1   3
ATOM      3  C   UNL     1       5.088   5.847  18.110  0.00  0.00    +0.000 C 
ATOM      4  C   UNL     1       3.772   5.621  17.326  0.00  0.00    +0.000 C 
ATOM      5  C   UNL     1       3.365   4.185  17.228  0.00  0.00    +0.000 C 
ATOM      6  C   UNL     1       3.764   3.268  18.129  0.00  0.00    +0.000 C 
ATOM      7  C   UNL     1       3.522   1.805  17.907  0.00  0.00    +0.000 C 
ATOM      8  C   UNL     1       4.539   3.652  19.362  0.00  0.00    +0.000 C 
ATOM      9  C   UNL     1       4.828   5.157  19.478  0.00  0.00    +0.000 C 
ENDBRANCH   1   3
BRANCH   1  10
ATOM     10  O   UNL     1       6.882   4.118  17.768  0.00  0.00    +0.000 OA
ATOM     11  H   UNL     1       7.012   4.062  18.723  0.00  0.00    +0.000 HD
ENDBRANCH   1  10
BRANCH   1  12
ATOM     12  C   UNL     1       6.469   5.506  15.865  0.00  0.00    +0.000 C 
BRANCH  12  13
ATOM     13  C   UNL     1       6.562   4.162  15.141  0.00  0.00    +0.000 C 
BRANCH  13  17
ATOM     14  C   UNL     1       4.655   3.290  11.864  0.00  0.00    +0.000 C 
ATOM     15  C   UNL     1       5.763   3.726  12.781  0.00  0.00    +0.000 C 
ATOM     16  C   UNL     1       7.132   3.882  12.175  0.00  0.00    +0.000 C 
ATOM     17  C   UNL     1       5.522   3.933  14.087  0.00  0.00    +0.000 C 
ENDBRANCH  13  17
ENDBRANCH  12  13
ENDBRANCH   1  12
TORSDOF 5
ENDMDL
MODEL 6
REMARK VINA RESULT:      -6.9      1.675      5.523
REMARK  Name = 
REMARK  9 active torsions:
REMARK  status: ('A' for Active; 'I' for Inactive)
REMARK    1  A    between atoms: C_1  and  C_2
REMARK    2  A    between atoms: C_2  and  C_3
REMARK    3  A    between atoms: C_4  and  C_5
REMARK    4  A    between atoms: C_5  and  C_6
REMARK    5  A    between atoms: C_6  and  C_7
REMARK    6  A    between atoms: C_7  and  C_8
REMARK    7  A    between atoms: C_7  and  O_9
REMARK    8  A    between atoms: C_7  and  C_10
REMARK    9  A    between atoms: C_13  and  C_14
REMARK                            x       y       z     vdW  Elec       q    Type
REMARK                         _______ _______ _______ _____ _____    ______ ____
ROOT
ATOM      1  C   UNL     1       3.698   2.140  18.989  0.00  0.00    +0.000 C 
ATOM      2  C   UNL     1       4.340   2.215  20.396  0.00  0.00    +0.000 C 
ENDROOT
BRANCH   1   3
ATOM      3  C   UNL     1       2.118   2.236  19.117  0.00  0.00    +0.000 C 
ATOM      4  C   UNL     1       1.504   2.677  20.468  0.00  0.00    +0.000 C 
ATOM      5  C   UNL     1       1.672   4.134  20.762  0.00  0.00    +0.000 C 
ATOM      6  C   UNL     1       1.841   5.044  19.784  0.00  0.00    +0.000 C 
ATOM      7  C   UNL     1       2.212   6.462  20.098  0.00  0.00    +0.000 C 
ATOM      8  C   UNL     1       1.744   4.671  18.328  0.00  0.00    +0.000 C 
ATOM      9  C   UNL     1       1.450   3.183  18.080  0.00  0.00    +0.000 C 
ENDBRANCH   1   3
BRANCH   1  10
ATOM     10  O   UNL     1       4.130   0.912  18.395  0.00  0.00    +0.000 OA
ATOM     11  H   UNL     1       5.094   0.860  18.438  0.00  0.00    +0.000 HD
ENDBRANCH   1  10
BRANCH   1  12
ATOM     12  C   UNL     1       4.363   3.280  18.151  0.00  0.00    +0.000 C 
BRANCH  12  13
ATOM     13  C   UNL     1       5.310   4.206  18.915  0.00  0.00    +0.000 C 
BRANCH  13  17
ATOM     14  C   UNL     1       7.289   7.165  17.345  0.00  0.00    +0.000 C 
ATOM     15  C   UNL     1       6.909   6.067  18.298  0.00  0.00    +0.000 C 
ATOM     16  C   UNL     1       7.919   5.692  19.349  0.00  0.00    +0.000 C 
ATOM     17  C   UNL     1       5.725   5.442  18.178  0.00  0.00    +0.000 C 
ENDBRANCH  13  17
ENDBRANCH  12  13
ENDBRANCH   1  12
TORSDOF 5
ENDMDL
MODEL 7
REMARK VINA RESULT:      -6.8      1.410      5.553
REMARK  Name = 
REMARK  9 active torsions:
REMARK  status: ('A' for Active; 'I' for Inactive)
REMARK    1  A    between atoms: C_1  and  C_2
REMARK    2  A    between atoms: C_2  and  C_3
REMARK    3  A    between atoms: C_4  and  C_5
REMARK    4  A    between atoms: C_5  and  C_6
REMARK    5  A    between atoms: C_6  and  C_7
REMARK    6  A    between atoms: C_7  and  C_8
REMARK    7  A    between atoms: C_7  and  O_9
REMARK    8  A    between atoms: C_7  and  C_10
REMARK    9  A    between atoms: C_13  and  C_14
REMARK                            x       y       z     vdW  Elec       q    Type
REMARK                         _______ _______ _______ _____ _____    ______ ____
ROOT
ATOM      1  C   UNL     1       3.513   5.712  18.558  0.00  0.00    +0.000 C 
ATOM      2  C   UNL     1       2.404   6.268  19.485  0.00  0.00    +0.000 C 
ENDROOT
BRANCH   1   3
ATOM      3  C   UNL     1       3.010   4.372  17.869  0.00  0.00    +0.000 C 
ATOM      4  C   UNL     1       3.683   3.033  18.259  0.00  0.00    +0.000 C 
ATOM      5  C   UNL     1       3.306   2.541  19.620  0.00  0.00    +0.000 C 
ATOM      6  C   UNL     1       2.150   2.897  20.212  0.00  0.00    +0.000 C 
ATOM      7  C   UNL     1       1.879   2.566  21.648  0.00  0.00    +0.000 C 
ATOM      8  C   UNL     1       1.108   3.711  19.492  0.00  0.00    +0.000 C 
ATOM      9  C   UNL     1       1.492   4.090  18.052  0.00  0.00    +0.000 C 
ENDBRANCH   1   3
BRANCH   1  10
ATOM     10  O   UNL     1       4.676   5.513  19.367  0.00  0.00    +0.000 OA
ATOM     11  H   UNL     1       4.817   6.294  19.917  0.00  0.00    +0.000 HD
ENDBRANCH   1  10
BRANCH   1  12
ATOM     12  C   UNL     1       3.869   6.869  17.570  0.00  0.00    +0.000 C 
BRANCH  12  13
ATOM     13  C   UNL     1       5.282   6.837  16.985  0.00  0.00    +0.000 C 
BRANCH  13  17
ATOM     14  C   UNL     1       6.152   3.946  14.531  0.00  0.00    +0.000 C 
ATOM     15  C   UNL     1       6.233   4.866  15.716  0.00  0.00    +0.000 C 
ATOM     16  C   UNL     1       7.191   4.486  16.814  0.00  0.00    +0.000 C 
ATOM     17  C   UNL     1       5.454   5.959  15.783  0.00  0.00    +0.000 C 
ENDBRANCH  13  17
ENDBRANCH  12  13
ENDBRANCH   1  12
TORSDOF 5
ENDMDL
MODEL 8
REMARK VINA RESULT:      -6.8      1.923      3.184
REMARK  Name = 
REMARK  9 active torsions:
REMARK  status: ('A' for Active; 'I' for Inactive)
REMARK    1  A    between atoms: C_1  and  C_2
REMARK    2  A    between atoms: C_2  and  C_3
REMARK    3  A    between atoms: C_4  and  C_5
REMARK    4  A    between atoms: C_5  and  C_6
REMARK    5  A    between atoms: C_6  and  C_7
REMARK    6  A    between atoms: C_7  and  C_8
REMARK    7  A    between atoms: C_7  and  O_9
REMARK    8  A    between atoms: C_7  and  C_10
REMARK    9  A    between atoms: C_13  and  C_14
REMARK                            x       y       z     vdW  Elec       q    Type
REMARK                         _______ _______ _______ _____ _____    ______ ____
ROOT
ATOM      1  C   UNL     1       3.066   6.571  18.332  0.00  0.00    +0.000 C 
ATOM      2  C   UNL     1       2.790   7.928  17.641  0.00  0.00    +0.000 C 
ENDROOT
BRANCH   1   3
ATOM      3  C   UNL     1       4.562   6.121  18.047  0.00  0.00    +0.000 C 
ATOM      4  C   UNL     1       5.283   5.223  19.082  0.00  0.00    +0.000 C 
ATOM      5  C   UNL     1       4.800   3.807  19.094  0.00  0.00    +0.000 C 
ATOM      6  C   UNL     1       4.222   3.242  18.017  0.00  0.00    +0.000 C 
ATOM      7  C   UNL     1       3.561   1.899  18.106  0.00  0.00    +0.000 C 
ATOM      8  C   UNL     1       4.138   3.957  16.695  0.00  0.00    +0.000 C 
ATOM      9  C   UNL     1       4.756   5.365  16.703  0.00  0.00    +0.000 C 
ENDBRANCH   1   3
BRANCH   1  10
ATOM     10  O   UNL     1       2.104   5.640  17.829  0.00  0.00    +0.000 OA
ATOM     11  H   UNL     1       1.337   6.124  17.496  0.00  0.00    +0.000 HD
ENDBRANCH   1  10
BRANCH   1  12
ATOM     12  C   UNL     1       2.716   6.777  19.842  0.00  0.00    +0.000 C 
BRANCH  12  13
ATOM     13  C   UNL     1       1.570   5.922  20.385  0.00  0.00    +0.000 C 
BRANCH  13  17
ATOM     14  C   UNL     1       2.332   2.330  21.670  0.00  0.00    +0.000 C 
ATOM     15  C   UNL     1       1.670   3.452  20.921  0.00  0.00    +0.000 C 
ATOM     16  C   UNL     1       0.676   3.072  19.856  0.00  0.00    +0.000 C 
ATOM     17  C   UNL     1       1.990   4.729  21.188  0.00  0.00    +0.000 C 
ENDBRANCH  13  17
ENDBRANCH  12  13
ENDBRANCH   1  12
TORSDOF 5
ENDMDL
MODEL 9
REMARK VINA RESULT:      -6.7      2.216      5.839
REMARK  Name = 
REMARK  9 active torsions:
REMARK  status: ('A' for Active; 'I' for Inactive)
REMARK    1  A    between atoms: C_1  and  C_2
REMARK    2  A    between atoms: C_2  and  C_3
REMARK    3  A    between atoms: C_4  and  C_5
REMARK    4  A    between atoms: C_5  and  C_6
REMARK    5  A    between atoms: C_6  and  C_7
REMARK    6  A    between atoms: C_7  and  C_8
REMARK    7  A    between atoms: C_7  and  O_9
REMARK    8  A    between atoms: C_7  and  C_10
REMARK    9  A    between atoms: C_13  and  C_14
REMARK                            x       y       z     vdW  Elec       q    Type
REMARK                         _______ _______ _______ _____ _____    ______ ____
ROOT
ATOM      1  C   UNL     1       5.997   5.521  17.129  0.00  0.00    +0.000 C 
ATOM      2  C   UNL     1       7.162   6.541  17.109  0.00  0.00    +0.000 C 
ENDROOT
BRANCH   1   3
ATOM      3  C   UNL     1       4.972   5.906  18.279  0.00  0.00    +0.000 C 
ATOM      4  C   UNL     1       3.475   6.075  17.919  0.00  0.00    +0.000 C 
ATOM      5  C   UNL     1       2.770   4.785  17.645  0.00  0.00    +0.000 C 
ATOM      6  C   UNL     1       3.200   3.615  18.154  0.00  0.00    +0.000 C 
ATOM      7  C   UNL     1       2.610   2.311  17.708  0.00  0.00    +0.000 C 
ATOM      8  C   UNL     1       4.341   3.548  19.134  0.00  0.00    +0.000 C 
ATOM      9  C   UNL     1       4.955   4.915  19.477  0.00  0.00    +0.000 C 
ENDBRANCH   1   3
BRANCH   1  10
ATOM     10  O   UNL     1       6.576   4.226  17.315  0.00  0.00    +0.000 OA
ATOM     11  H   UNL     1       6.265   3.856  18.151  0.00  0.00    +0.000 HD
ENDBRANCH   1  10
BRANCH   1  12
ATOM     12  C   UNL     1       5.399   5.521  15.685  0.00  0.00    +0.000 C 
BRANCH  12  13
ATOM     13  C   UNL     1       5.298   4.156  15.003  0.00  0.00    +0.000 C 
BRANCH  13  17
ATOM     14  C   UNL     1       7.200   3.605  11.653  0.00  0.00    +0.000 C 
ATOM     15  C   UNL     1       6.079   3.632  12.654  0.00  0.00    +0.000 C 
ATOM     16  C   UNL     1       4.688   3.389  12.132  0.00  0.00    +0.000 C 
ATOM     17  C   UNL     1       6.330   3.893  13.948  0.00  0.00    +0.000 C 
ENDBRANCH  13  17
ENDBRANCH  12  13
ENDBRANCH   1  12
TORSDOF 5
ENDMDL
