MODEL 1
REMARK VINA RESULT:      -8.8      0.000      0.000
REMARK  Name = 
REMARK  6 active torsions:
REMARK  status: ('A' for Active; 'I' for Inactive)
REMARK    1  A    between atoms: C_1  and  C_2
REMARK    2  A    between atoms: C_7  and  N_8
REMARK    3  A    between atoms: C_9  and  C_10
REMARK    4  A    between atoms: C_10  and  N_11
REMARK    5  A    between atoms: C_13  and  C_14
REMARK    6  A    between atoms: C_28  and  C_29
REMARK                            x       y       z     vdW  Elec       q    Type
REMARK                         _______ _______ _______ _____ _____    ______ ____
ROOT
ATOM      1  N   UNL     1       3.568   4.310  18.361  0.00  0.00    +0.000 N 
ATOM      2  C   UNL     1       3.891   5.533  18.883  0.00  0.00    +0.000 A 
ATOM      3  N   UNL     1       5.069   5.719  19.392  0.00  0.00    +0.000 NA
ATOM      4  C   UNL     1       6.045   5.511  18.408  0.00  0.00    +0.000 A 
ATOM      5  C   UNL     1       7.147   6.357  18.546  0.00  0.00    +0.000 A 
ATOM      6  C   UNL     1       7.819   6.768  17.419  0.00  0.00    +0.000 A 
ATOM      7  C   UNL     1       7.430   6.255  16.184  0.00  0.00    +0.000 A 
ATOM      8  C   UNL     1       6.425   5.248  16.045  0.00  0.00    +0.000 A 
ATOM      9  C   UNL     1       6.163   4.850  14.614  0.00  0.00    +0.000 C 
ATOM     10  C   UNL     1       5.726   4.832  17.206  0.00  0.00    +0.000 A 
ATOM     11  C   UNL     1       4.499   3.864  17.388  0.00  0.00    +0.000 A 
ATOM     12  O   UNL     1       4.415   2.833  16.736  0.00  0.00    +0.000 OA
ENDROOT
BRANCH   1  19
ATOM     13  C   UNL     1       0.635   3.609  18.022  0.00  0.00    +0.000 C 
ATOM     14  C   UNL     1       1.445   3.217  19.218  0.00  0.00    +0.000 A 
ATOM     15  C   UNL     1       0.699   2.703  20.335  0.00  0.00    +0.000 A 
ATOM     16  C   UNL     1       1.288   2.478  21.574  0.00  0.00    +0.000 A 
ATOM     17  C   UNL     1       2.632   2.759  21.719  0.00  0.00    +0.000 A 
ATOM     18  C   UNL     1       3.380   3.225  20.609  0.00  0.00    +0.000 A 
ATOM     19  C   UNL     1       2.828   3.452  19.322  0.00  0.00    +0.000 A 
ENDBRANCH   1  19
BRANCH   2  20
ATOM     20  C   UNL     1       3.076   6.680  18.340  0.00  0.00    +0.000 C 
BRANCH  20  21
ATOM     21  N   UNL     1       2.212   7.285  19.356  0.00  0.00    +0.000 N 
ATOM     22  C   UNL     1       1.728   8.565  19.416  0.00  0.00    +0.000 A 
ATOM     23  C   UNL     1       1.104   8.646  20.646  0.00  0.00    +0.000 A 
ATOM     24  N   UNL     1       1.197   7.421  21.260  0.00  0.00    +0.000 NA
ATOM     25  N   UNL     1       1.860   6.594  20.457  0.00  0.00    +0.000 NA
BRANCH  23  26
ATOM     26  C   UNL     1       0.464   9.814  21.241  0.00  0.00    +0.000 A 
ATOM     27  C   UNL     1       0.643  11.103  20.722  0.00  0.00    +0.000 A 
ATOM     28  C   UNL     1       0.024  12.219  21.320  0.00  0.00    +0.000 A 
ATOM     29  C   UNL     1      -0.756  12.050  22.461  0.00  0.00    +0.000 A 
ATOM     30 BR   UNL     1      -1.553  13.553  23.278  0.00  0.00    +0.000 Br
ATOM     31  C   UNL     1      -0.952  10.778  22.987  0.00  0.00    +0.000 A 
ATOM     32  C   UNL     1      -0.347   9.670  22.378  0.00  0.00    +0.000 A 
ENDBRANCH  23  26
ENDBRANCH  20  21
ENDBRANCH   2  20
TORSDOF 4
ENDMDL
MODEL 2
REMARK VINA RESULT:      -8.2      1.241      1.851
REMARK  Name = 
REMARK  6 active torsions:
REMARK  status: ('A' for Active; 'I' for Inactive)
REMARK    1  A    between atoms: C_1  and  C_2
REMARK    2  A    between atoms: C_7  and  N_8
REMARK    3  A    between atoms: C_9  and  C_10
REMARK    4  A    between atoms: C_10  and  N_11
REMARK    5  A    between atoms: C_13  and  C_14
REMARK    6  A    between atoms: C_28  and  C_29
REMARK                            x       y       z     vdW  Elec       q    Type
REMARK                         _______ _______ _______ _____ _____    ______ ____
ROOT
ATOM      1  N   UNL     1       3.394   4.581  18.060  0.00  0.00    +0.000 N 
ATOM      2  C   UNL     1       4.122   5.730  18.213  0.00  0.00    +0.000 A 
ATOM      3  N   UNL     1       5.401   5.654  18.410  0.00  0.00    +0.000 NA
ATOM      4  C   UNL     1       6.010   5.020  17.318  0.00  0.00    +0.000 A 
ATOM      5  C   UNL     1       7.276   5.529  17.030  0.00  0.00    +0.000 A 
ATOM      6  C   UNL     1       7.710   5.542  15.725  0.00  0.00    +0.000 A 
ATOM      7  C   UNL     1       6.903   4.967  14.746  0.00  0.00    +0.000 A 
ATOM      8  C   UNL     1       5.688   4.278  15.051  0.00  0.00    +0.000 A 
ATOM      9  C   UNL     1       4.976   3.744  13.833  0.00  0.00    +0.000 C 
ATOM     10  C   UNL     1       5.237   4.273  16.395  0.00  0.00    +0.000 A 
ATOM     11  C   UNL     1       3.907   3.736  17.042  0.00  0.00    +0.000 A 
ATOM     12  O   UNL     1       3.415   2.679  16.672  0.00  0.00    +0.000 OA
ENDROOT
BRANCH   1  19
ATOM     13  C   UNL     1       4.731   2.679  20.010  0.00  0.00    +0.000 C 
ATOM     14  C   UNL     1       3.327   3.174  20.170  0.00  0.00    +0.000 A 
ATOM     15  C   UNL     1       2.540   2.501  21.167  0.00  0.00    +0.000 A 
ATOM     16  C   UNL     1       1.173   2.720  21.297  0.00  0.00    +0.000 A 
ATOM     17  C   UNL     1       0.569   3.615  20.436  0.00  0.00    +0.000 A 
ATOM     18  C   UNL     1       1.350   4.312  19.480  0.00  0.00    +0.000 A 
ATOM     19  C   UNL     1       2.749   4.136  19.322  0.00  0.00    +0.000 A 
ENDBRANCH   1  19
BRANCH   2  20
ATOM     20  C   UNL     1       3.488   6.956  17.606  0.00  0.00    +0.000 C 
BRANCH  20  21
ATOM     21  N   UNL     1       2.560   7.621  18.523  0.00  0.00    +0.000 N 
ATOM     22  C   UNL     1       1.688   8.646  18.264  0.00  0.00    +0.000 A 
ATOM     23  C   UNL     1       1.176   8.989  19.500  0.00  0.00    +0.000 A 
ATOM     24  N   UNL     1       1.717   8.148  20.442  0.00  0.00    +0.000 NA
ATOM     25  N   UNL     1       2.547   7.307  19.832  0.00  0.00    +0.000 NA
BRANCH  23  26
ATOM     26  C   UNL     1       0.238  10.064  19.804  0.00  0.00    +0.000 A 
ATOM     27  C   UNL     1      -0.761  10.455  18.903  0.00  0.00    +0.000 A 
ATOM     28  C   UNL     1      -1.648  11.504  19.213  0.00  0.00    +0.000 A 
ATOM     29  C   UNL     1      -1.521  12.186  20.420  0.00  0.00    +0.000 A 
ATOM     30 BR   UNL     1      -2.691  13.614  20.813  0.00  0.00    +0.000 Br
ATOM     31  C   UNL     1      -0.542  11.809  21.331  0.00  0.00    +0.000 A 
ATOM     32  C   UNL     1       0.329  10.754  21.025  0.00  0.00    +0.000 A 
ENDBRANCH  23  26
ENDBRANCH  20  21
ENDBRANCH   2  20
TORSDOF 4
ENDMDL
MODEL 3
REMARK VINA RESULT:      -8.1      1.711      5.112
REMARK  Name = 
REMARK  6 active torsions:
REMARK  status: ('A' for Active; 'I' for Inactive)
REMARK    1  A    between atoms: C_1  and  C_2
REMARK    2  A    between atoms: C_7  and  N_8
REMARK    3  A    between atoms: C_9  and  C_10
REMARK    4  A    between atoms: C_10  and  N_11
REMARK    5  A    between atoms: C_13  and  C_14
REMARK    6  A    between atoms: C_28  and  C_29
REMARK                            x       y       z     vdW  Elec       q    Type
REMARK                         _______ _______ _______ _____ _____    ______ ____
ROOT
ATOM      1  N   UNL     1       4.783   4.138  18.159  0.00  0.00    +0.000 N 
ATOM      2  C   UNL     1       3.783   5.071  18.110  0.00  0.00    +0.000 A 
ATOM      3  N   UNL     1       2.603   4.721  17.703  0.00  0.00    +0.000 NA
ATOM      4  C   UNL     1       2.088   3.729  18.548  0.00  0.00    +0.000 A 
ATOM      5  C   UNL     1       0.708   3.825  18.723  0.00  0.00    +0.000 A 
ATOM      6  C   UNL     1       0.157   3.439  19.924  0.00  0.00    +0.000 A 
ATOM      7  C   UNL     1       0.989   2.883  20.893  0.00  0.00    +0.000 A 
ATOM      8  C   UNL     1       2.373   2.608  20.660  0.00  0.00    +0.000 A 
ATOM      9  C   UNL     1       3.079   2.014  21.853  0.00  0.00    +0.000 C 
ATOM     10  C   UNL     1       2.941   3.014  19.426  0.00  0.00    +0.000 A 
ATOM     11  C   UNL     1       4.426   2.987  18.908  0.00  0.00    +0.000 A 
ATOM     12  O   UNL     1       5.154   2.034  19.147  0.00  0.00    +0.000 OA
ENDROOT
BRANCH   1  19
ATOM     13  C   UNL     1       7.582   5.310  18.168  0.00  0.00    +0.000 C 
ATOM     14  C   UNL     1       6.905   4.800  16.935  0.00  0.00    +0.000 A 
ATOM     15  C   UNL     1       7.549   5.126  15.691  0.00  0.00    +0.000 A 
ATOM     16  C   UNL     1       6.941   4.887  14.463  0.00  0.00    +0.000 A 
ATOM     17  C   UNL     1       5.684   4.318  14.455  0.00  0.00    +0.000 A 
ATOM     18  C   UNL     1       5.065   3.956  15.678  0.00  0.00    +0.000 A 
ATOM     19  C   UNL     1       5.651   4.162  16.953  0.00  0.00    +0.000 A 
ENDBRANCH   1  19
BRANCH   2  20
ATOM     20  C   UNL     1       3.985   6.251  19.027  0.00  0.00    +0.000 C 
BRANCH  20  21
ATOM     21  N   UNL     1       3.117   7.381  18.686  0.00  0.00    +0.000 N 
ATOM     22  C   UNL     1       2.134   7.964  19.442  0.00  0.00    +0.000 A 
ATOM     23  C   UNL     1       1.532   8.872  18.594  0.00  0.00    +0.000 A 
ATOM     24  N   UNL     1       2.187   8.836  17.386  0.00  0.00    +0.000 NA
ATOM     25  N   UNL     1       3.162   7.935  17.460  0.00  0.00    +0.000 NA
BRANCH  23  26
ATOM     26  C   UNL     1       0.385   9.727  18.878  0.00  0.00    +0.000 A 
ATOM     27  C   UNL     1      -0.603   9.987  17.919  0.00  0.00    +0.000 A 
ATOM     28  C   UNL     1      -1.696  10.825  18.211  0.00  0.00    +0.000 A 
ATOM     29  C   UNL     1      -1.790  11.431  19.462  0.00  0.00    +0.000 A 
ATOM     30 BR   UNL     1      -3.239  12.582  19.834  0.00  0.00    +0.000 Br
ATOM     31  C   UNL     1      -0.825  11.180  20.429  0.00  0.00    +0.000 A 
ATOM     32  C   UNL     1       0.253  10.332  20.139  0.00  0.00    +0.000 A 
ENDBRANCH  23  26
ENDBRANCH  20  21
ENDBRANCH   2  20
TORSDOF 4
ENDMDL
MODEL 4
REMARK VINA RESULT:      -8.0      0.952      1.051
REMARK  Name = 
REMARK  6 active torsions:
REMARK  status: ('A' for Active; 'I' for Inactive)
REMARK    1  A    between atoms: C_1  and  C_2
REMARK    2  A    between atoms: C_7  and  N_8
REMARK    3  A    between atoms: C_9  and  C_10
REMARK    4  A    between atoms: C_10  and  N_11
REMARK    5  A    between atoms: C_13  and  C_14
REMARK    6  A    between atoms: C_28  and  C_29
REMARK                            x       y       z     vdW  Elec       q    Type
REMARK                         _______ _______ _______ _____ _____    ______ ____
ROOT
ATOM      1  N   UNL     1       3.631   4.311  18.207  0.00  0.00    +0.000 N 
ATOM      2  C   UNL     1       3.859   5.598  18.614  0.00  0.00    +0.000 A 
ATOM      3  N   UNL     1       4.980   5.895  19.192  0.00  0.00    +0.000 NA
ATOM      4  C   UNL     1       6.045   5.631  18.319  0.00  0.00    +0.000 A 
ATOM      5  C   UNL     1       7.095   6.539  18.450  0.00  0.00    +0.000 A 
ATOM      6  C   UNL     1       7.845   6.859  17.342  0.00  0.00    +0.000 A 
ATOM      7  C   UNL     1       7.584   6.198  16.145  0.00  0.00    +0.000 A 
ATOM      8  C   UNL     1       6.635   5.133  16.039  0.00  0.00    +0.000 A 
ATOM      9  C   UNL     1       6.512   4.571  14.645  0.00  0.00    +0.000 C 
ATOM     10  C   UNL     1       5.857   4.811  17.179  0.00  0.00    +0.000 A 
ATOM     11  C   UNL     1       4.659   3.809  17.369  0.00  0.00    +0.000 A 
ATOM     12  O   UNL     1       4.673   2.710  16.831  0.00  0.00    +0.000 OA
ENDROOT
BRANCH   1  19
ATOM     13  C   UNL     1       0.661   3.771  17.898  0.00  0.00    +0.000 C 
ATOM     14  C   UNL     1       1.452   3.368  19.103  0.00  0.00    +0.000 A 
ATOM     15  C   UNL     1       0.682   2.932  20.236  0.00  0.00    +0.000 A 
ATOM     16  C   UNL     1       1.263   2.710  21.479  0.00  0.00    +0.000 A 
ATOM     17  C   UNL     1       2.621   2.917  21.613  0.00  0.00    +0.000 A 
ATOM     18  C   UNL     1       3.391   3.305  20.487  0.00  0.00    +0.000 A 
ATOM     19  C   UNL     1       2.847   3.526  19.195  0.00  0.00    +0.000 A 
ENDBRANCH   1  19
BRANCH   2  20
ATOM     20  C   UNL     1       3.047   6.637  17.883  0.00  0.00    +0.000 C 
BRANCH  20  21
ATOM     21  N   UNL     1       2.243   7.460  18.788  0.00  0.00    +0.000 N 
ATOM     22  C   UNL     1       1.631   8.661  18.537  0.00  0.00    +0.000 A 
ATOM     23  C   UNL     1       1.146   9.069  19.765  0.00  0.00    +0.000 A 
ATOM     24  N   UNL     1       1.442   8.099  20.692  0.00  0.00    +0.000 NA
ATOM     25  N   UNL     1       2.097   7.116  20.081  0.00  0.00    +0.000 NA
BRANCH  23  26
ATOM     26  C   UNL     1       0.453  10.314  20.075  0.00  0.00    +0.000 A 
ATOM     27  C   UNL     1       1.026  11.299  20.890  0.00  0.00    +0.000 A 
ATOM     28  C   UNL     1       0.334  12.489  21.187  0.00  0.00    +0.000 A 
ATOM     29  C   UNL     1      -0.952  12.686  20.689  0.00  0.00    +0.000 A 
ATOM     30 BR   UNL     1      -1.887  14.267  21.120  0.00  0.00    +0.000 Br
ATOM     31  C   UNL     1      -1.535  11.725  19.872  0.00  0.00    +0.000 A 
ATOM     32  C   UNL     1      -0.835  10.549  19.567  0.00  0.00    +0.000 A 
ENDBRANCH  23  26
ENDBRANCH  20  21
ENDBRANCH   2  20
TORSDOF 4
ENDMDL
MODEL 5
REMARK VINA RESULT:      -7.8      0.998      1.411
REMARK  Name = 
REMARK  6 active torsions:
REMARK  status: ('A' for Active; 'I' for Inactive)
REMARK    1  A    between atoms: C_1  and  C_2
REMARK    2  A    between atoms: C_7  and  N_8
REMARK    3  A    between atoms: C_9  and  C_10
REMARK    4  A    between atoms: C_10  and  N_11
REMARK    5  A    between atoms: C_13  and  C_14
REMARK    6  A    between atoms: C_28  and  C_29
REMARK                            x       y       z     vdW  Elec       q    Type
REMARK                         _______ _______ _______ _____ _____    ______ ____
ROOT
ATOM      1  N   UNL     1       3.508   4.054  18.228  0.00  0.00    +0.000 N 
ATOM      2  C   UNL     1       3.603   5.404  18.431  0.00  0.00    +0.000 A 
ATOM      3  N   UNL     1       4.672   5.893  18.978  0.00  0.00    +0.000 NA
ATOM      4  C   UNL     1       5.787   5.599  18.181  0.00  0.00    +0.000 A 
ATOM      5  C   UNL     1       6.745   6.613  18.189  0.00  0.00    +0.000 A 
ATOM      6  C   UNL     1       7.502   6.827  17.060  0.00  0.00    +0.000 A 
ATOM      7  C   UNL     1       7.344   5.966  15.977  0.00  0.00    +0.000 A 
ATOM      8  C   UNL     1       6.501   4.812  16.021  0.00  0.00    +0.000 A 
ATOM      9  C   UNL     1       6.479   4.032  14.730  0.00  0.00    +0.000 C 
ATOM     10  C   UNL     1       5.715   4.598  17.181  0.00  0.00    +0.000 A 
ATOM     11  C   UNL     1       4.607   3.528  17.501  0.00  0.00    +0.000 A 
ATOM     12  O   UNL     1       4.739   2.366  17.143  0.00  0.00    +0.000 OA
ENDROOT
BRANCH   1  19
ATOM     13  C   UNL     1       0.538   3.456  18.063  0.00  0.00    +0.000 C 
ATOM     14  C   UNL     1       1.369   3.180  19.276  0.00  0.00    +0.000 A 
ATOM     15  C   UNL     1       0.638   2.848  20.469  0.00  0.00    +0.000 A 
ATOM     16  C   UNL     1       1.258   2.754  21.710  0.00  0.00    +0.000 A 
ATOM     17  C   UNL     1       2.617   2.987  21.782  0.00  0.00    +0.000 A 
ATOM     18  C   UNL     1       3.348   3.272  20.601  0.00  0.00    +0.000 A 
ATOM     19  C   UNL     1       2.764   3.360  19.311  0.00  0.00    +0.000 A 
ENDBRANCH   1  19
BRANCH   2  20
ATOM     20  C   UNL     1       2.728   6.235  17.528  0.00  0.00    +0.000 C 
BRANCH  20  21
ATOM     21  N   UNL     1       2.327   7.501  18.145  0.00  0.00    +0.000 N 
ATOM     22  C   UNL     1       1.600   7.704  19.289  0.00  0.00    +0.000 A 
ATOM     23  C   UNL     1       1.380   9.067  19.326  0.00  0.00    +0.000 A 
ATOM     24  N   UNL     1       2.005   9.637  18.243  0.00  0.00    +0.000 NA
ATOM     25  N   UNL     1       2.593   8.674  17.539  0.00  0.00    +0.000 NA
BRANCH  23  26
ATOM     26  C   UNL     1       0.607   9.814  20.311  0.00  0.00    +0.000 A 
ATOM     27  C   UNL     1       0.457   9.369  21.631  0.00  0.00    +0.000 A 
ATOM     28  C   UNL     1      -0.304  10.100  22.563  0.00  0.00    +0.000 A 
ATOM     29  C   UNL     1      -0.944  11.272  22.168  0.00  0.00    +0.000 A 
ATOM     30 BR   UNL     1      -1.991  12.229  23.413  0.00  0.00    +0.000 Br
ATOM     31  C   UNL     1      -0.803  11.736  20.866  0.00  0.00    +0.000 A 
ATOM     32  C   UNL     1      -0.031  11.012  19.946  0.00  0.00    +0.000 A 
ENDBRANCH  23  26
ENDBRANCH  20  21
ENDBRANCH   2  20
TORSDOF 4
ENDMDL
MODEL 6
REMARK VINA RESULT:      -7.7      4.440     10.075
REMARK  Name = 
REMARK  6 active torsions:
REMARK  status: ('A' for Active; 'I' for Inactive)
REMARK    1  A    between atoms: C_1  and  C_2
REMARK    2  A    between atoms: C_7  and  N_8
REMARK    3  A    between atoms: C_9  and  C_10
REMARK    4  A    between atoms: C_10  and  N_11
REMARK    5  A    between atoms: C_13  and  C_14
REMARK    6  A    between atoms: C_28  and  C_29
REMARK                            x       y       z     vdW  Elec       q    Type
REMARK                         _______ _______ _______ _____ _____    ______ ____
ROOT
ATOM      1  N   UNL     1       0.411  12.968  19.914  0.00  0.00    +0.000 N 
ATOM      2  C   UNL     1       0.323  11.775  20.579  0.00  0.00    +0.000 A 
ATOM      3  N   UNL     1       0.212  11.771  21.871  0.00  0.00    +0.000 NA
ATOM      4  C   UNL     1      -0.959  12.446  22.245  0.00  0.00    +0.000 A 
ATOM      5  C   UNL     1      -1.569  11.893  23.371  0.00  0.00    +0.000 A 
ATOM      6  C   UNL     1      -2.939  11.946  23.482  0.00  0.00    +0.000 A 
ATOM      7  C   UNL     1      -3.663  12.627  22.507  0.00  0.00    +0.000 A 
ATOM      8  C   UNL     1      -3.039  13.356  21.446  0.00  0.00    +0.000 A 
ATOM      9  C   UNL     1      -4.020  14.007  20.504  0.00  0.00    +0.000 C 
ATOM     10  C   UNL     1      -1.628  13.293  21.328  0.00  0.00    +0.000 A 
ATOM     11  C   UNL     1      -0.653  13.852  20.227  0.00  0.00    +0.000 A 
ATOM     12  O   UNL     1      -0.837  14.956  19.732  0.00  0.00    +0.000 OA
ENDROOT
BRANCH   1  19
ATOM     13  C   UNL     1       2.042  14.764  21.736  0.00  0.00    +0.000 C 
ATOM     14  C   UNL     1       2.529  14.275  20.409  0.00  0.00    +0.000 A 
ATOM     15  C   UNL     1       3.721  14.906  19.911  0.00  0.00    +0.000 A 
ATOM     16  C   UNL     1       4.181  14.694  18.617  0.00  0.00    +0.000 A 
ATOM     17  C   UNL     1       3.463  13.846  17.798  0.00  0.00    +0.000 A 
ATOM     18  C   UNL     1       2.312  13.188  18.299  0.00  0.00    +0.000 A 
ATOM     19  C   UNL     1       1.813  13.358  19.616  0.00  0.00    +0.000 A 
ENDBRANCH   1  19
BRANCH   2  20
ATOM     20  C   UNL     1      -0.179  10.627  19.740  0.00  0.00    +0.000 C 
BRANCH  20  21
ATOM     21  N   UNL     1       0.778   9.521  19.672  0.00  0.00    +0.000 N 
ATOM     22  C   UNL     1       1.502   9.080  18.595  0.00  0.00    +0.000 A 
ATOM     23  C   UNL     1       2.119   7.927  19.037  0.00  0.00    +0.000 A 
ATOM     24  N   UNL     1       1.784   7.734  20.355  0.00  0.00    +0.000 NA
ATOM     25  N   UNL     1       0.979   8.722  20.736  0.00  0.00    +0.000 NA
BRANCH  23  26
ATOM     26  C   UNL     1       2.970   7.025  18.269  0.00  0.00    +0.000 A 
ATOM     27  C   UNL     1       3.982   7.499  17.424  0.00  0.00    +0.000 A 
ATOM     28  C   UNL     1       4.785   6.611  16.682  0.00  0.00    +0.000 A 
ATOM     29  C   UNL     1       4.556   5.239  16.762  0.00  0.00    +0.000 A 
ATOM     30 BR   UNL     1       5.612   4.057  15.737  0.00  0.00    +0.000 Br
ATOM     31  C   UNL     1       3.562   4.748  17.599  0.00  0.00    +0.000 A 
ATOM     32  C   UNL     1       2.778   5.636  18.348  0.00  0.00    +0.000 A 
ENDBRANCH  23  26
ENDBRANCH  20  21
ENDBRANCH   2  20
TORSDOF 4
ENDMDL
MODEL 7
REMARK VINA RESULT:      -7.7      1.185      1.931
REMARK  Name = 
REMARK  6 active torsions:
REMARK  status: ('A' for Active; 'I' for Inactive)
REMARK    1  A    between atoms: C_1  and  C_2
REMARK    2  A    between atoms: C_7  and  N_8
REMARK    3  A    between atoms: C_9  and  C_10
REMARK    4  A    between atoms: C_10  and  N_11
REMARK    5  A    between atoms: C_13  and  C_14
REMARK    6  A    between atoms: C_28  and  C_29
REMARK                            x       y       z     vdW  Elec       q    Type
REMARK                         _______ _______ _______ _____ _____    ______ ____
ROOT
ATOM      1  N   UNL     1       3.375   4.538  18.247  0.00  0.00    +0.000 N 
ATOM      2  C   UNL     1       3.690   5.870  18.275  0.00  0.00    +0.000 A 
ATOM      3  N   UNL     1       4.878   6.237  18.641  0.00  0.00    +0.000 NA
ATOM      4  C   UNL     1       5.830   5.690  17.769  0.00  0.00    +0.000 A 
ATOM      5  C   UNL     1       6.919   6.534  17.553  0.00  0.00    +0.000 A 
ATOM      6  C   UNL     1       7.552   6.509  16.332  0.00  0.00    +0.000 A 
ATOM      7  C   UNL     1       7.138   5.577  15.383  0.00  0.00    +0.000 A 
ATOM      8  C   UNL     1       6.148   4.582  15.656  0.00  0.00    +0.000 A 
ATOM      9  C   UNL     1       5.852   3.687  14.479  0.00  0.00    +0.000 C 
ATOM     10  C   UNL     1       5.490   4.615  16.911  0.00  0.00    +0.000 A 
ATOM     11  C   UNL     1       4.286   3.773  17.475  0.00  0.00    +0.000 A 
ATOM     12  O   UNL     1       4.203   2.574  17.247  0.00  0.00    +0.000 OA
ENDROOT
BRANCH   1  19
ATOM     13  C   UNL     1       4.769   2.986  20.450  0.00  0.00    +0.000 C 
ATOM     14  C   UNL     1       3.301   3.277  20.447  0.00  0.00    +0.000 A 
ATOM     15  C   UNL     1       2.523   2.562  21.422  0.00  0.00    +0.000 A 
ATOM     16  C   UNL     1       1.133   2.584  21.413  0.00  0.00    +0.000 A 
ATOM     17  C   UNL     1       0.495   3.321  20.436  0.00  0.00    +0.000 A 
ATOM     18  C   UNL     1       1.260   4.062  19.500  0.00  0.00    +0.000 A 
ATOM     19  C   UNL     1       2.679   4.086  19.479  0.00  0.00    +0.000 A 
ENDBRANCH   1  19
BRANCH   2  20
ATOM     20  C   UNL     1       2.839   6.732  17.377  0.00  0.00    +0.000 C 
BRANCH  20  21
ATOM     21  N   UNL     1       2.359   7.940  18.051  0.00  0.00    +0.000 N 
ATOM     22  C   UNL     1       1.598   8.042  19.186  0.00  0.00    +0.000 A 
ATOM     23  C   UNL     1       1.304   9.388  19.291  0.00  0.00    +0.000 A 
ATOM     24  N   UNL     1       1.921  10.047  18.255  0.00  0.00    +0.000 NA
ATOM     25  N   UNL     1       2.574   9.156  17.515  0.00  0.00    +0.000 NA
BRANCH  23  26
ATOM     26  C   UNL     1       0.472  10.039  20.296  0.00  0.00    +0.000 A 
ATOM     27  C   UNL     1       0.458   9.621  21.633  0.00  0.00    +0.000 A 
ATOM     28  C   UNL     1      -0.362  10.257  22.585  0.00  0.00    +0.000 A 
ATOM     29  C   UNL     1      -1.197  11.301  22.193  0.00  0.00    +0.000 A 
ATOM     30 BR   UNL     1      -2.319  12.125  23.467  0.00  0.00    +0.000 Br
ATOM     31  C   UNL     1      -1.192  11.737  20.874  0.00  0.00    +0.000 A 
ATOM     32  C   UNL     1      -0.362  11.111  19.934  0.00  0.00    +0.000 A 
ENDBRANCH  23  26
ENDBRANCH  20  21
ENDBRANCH   2  20
TORSDOF 4
ENDMDL
MODEL 8
REMARK VINA RESULT:      -7.6      4.310     10.126
REMARK  Name = 
REMARK  6 active torsions:
REMARK  status: ('A' for Active; 'I' for Inactive)
REMARK    1  A    between atoms: C_1  and  C_2
REMARK    2  A    between atoms: C_7  and  N_8
REMARK    3  A    between atoms: C_9  and  C_10
REMARK    4  A    between atoms: C_10  and  N_11
REMARK    5  A    between atoms: C_13  and  C_14
REMARK    6  A    between atoms: C_28  and  C_29
REMARK                            x       y       z     vdW  Elec       q    Type
REMARK                         _______ _______ _______ _____ _____    ______ ____
ROOT
ATOM      1  N   UNL     1      -0.953  12.199  21.068  0.00  0.00    +0.000 N 
ATOM      2  C   UNL     1      -0.814  11.963  22.409  0.00  0.00    +0.000 A 
ATOM      3  N   UNL     1      -1.046  12.921  23.252  0.00  0.00    +0.000 NA
ATOM      4  C   UNL     1      -2.375  13.348  23.127  0.00  0.00    +0.000 A 
ATOM      5  C   UNL     1      -2.940  13.733  24.343  0.00  0.00    +0.000 A 
ATOM      6  C   UNL     1      -4.286  13.538  24.546  0.00  0.00    +0.000 A 
ATOM      7  C   UNL     1      -5.056  13.042  23.496  0.00  0.00    +0.000 A 
ATOM      8  C   UNL     1      -4.526  12.817  22.187  0.00  0.00    +0.000 A 
ATOM      9  C   UNL     1      -5.539  12.270  21.213  0.00  0.00    +0.000 C 
ATOM     10  C   UNL     1      -3.137  13.010  21.982  0.00  0.00    +0.000 A 
ATOM     11  C   UNL     1      -2.224  12.731  20.731  0.00  0.00    +0.000 A 
ATOM     12  O   UNL     1      -2.620  12.980  19.601  0.00  0.00    +0.000 OA
ENDROOT
BRANCH   1  19
ATOM     13  C   UNL     1       0.112  15.032  20.853  0.00  0.00    +0.000 C 
ATOM     14  C   UNL     1       0.774  13.851  20.215  0.00  0.00    +0.000 A 
ATOM     15  C   UNL     1       1.814  14.154  19.270  0.00  0.00    +0.000 A 
ATOM     16  C   UNL     1       2.384  13.177  18.463  0.00  0.00    +0.000 A 
ATOM     17  C   UNL     1       1.929  11.879  18.587  0.00  0.00    +0.000 A 
ATOM     18  C   UNL     1       0.934  11.568  19.548  0.00  0.00    +0.000 A 
ATOM     19  C   UNL     1       0.336  12.527  20.406  0.00  0.00    +0.000 A 
ENDBRANCH   1  19
BRANCH   2  20
ATOM     20  C   UNL     1      -0.941  10.514  22.806  0.00  0.00    +0.000 C 
BRANCH  20  21
ATOM     21  N   UNL     1       0.139   9.687  22.265  0.00  0.00    +0.000 N 
ATOM     22  C   UNL     1       0.106   8.823  21.202  0.00  0.00    +0.000 A 
ATOM     23  C   UNL     1       1.336   8.195  21.223  0.00  0.00    +0.000 A 
ATOM     24  N   UNL     1       2.073   8.721  22.257  0.00  0.00    +0.000 NA
ATOM     25  N   UNL     1       1.339   9.642  22.874  0.00  0.00    +0.000 NA
BRANCH  23  26
ATOM     26  C   UNL     1       1.807   7.137  20.337  0.00  0.00    +0.000 A 
ATOM     27  C   UNL     1       2.363   7.413  19.081  0.00  0.00    +0.000 A 
ATOM     28  C   UNL     1       2.800   6.375  18.236  0.00  0.00    +0.000 A 
ATOM     29  C   UNL     1       2.658   5.049  18.636  0.00  0.00    +0.000 A 
ATOM     30 BR   UNL     1       3.214   3.662  17.484  0.00  0.00    +0.000 Br
ATOM     31  C   UNL     1       2.116   4.753  19.881  0.00  0.00    +0.000 A 
ATOM     32  C   UNL     1       1.697   5.791  20.725  0.00  0.00    +0.000 A 
ENDBRANCH  23  26
ENDBRANCH  20  21
ENDBRANCH   2  20
TORSDOF 4
ENDMDL
MODEL 9
REMARK VINA RESULT:      -7.5      4.605     10.058
REMARK  Name = 
REMARK  6 active torsions:
REMARK  status: ('A' for Active; 'I' for Inactive)
REMARK    1  A    between atoms: C_1  and  C_2
REMARK    2  A    between atoms: C_7  and  N_8
REMARK    3  A    between atoms: C_9  and  C_10
REMARK    4  A    between atoms: C_10  and  N_11
REMARK    5  A    between atoms: C_13  and  C_14
REMARK    6  A    between atoms: C_28  and  C_29
REMARK                            x       y       z     vdW  Elec       q    Type
REMARK                         _______ _______ _______ _____ _____    ______ ____
ROOT
ATOM      1  N   UNL     1       1.161  13.606  19.777  0.00  0.00    +0.000 N 
ATOM      2  C   UNL     1       0.953  12.283  20.056  0.00  0.00    +0.000 A 
ATOM      3  N   UNL     1       0.863  11.897  21.291  0.00  0.00    +0.000 NA
ATOM      4  C   UNL     1      -0.219  12.539  21.908  0.00  0.00    +0.000 A 
ATOM      5  C   UNL     1      -0.868  11.734  22.844  0.00  0.00    +0.000 A 
ATOM      6  C   UNL     1      -2.222  11.887  23.033  0.00  0.00    +0.000 A 
ATOM      7  C   UNL     1      -2.883  12.901  22.345  0.00  0.00    +0.000 A 
ATOM      8  C   UNL     1      -2.200  13.852  21.523  0.00  0.00    +0.000 A 
ATOM      9  C   UNL     1      -3.118  14.854  20.870  0.00  0.00    +0.000 C 
ATOM     10  C   UNL     1      -0.806  13.687  21.322  0.00  0.00    +0.000 A 
ATOM     11  C   UNL     1       0.206  14.455  20.394  0.00  0.00    +0.000 A 
ATOM     12  O   UNL     1       0.137  15.669  20.264  0.00  0.00    +0.000 OA
ENDROOT
BRANCH   1  19
ATOM     13  C   UNL     1       2.977  14.711  21.942  0.00  0.00    +0.000 C 
ATOM     14  C   UNL     1       3.402  14.537  20.518  0.00  0.00    +0.000 A 
ATOM     15  C   UNL     1       4.647  15.160  20.159  0.00  0.00    +0.000 A 
ATOM     16  C   UNL     1       5.073  15.246  18.838  0.00  0.00    +0.000 A 
ATOM     17  C   UNL     1       4.268  14.709  17.854  0.00  0.00    +0.000 A 
ATOM     18  C   UNL     1       3.060  14.055  18.209  0.00  0.00    +0.000 A 
ATOM     19  C   UNL     1       2.593  13.926  19.542  0.00  0.00    +0.000 A 
ENDBRANCH   1  19
BRANCH   2  20
ATOM     20  C   UNL     1       0.314  11.501  18.936  0.00  0.00    +0.000 C 
BRANCH  20  21
ATOM     21  N   UNL     1       1.080  10.306  18.577  0.00  0.00    +0.000 N 
ATOM     22  C   UNL     1       1.066   9.070  19.170  0.00  0.00    +0.000 A 
ATOM     23  C   UNL     1       2.078   8.370  18.542  0.00  0.00    +0.000 A 
ATOM     24  N   UNL     1       2.634   9.180  17.582  0.00  0.00    +0.000 NA
ATOM     25  N   UNL     1       2.006  10.352  17.601  0.00  0.00    +0.000 NA
BRANCH  23  26
ATOM     26  C   UNL     1       2.530   7.014  18.830  0.00  0.00    +0.000 A 
ATOM     27  C   UNL     1       2.147   6.335  19.995  0.00  0.00    +0.000 A 
ATOM     28  C   UNL     1       2.604   5.030  20.259  0.00  0.00    +0.000 A 
ATOM     29  C   UNL     1       3.473   4.406  19.367  0.00  0.00    +0.000 A 
ATOM     30 BR   UNL     1       4.110   2.670  19.744  0.00  0.00    +0.000 Br
ATOM     31  C   UNL     1       3.859   5.059  18.202  0.00  0.00    +0.000 A 
ATOM     32  C   UNL     1       3.388   6.352  17.937  0.00  0.00    +0.000 A 
ENDBRANCH  23  26
ENDBRANCH  20  21
ENDBRANCH   2  20
TORSDOF 4
ENDMDL
