MODEL 1
REMARK VINA RESULT:      -8.6      0.000      0.000
REMARK  Name = 
REMARK  3 active torsions:
REMARK  status: ('A' for Active; 'I' for Inactive)
REMARK    1  A    between atoms: C_7  and  N_8
REMARK    2  A    between atoms: N_8  and  C_9
REMARK    3  A    between atoms: C_19  and  C_20
REMARK                            x       y       z     vdW  Elec       q    Type
REMARK                         _______ _______ _______ _____ _____    ______ ____
ROOT
ATOM      1  O   UNL     1       3.716   1.042  17.652  0.00  0.00    +0.000 OA
ATOM      2  C   UNL     1       3.352   2.046  18.233  0.00  0.00    +0.000 C 
ATOM      3  N   UNL     1       2.157   2.242  18.905  0.00  0.00    +0.000 N 
ATOM      4  C   UNL     1       2.086   3.525  19.439  0.00  0.00    +0.000 A 
ATOM      5  C   UNL     1       1.038   4.053  20.155  0.00  0.00    +0.000 A 
ATOM      6  C   UNL     1       1.162   5.380  20.565  0.00  0.00    +0.000 A 
ATOM      7  C   UNL     1       2.286   6.170  20.224  0.00  0.00    +0.000 A 
ATOM      8  C   UNL     1       3.351   5.583  19.527  0.00  0.00    +0.000 A 
ATOM      9  C   UNL     1       3.243   4.255  19.144  0.00  0.00    +0.000 A 
ATOM     10  C   UNL     1       4.109   3.341  18.393  0.00  0.00    +0.000 C 
ATOM     11  C   UNL     1       5.356   3.465  17.922  0.00  0.00    +0.000 C 
ATOM     12  H   UNL     1       1.441   1.535  18.969  0.00  0.00    +0.000 HD
ENDROOT
BRANCH  11  13
ATOM     13  C   UNL     1       6.209   4.640  18.107  0.00  0.00    +0.000 A 
ATOM     14  C   UNL     1       7.102   4.684  19.199  0.00  0.00    +0.000 A 
ATOM     15  C   UNL     1       7.896   5.812  19.430  0.00  0.00    +0.000 A 
ATOM     16  C   UNL     1       7.769   6.872  18.559  0.00  0.00    +0.000 A 
ATOM     17  C   UNL     1       6.904   6.832  17.491  0.00  0.00    +0.000 A 
ATOM     18  C   UNL     1       6.115   5.731  17.231  0.00  0.00    +0.000 A 
ATOM     19  O   UNL     1       6.923   7.984  16.768  0.00  0.00    +0.000 OA
ATOM     20  C   UNL     1       7.869   8.767  17.527  0.00  0.00    +0.000 C 
ATOM     21  O   UNL     1       8.440   8.051  18.641  0.00  0.00    +0.000 OA
ENDBRANCH  11  13
BRANCH   7  22
ATOM     22  N   UNL     1       2.328   7.543  20.550  0.00  0.00    +0.000 N 
ATOM     23  H   UNL     1       3.238   7.889  20.843  0.00  0.00    +0.000 HD
BRANCH  22  24
ATOM     24  C   UNL     1       1.478   8.562  20.072  0.00  0.00    +0.000 A 
ATOM     25  C   UNL     1       0.520   9.125  20.924  0.00  0.00    +0.000 A 
ATOM     26  C   UNL     1      -0.397  10.065  20.436  0.00  0.00    +0.000 A 
ATOM     27  C   UNL     1      -0.351  10.452  19.099  0.00  0.00    +0.000 A 
ATOM     28 CL   UNL     1      -1.487  11.591  18.491  0.00  0.00    +0.000 Cl
ATOM     29  C   UNL     1       0.609   9.920  18.245  0.00  0.00    +0.000 A 
ATOM     30  C   UNL     1       1.522   8.990  18.738  0.00  0.00    +0.000 A 
ENDBRANCH  22  24
ENDBRANCH   7  22
TORSDOF 3
ENDMDL
MODEL 2
REMARK VINA RESULT:      -8.5      0.694      1.324
REMARK  Name = 
REMARK  3 active torsions:
REMARK  status: ('A' for Active; 'I' for Inactive)
REMARK    1  A    between atoms: C_7  and  N_8
REMARK    2  A    between atoms: N_8  and  C_9
REMARK    3  A    between atoms: C_19  and  C_20
REMARK                            x       y       z     vdW  Elec       q    Type
REMARK                         _______ _______ _______ _____ _____    ______ ____
ROOT
ATOM      1  O   UNL     1       3.524   1.073  17.782  0.00  0.00    +0.000 OA
ATOM      2  C   UNL     1       3.190   2.071  18.392  0.00  0.00    +0.000 C 
ATOM      3  N   UNL     1       2.176   2.183  19.328  0.00  0.00    +0.000 N 
ATOM      4  C   UNL     1       2.079   3.486  19.808  0.00  0.00    +0.000 A 
ATOM      5  C   UNL     1       1.177   3.947  20.738  0.00  0.00    +0.000 A 
ATOM      6  C   UNL     1       1.232   5.305  21.048  0.00  0.00    +0.000 A 
ATOM      7  C   UNL     1       2.137   6.186  20.407  0.00  0.00    +0.000 A 
ATOM      8  C   UNL     1       3.067   5.670  19.495  0.00  0.00    +0.000 A 
ATOM      9  C   UNL     1       3.033   4.314  19.207  0.00  0.00    +0.000 A 
ATOM     10  C   UNL     1       3.800   3.448  18.305  0.00  0.00    +0.000 C 
ATOM     11  C   UNL     1       4.872   3.673  17.537  0.00  0.00    +0.000 C 
ATOM     12  H   UNL     1       1.589   1.410  19.596  0.00  0.00    +0.000 HD
ENDROOT
BRANCH  11  13
ATOM     13  C   UNL     1       5.594   4.943  17.455  0.00  0.00    +0.000 A 
ATOM     14  C   UNL     1       5.320   5.830  16.391  0.00  0.00    +0.000 A 
ATOM     15  C   UNL     1       6.027   7.029  16.258  0.00  0.00    +0.000 A 
ATOM     16  C   UNL     1       6.996   7.307  17.197  0.00  0.00    +0.000 A 
ATOM     17  C   UNL     1       7.263   6.449  18.238  0.00  0.00    +0.000 A 
ATOM     18  C   UNL     1       6.578   5.263  18.401  0.00  0.00    +0.000 A 
ATOM     19  O   UNL     1       8.264   6.904  19.039  0.00  0.00    +0.000 OA
ATOM     20  C   UNL     1       8.621   8.127  18.360  0.00  0.00    +0.000 C 
ATOM     21  O   UNL     1       7.792   8.408  17.214  0.00  0.00    +0.000 OA
ENDBRANCH  11  13
BRANCH   7  22
ATOM     22  N   UNL     1       2.087   7.576  20.654  0.00  0.00    +0.000 N 
ATOM     23  H   UNL     1       2.929   7.970  21.065  0.00  0.00    +0.000 HD
BRANCH  22  24
ATOM     24  C   UNL     1       1.295   8.535  19.991  0.00  0.00    +0.000 A 
ATOM     25  C   UNL     1       0.281   9.202  20.689  0.00  0.00    +0.000 A 
ATOM     26  C   UNL     1      -0.579  10.082  20.020  0.00  0.00    +0.000 A 
ATOM     27  C   UNL     1      -0.421  10.305  18.654  0.00  0.00    +0.000 A 
ATOM     28 CL   UNL     1      -1.487  11.370  17.824  0.00  0.00    +0.000 Cl
ATOM     29  C   UNL     1       0.596   9.669  17.951  0.00  0.00    +0.000 A 
ATOM     30  C   UNL     1       1.452   8.800  18.623  0.00  0.00    +0.000 A 
ENDBRANCH  22  24
ENDBRANCH   7  22
TORSDOF 3
ENDMDL
MODEL 3
REMARK VINA RESULT:      -8.2      1.010      1.493
REMARK  Name = 
REMARK  3 active torsions:
REMARK  status: ('A' for Active; 'I' for Inactive)
REMARK    1  A    between atoms: C_7  and  N_8
REMARK    2  A    between atoms: N_8  and  C_9
REMARK    3  A    between atoms: C_19  and  C_20
REMARK                            x       y       z     vdW  Elec       q    Type
REMARK                         _______ _______ _______ _____ _____    ______ ____
ROOT
ATOM      1  O   UNL     1       3.409   1.378  17.348  0.00  0.00    +0.000 OA
ATOM      2  C   UNL     1       3.107   2.366  17.990  0.00  0.00    +0.000 C 
ATOM      3  N   UNL     1       1.935   2.586  18.694  0.00  0.00    +0.000 N 
ATOM      4  C   UNL     1       1.940   3.840  19.298  0.00  0.00    +0.000 A 
ATOM      5  C   UNL     1       0.932   4.381  20.061  0.00  0.00    +0.000 A 
ATOM      6  C   UNL     1       1.133   5.674  20.541  0.00  0.00    +0.000 A 
ATOM      7  C   UNL     1       2.292   6.423  20.222  0.00  0.00    +0.000 A 
ATOM      8  C   UNL     1       3.313   5.821  19.475  0.00  0.00    +0.000 A 
ATOM      9  C   UNL     1       3.129   4.524  19.022  0.00  0.00    +0.000 A 
ATOM     10  C   UNL     1       3.934   3.609  18.207  0.00  0.00    +0.000 C 
ATOM     11  C   UNL     1       5.178   3.694  17.720  0.00  0.00    +0.000 C 
ATOM     12  H   UNL     1       1.184   1.914  18.732  0.00  0.00    +0.000 HD
ENDROOT
BRANCH  11  13
ATOM     13  C   UNL     1       6.095   4.811  17.953  0.00  0.00    +0.000 A 
ATOM     14  C   UNL     1       7.015   4.742  19.022  0.00  0.00    +0.000 A 
ATOM     15  C   UNL     1       7.871   5.812  19.300  0.00  0.00    +0.000 A 
ATOM     16  C   UNL     1       7.779   6.930  18.499  0.00  0.00    +0.000 A 
ATOM     17  C   UNL     1       6.887   6.999  17.454  0.00  0.00    +0.000 A 
ATOM     18  C   UNL     1       6.036   5.958  17.149  0.00  0.00    +0.000 A 
ATOM     19  O   UNL     1       6.947   8.192  16.802  0.00  0.00    +0.000 OA
ATOM     20  C   UNL     1       7.951   8.878  17.582  0.00  0.00    +0.000 C 
ATOM     21  O   UNL     1       8.511   8.066  18.634  0.00  0.00    +0.000 OA
ENDBRANCH  11  13
BRANCH   7  22
ATOM     22  N   UNL     1       2.411   7.772  20.622  0.00  0.00    +0.000 N 
ATOM     23  H   UNL     1       3.203   8.271  20.225  0.00  0.00    +0.000 HD
BRANCH  22  24
ATOM     24  C   UNL     1       1.379   8.630  21.056  0.00  0.00    +0.000 A 
ATOM     25  C   UNL     1       0.671   9.394  20.121  0.00  0.00    +0.000 A 
ATOM     26  C   UNL     1      -0.285  10.325  20.546  0.00  0.00    +0.000 A 
ATOM     27  C   UNL     1      -0.544  10.486  21.905  0.00  0.00    +0.000 A 
ATOM     28 CL   UNL     1      -1.704  11.641  22.432  0.00  0.00    +0.000 Cl
ATOM     29  C   UNL     1       0.133   9.718  22.845  0.00  0.00    +0.000 A 
ATOM     30  C   UNL     1       1.080   8.790  22.416  0.00  0.00    +0.000 A 
ENDBRANCH  22  24
ENDBRANCH   7  22
TORSDOF 3
ENDMDL
MODEL 4
REMARK VINA RESULT:      -8.1      1.313      1.933
REMARK  Name = 
REMARK  3 active torsions:
REMARK  status: ('A' for Active; 'I' for Inactive)
REMARK    1  A    between atoms: C_7  and  N_8
REMARK    2  A    between atoms: N_8  and  C_9
REMARK    3  A    between atoms: C_19  and  C_20
REMARK                            x       y       z     vdW  Elec       q    Type
REMARK                         _______ _______ _______ _____ _____    ______ ____
ROOT
ATOM      1  O   UNL     1       3.610   1.020  18.568  0.00  0.00    +0.000 OA
ATOM      2  C   UNL     1       3.220   2.114  18.927  0.00  0.00    +0.000 C 
ATOM      3  N   UNL     1       2.115   2.397  19.713  0.00  0.00    +0.000 N 
ATOM      4  C   UNL     1       1.974   3.768  19.907  0.00  0.00    +0.000 A 
ATOM      5  C   UNL     1       0.983   4.391  20.628  0.00  0.00    +0.000 A 
ATOM      6  C   UNL     1       1.013   5.785  20.661  0.00  0.00    +0.000 A 
ATOM      7  C   UNL     1       1.983   6.533  19.951  0.00  0.00    +0.000 A 
ATOM      8  C   UNL     1       2.999   5.860  19.262  0.00  0.00    +0.000 A 
ATOM      9  C   UNL     1       2.990   4.473  19.252  0.00  0.00    +0.000 A 
ATOM     10  C   UNL     1       3.841   3.456  18.627  0.00  0.00    +0.000 C 
ATOM     11  C   UNL     1       4.988   3.539  17.942  0.00  0.00    +0.000 C 
ATOM     12  H   UNL     1       1.499   1.683  20.071  0.00  0.00    +0.000 HD
ENDROOT
BRANCH  11  13
ATOM     13  C   UNL     1       5.721   4.779  17.680  0.00  0.00    +0.000 A 
ATOM     14  C   UNL     1       5.563   5.427  16.436  0.00  0.00    +0.000 A 
ATOM     15  C   UNL     1       6.285   6.587  16.136  0.00  0.00    +0.000 A 
ATOM     16  C   UNL     1       7.153   7.065  17.094  0.00  0.00    +0.000 A 
ATOM     17  C   UNL     1       7.305   6.439  18.309  0.00  0.00    +0.000 A 
ATOM     18  C   UNL     1       6.602   5.299  18.638  0.00  0.00    +0.000 A 
ATOM     19  O   UNL     1       8.219   7.064  19.100  0.00  0.00    +0.000 OA
ATOM     20  C   UNL     1       8.651   8.130  18.228  0.00  0.00    +0.000 C 
ATOM     21  O   UNL     1       7.947   8.160  16.970  0.00  0.00    +0.000 OA
ENDBRANCH  11  13
BRANCH   7  22
ATOM     22  N   UNL     1       1.914   7.943  19.907  0.00  0.00    +0.000 N 
ATOM     23  H   UNL     1       2.162   8.359  19.012  0.00  0.00    +0.000 HD
BRANCH  22  24
ATOM     24  C   UNL     1       1.113   8.787  20.703  0.00  0.00    +0.000 A 
ATOM     25  C   UNL     1       1.195   8.709  22.099  0.00  0.00    +0.000 A 
ATOM     26  C   UNL     1       0.333   9.467  22.902  0.00  0.00    +0.000 A 
ATOM     27  C   UNL     1      -0.605  10.312  22.313  0.00  0.00    +0.000 A 
ATOM     28 CL   UNL     1      -1.677  11.230  23.295  0.00  0.00    +0.000 Cl
ATOM     29  C   UNL     1      -0.683  10.419  20.929  0.00  0.00    +0.000 A 
ATOM     30  C   UNL     1       0.180   9.666  20.135  0.00  0.00    +0.000 A 
ENDBRANCH  22  24
ENDBRANCH   7  22
TORSDOF 3
ENDMDL
MODEL 5
REMARK VINA RESULT:      -8.0      1.334      2.098
REMARK  Name = 
REMARK  3 active torsions:
REMARK  status: ('A' for Active; 'I' for Inactive)
REMARK    1  A    between atoms: C_7  and  N_8
REMARK    2  A    between atoms: N_8  and  C_9
REMARK    3  A    between atoms: C_19  and  C_20
REMARK                            x       y       z     vdW  Elec       q    Type
REMARK                         _______ _______ _______ _____ _____    ______ ____
ROOT
ATOM      1  O   UNL     1       3.040   1.266  17.742  0.00  0.00    +0.000 OA
ATOM      2  C   UNL     1       2.768   2.303  18.314  0.00  0.00    +0.000 C 
ATOM      3  N   UNL     1       1.744   2.520  19.222  0.00  0.00    +0.000 N 
ATOM      4  C   UNL     1       1.734   3.841  19.661  0.00  0.00    +0.000 A 
ATOM      5  C   UNL     1       0.849   4.397  20.554  0.00  0.00    +0.000 A 
ATOM      6  C   UNL     1       1.000   5.756  20.825  0.00  0.00    +0.000 A 
ATOM      7  C   UNL     1       1.982   6.547  20.181  0.00  0.00    +0.000 A 
ATOM      8  C   UNL     1       2.891   5.935  19.308  0.00  0.00    +0.000 A 
ATOM      9  C   UNL     1       2.762   4.577  19.060  0.00  0.00    +0.000 A 
ATOM     10  C   UNL     1       3.481   3.628  18.203  0.00  0.00    +0.000 C 
ATOM     11  C   UNL     1       4.585   3.748  17.455  0.00  0.00    +0.000 C 
ATOM     12  H   UNL     1       1.094   1.801  19.498  0.00  0.00    +0.000 HD
ENDROOT
BRANCH  11  13
ATOM     13  C   UNL     1       5.402   4.958  17.355  0.00  0.00    +0.000 A 
ATOM     14  C   UNL     1       5.281   5.784  16.216  0.00  0.00    +0.000 A 
ATOM     15  C   UNL     1       6.082   6.921  16.068  0.00  0.00    +0.000 A 
ATOM     16  C   UNL     1       6.990   7.198  17.067  0.00  0.00    +0.000 A 
ATOM     17  C   UNL     1       7.108   6.398  18.180  0.00  0.00    +0.000 A 
ATOM     18  C   UNL     1       6.327   5.276  18.359  0.00  0.00    +0.000 A 
ATOM     19  O   UNL     1       8.072   6.840  19.032  0.00  0.00    +0.000 OA
ATOM     20  C   UNL     1       8.572   7.985  18.310  0.00  0.00    +0.000 C 
ATOM     21  O   UNL     1       7.861   8.241  17.081  0.00  0.00    +0.000 OA
ENDBRANCH  11  13
BRANCH   7  22
ATOM     22  N   UNL     1       2.032   7.943  20.387  0.00  0.00    +0.000 N 
ATOM     23  H   UNL     1       2.605   8.456  19.722  0.00  0.00    +0.000 HD
BRANCH  22  24
ATOM     24  C   UNL     1       1.063   8.750  21.019  0.00  0.00    +0.000 A 
ATOM     25  C   UNL     1       0.264   9.606  20.253  0.00  0.00    +0.000 A 
ATOM     26  C   UNL     1      -0.631  10.486  20.874  0.00  0.00    +0.000 A 
ATOM     27  C   UNL     1      -0.735  10.505  22.263  0.00  0.00    +0.000 A 
ATOM     28 CL   UNL     1      -1.818  11.597  23.032  0.00  0.00    +0.000 Cl
ATOM     29  C   UNL     1       0.034   9.644  23.038  0.00  0.00    +0.000 A 
ATOM     30  C   UNL     1       0.918   8.767  22.413  0.00  0.00    +0.000 A 
ENDBRANCH  22  24
ENDBRANCH   7  22
TORSDOF 3
ENDMDL
MODEL 6
REMARK VINA RESULT:      -7.8      2.090      2.863
REMARK  Name = 
REMARK  3 active torsions:
REMARK  status: ('A' for Active; 'I' for Inactive)
REMARK    1  A    between atoms: C_7  and  N_8
REMARK    2  A    between atoms: N_8  and  C_9
REMARK    3  A    between atoms: C_19  and  C_20
REMARK                            x       y       z     vdW  Elec       q    Type
REMARK                         _______ _______ _______ _____ _____    ______ ____
ROOT
ATOM      1  O   UNL     1       2.885   2.152  21.334  0.00  0.00    +0.000 OA
ATOM      2  C   UNL     1       2.734   3.294  20.946  0.00  0.00    +0.000 C 
ATOM      3  N   UNL     1       1.879   4.252  21.464  0.00  0.00    +0.000 N 
ATOM      4  C   UNL     1       1.970   5.444  20.752  0.00  0.00    +0.000 A 
ATOM      5  C   UNL     1       1.255   6.594  20.993  0.00  0.00    +0.000 A 
ATOM      6  C   UNL     1       1.479   7.665  20.128  0.00  0.00    +0.000 A 
ATOM      7  C   UNL     1       2.359   7.568  19.023  0.00  0.00    +0.000 A 
ATOM      8  C   UNL     1       3.099   6.393  18.836  0.00  0.00    +0.000 A 
ATOM      9  C   UNL     1       2.901   5.337  19.712  0.00  0.00    +0.000 A 
ATOM     10  C   UNL     1       3.448   3.980  19.807  0.00  0.00    +0.000 C 
ATOM     11  C   UNL     1       4.416   3.350  19.131  0.00  0.00    +0.000 C 
ATOM     12  H   UNL     1       1.267   4.076  22.246  0.00  0.00    +0.000 HD
ENDROOT
BRANCH  11  13
ATOM     13  C   UNL     1       5.233   3.955  18.077  0.00  0.00    +0.000 A 
ATOM     14  C   UNL     1       6.237   4.884  18.425  0.00  0.00    +0.000 A 
ATOM     15  C   UNL     1       7.002   5.515  17.439  0.00  0.00    +0.000 A 
ATOM     16  C   UNL     1       6.735   5.200  16.124  0.00  0.00    +0.000 A 
ATOM     17  C   UNL     1       5.761   4.291  15.781  0.00  0.00    +0.000 A 
ATOM     18  C   UNL     1       4.996   3.646  16.731  0.00  0.00    +0.000 A 
ATOM     19  O   UNL     1       5.650   4.138  14.434  0.00  0.00    +0.000 OA
ATOM     20  C   UNL     1       6.639   5.081  13.970  0.00  0.00    +0.000 C 
ATOM     21  O   UNL     1       7.359   5.728  15.039  0.00  0.00    +0.000 OA
ENDBRANCH  11  13
BRANCH   7  22
ATOM     22  N   UNL     1       2.473   8.628  18.097  0.00  0.00    +0.000 N 
ATOM     23  H   UNL     1       2.735   8.351  17.155  0.00  0.00    +0.000 HD
BRANCH  22  24
ATOM     24  C   UNL     1       1.822   9.879  18.144  0.00  0.00    +0.000 A 
ATOM     25  C   UNL     1       2.571  11.057  18.049  0.00  0.00    +0.000 A 
ATOM     26  C   UNL     1       1.952  12.304  18.195  0.00  0.00    +0.000 A 
ATOM     27  C   UNL     1       0.580  12.377  18.426  0.00  0.00    +0.000 A 
ATOM     28 CL   UNL     1      -0.182  13.906  18.625  0.00  0.00    +0.000 Cl
ATOM     29  C   UNL     1      -0.183  11.217  18.498  0.00  0.00    +0.000 A 
ATOM     30  C   UNL     1       0.438   9.980  18.347  0.00  0.00    +0.000 A 
ENDBRANCH  22  24
ENDBRANCH   7  22
TORSDOF 3
ENDMDL
MODEL 7
REMARK VINA RESULT:      -7.7      1.112      1.329
REMARK  Name = 
REMARK  3 active torsions:
REMARK  status: ('A' for Active; 'I' for Inactive)
REMARK    1  A    between atoms: C_7  and  N_8
REMARK    2  A    between atoms: N_8  and  C_9
REMARK    3  A    between atoms: C_19  and  C_20
REMARK                            x       y       z     vdW  Elec       q    Type
REMARK                         _______ _______ _______ _____ _____    ______ ____
ROOT
ATOM      1  O   UNL     1       2.666   1.502  17.436  0.00  0.00    +0.000 OA
ATOM      2  C   UNL     1       2.467   2.507  18.090  0.00  0.00    +0.000 C 
ATOM      3  N   UNL     1       1.336   2.822  18.825  0.00  0.00    +0.000 N 
ATOM      4  C   UNL     1       1.464   4.067  19.434  0.00  0.00    +0.000 A 
ATOM      5  C   UNL     1       0.526   4.687  20.226  0.00  0.00    +0.000 A 
ATOM      6  C   UNL     1       0.849   5.956  20.705  0.00  0.00    +0.000 A 
ATOM      7  C   UNL     1       2.059   6.605  20.360  0.00  0.00    +0.000 A 
ATOM      8  C   UNL     1       3.006   5.923  19.584  0.00  0.00    +0.000 A 
ATOM      9  C   UNL     1       2.700   4.649  19.130  0.00  0.00    +0.000 A 
ATOM     10  C   UNL     1       3.402   3.674  18.290  0.00  0.00    +0.000 C 
ATOM     11  C   UNL     1       4.636   3.656  17.771  0.00  0.00    +0.000 C 
ATOM     12  H   UNL     1       0.531   2.218  18.880  0.00  0.00    +0.000 HD
ENDROOT
BRANCH  11  13
ATOM     13  C   UNL     1       5.651   4.689  17.985  0.00  0.00    +0.000 A 
ATOM     14  C   UNL     1       6.546   4.569  19.070  0.00  0.00    +0.000 A 
ATOM     15  C   UNL     1       7.495   5.562  19.329  0.00  0.00    +0.000 A 
ATOM     16  C   UNL     1       7.519   6.657  18.493  0.00  0.00    +0.000 A 
ATOM     17  C   UNL     1       6.652   6.776  17.431  0.00  0.00    +0.000 A 
ATOM     18  C   UNL     1       5.711   5.809  17.145  0.00  0.00    +0.000 A 
ATOM     19  O   UNL     1       6.834   7.936  16.745  0.00  0.00    +0.000 OA
ATOM     20  C   UNL     1       7.887   8.549  17.519  0.00  0.00    +0.000 C 
ATOM     21  O   UNL     1       8.354   7.723  18.605  0.00  0.00    +0.000 OA
ENDBRANCH  11  13
BRANCH   7  22
ATOM     22  N   UNL     1       2.304   7.936  20.762  0.00  0.00    +0.000 N 
ATOM     23  H   UNL     1       3.178   8.333  20.429  0.00  0.00    +0.000 HD
BRANCH  22  24
ATOM     24  C   UNL     1       1.349   8.915  21.106  0.00  0.00    +0.000 A 
ATOM     25  C   UNL     1       1.000   9.106  22.448  0.00  0.00    +0.000 A 
ATOM     26  C   UNL     1      -0.018  10.003  22.795  0.00  0.00    +0.000 A 
ATOM     27  C   UNL     1      -0.684  10.718  21.802  0.00  0.00    +0.000 A 
ATOM     28 CL   UNL     1      -1.948  11.805  22.222  0.00  0.00    +0.000 Cl
ATOM     29  C   UNL     1      -0.334  10.558  20.466  0.00  0.00    +0.000 A 
ATOM     30  C   UNL     1       0.685   9.669  20.128  0.00  0.00    +0.000 A 
ENDBRANCH  22  24
ENDBRANCH   7  22
TORSDOF 3
ENDMDL
MODEL 8
REMARK VINA RESULT:      -7.6      6.281      9.475
REMARK  Name = 
REMARK  3 active torsions:
REMARK  status: ('A' for Active; 'I' for Inactive)
REMARK    1  A    between atoms: C_7  and  N_8
REMARK    2  A    between atoms: N_8  and  C_9
REMARK    3  A    between atoms: C_19  and  C_20
REMARK                            x       y       z     vdW  Elec       q    Type
REMARK                         _______ _______ _______ _____ _____    ______ ____
ROOT
ATOM      1  O   UNL     1       1.866   9.546  18.254  0.00  0.00    +0.000 OA
ATOM      2  C   UNL     1       0.700   9.891  18.223  0.00  0.00    +0.000 C 
ATOM      3  N   UNL     1      -0.254   9.548  17.280  0.00  0.00    +0.000 N 
ATOM      4  C   UNL     1      -1.480  10.143  17.567  0.00  0.00    +0.000 A 
ATOM      5  C   UNL     1      -2.636  10.021  16.833  0.00  0.00    +0.000 A 
ATOM      6  C   UNL     1      -3.744  10.737  17.284  0.00  0.00    +0.000 A 
ATOM      7  C   UNL     1      -3.680  11.590  18.413  0.00  0.00    +0.000 A 
ATOM      8  C   UNL     1      -2.495  11.655  19.157  0.00  0.00    +0.000 A 
ATOM      9  C   UNL     1      -1.400  10.920  18.728  0.00  0.00    +0.000 A 
ATOM     10  C   UNL     1      -0.024  10.772  19.212  0.00  0.00    +0.000 C 
ATOM     11  C   UNL     1       0.598  11.220  20.309  0.00  0.00    +0.000 C 
ATOM     12  H   UNL     1      -0.056   8.957  16.488  0.00  0.00    +0.000 HD
ENDROOT
BRANCH  11  13
ATOM     13  C   UNL     1      -0.037  11.998  21.374  0.00  0.00    +0.000 A 
ATOM     14  C   UNL     1      -0.893  11.349  22.290  0.00  0.00    +0.000 A 
ATOM     15  C   UNL     1      -1.552  12.073  23.289  0.00  0.00    +0.000 A 
ATOM     16  C   UNL     1      -1.338  13.432  23.341  0.00  0.00    +0.000 A 
ATOM     17  C   UNL     1      -0.501  14.068  22.453  0.00  0.00    +0.000 A 
ATOM     18  C   UNL     1       0.170  13.381  21.463  0.00  0.00    +0.000 A 
ATOM     19  O   UNL     1      -0.443  15.410  22.669  0.00  0.00    +0.000 OA
ATOM     20  C   UNL     1      -1.368  15.550  23.767  0.00  0.00    +0.000 C 
ATOM     21  O   UNL     1      -1.908  14.293  24.225  0.00  0.00    +0.000 OA
ENDBRANCH  11  13
BRANCH   7  22
ATOM     22  N   UNL     1      -4.784  12.394  18.773  0.00  0.00    +0.000 N 
ATOM     23  H   UNL     1      -5.411  12.631  18.009  0.00  0.00    +0.000 HD
BRANCH  22  24
ATOM     24  C   UNL     1      -5.396  12.489  20.039  0.00  0.00    +0.000 A 
ATOM     25  C   UNL     1      -6.727  12.086  20.201  0.00  0.00    +0.000 A 
ATOM     26  C   UNL     1      -7.379  12.269  21.426  0.00  0.00    +0.000 A 
ATOM     27  C   UNL     1      -6.699  12.845  22.497  0.00  0.00    +0.000 A 
ATOM     28 CL   UNL     1      -7.501  13.088  23.999  0.00  0.00    +0.000 Cl
ATOM     29  C   UNL     1      -5.370  13.228  22.361  0.00  0.00    +0.000 A 
ATOM     30  C   UNL     1      -4.725  13.038  21.141  0.00  0.00    +0.000 A 
ENDBRANCH  22  24
ENDBRANCH   7  22
TORSDOF 3
ENDMDL
MODEL 9
REMARK VINA RESULT:      -7.5      3.566      6.549
REMARK  Name = 
REMARK  3 active torsions:
REMARK  status: ('A' for Active; 'I' for Inactive)
REMARK    1  A    between atoms: C_7  and  N_8
REMARK    2  A    between atoms: N_8  and  C_9
REMARK    3  A    between atoms: C_19  and  C_20
REMARK                            x       y       z     vdW  Elec       q    Type
REMARK                         _______ _______ _______ _____ _____    ______ ____
ROOT
ATOM      1  O   UNL     1       3.660   2.706  20.123  0.00  0.00    +0.000 OA
ATOM      2  C   UNL     1       4.331   3.531  19.534  0.00  0.00    +0.000 C 
ATOM      3  N   UNL     1       5.576   3.344  18.956  0.00  0.00    +0.000 N 
ATOM      4  C   UNL     1       6.043   4.522  18.379  0.00  0.00    +0.000 A 
ATOM      5  C   UNL     1       7.244   4.692  17.732  0.00  0.00    +0.000 A 
ATOM      6  C   UNL     1       7.528   5.972  17.260  0.00  0.00    +0.000 A 
ATOM      7  C   UNL     1       6.652   7.064  17.474  0.00  0.00    +0.000 A 
ATOM      8  C   UNL     1       5.420   6.841  18.103  0.00  0.00    +0.000 A 
ATOM      9  C   UNL     1       5.122   5.562  18.547  0.00  0.00    +0.000 A 
ATOM     10  C   UNL     1       3.983   4.973  19.260  0.00  0.00    +0.000 C 
ATOM     11  C   UNL     1       2.793   5.468  19.620  0.00  0.00    +0.000 C 
ATOM     12  H   UNL     1       6.066   2.464  18.981  0.00  0.00    +0.000 HD
ENDROOT
BRANCH  11  13
ATOM     13  C   UNL     1       2.321   6.821  19.318  0.00  0.00    +0.000 A 
ATOM     14  C   UNL     1       2.388   7.298  17.991  0.00  0.00    +0.000 A 
ATOM     15  C   UNL     1       1.990   8.602  17.678  0.00  0.00    +0.000 A 
ATOM     16  C   UNL     1       1.538   9.396  18.709  0.00  0.00    +0.000 A 
ATOM     17  C   UNL     1       1.466   8.933  20.002  0.00  0.00    +0.000 A 
ATOM     18  C   UNL     1       1.843   7.651  20.341  0.00  0.00    +0.000 A 
ATOM     19  O   UNL     1       1.008   9.881  20.865  0.00  0.00    +0.000 OA
ATOM     20  C   UNL     1       0.837  11.002  19.972  0.00  0.00    +0.000 C 
ATOM     21  O   UNL     1       1.132  10.688  18.596  0.00  0.00    +0.000 OA
ENDBRANCH  11  13
BRANCH   7  22
ATOM     22  N   UNL     1       7.022   8.372  17.091  0.00  0.00    +0.000 N 
ATOM     23  H   UNL     1       6.340   8.862  16.517  0.00  0.00    +0.000 HD
BRANCH  22  24
ATOM     24  C   UNL     1       7.907   9.242  17.760  0.00  0.00    +0.000 A 
ATOM     25  C   UNL     1       8.642   8.777  18.857  0.00  0.00    +0.000 A 
ATOM     26  C   UNL     1       9.447   9.655  19.594  0.00  0.00    +0.000 A 
ATOM     27  C   UNL     1       9.527  10.997  19.229  0.00  0.00    +0.000 A 
ATOM     28 CL   UNL     1      10.500  12.082  20.142  0.00  0.00    +0.000 Cl
ATOM     29  C   UNL     1       8.823  11.469  18.128  0.00  0.00    +0.000 A 
ATOM     30  C   UNL     1       8.028  10.590  17.396  0.00  0.00    +0.000 A 
ENDBRANCH  22  24
ENDBRANCH   7  22
TORSDOF 3
ENDMDL
