MODEL 1
REMARK VINA RESULT:      -7.1      0.000      0.000
REMARK  Name = 
REMARK  6 active torsions:
REMARK  status: ('A' for Active; 'I' for Inactive)
REMARK    1  A    between atoms: C_1  and  C_2
REMARK    2  A    between atoms: C_2  and  O_3
REMARK    3  A    between atoms: O_3  and  C_4
REMARK    4  A    between atoms: C_4  and  C_6
REMARK    5  A    between atoms: N_17  and  S_18
REMARK    6  A    between atoms: S_18  and  C_21
REMARK                            x       y       z     vdW  Elec       q    Type
REMARK                         _______ _______ _______ _____ _____    ______ ____
ROOT
ATOM      1  C   UNL     1       2.029   6.995  18.655  0.00  0.00    +0.000 C 
ATOM      2  C   UNL     1       3.232   6.872  19.605  0.00  0.00    +0.000 C 
ATOM      3  C   UNL     1       3.544   5.416  19.962  0.00  0.00    +0.000 C 
ATOM      4  C   UNL     1       2.415   4.783  20.844  0.00  0.00    +0.000 C 
ATOM      5  C   UNL     1       1.505   3.956  20.020  0.00  0.00    +0.000 A 
ATOM      6  N   UNL     1       0.584   3.057  20.461  0.00  0.00    +0.000 N 
ATOM      7  N   UNL     1       0.059   2.329  19.456  0.00  0.00    +0.000 NA
ATOM      8  C   UNL     1       0.670   2.791  18.360  0.00  0.00    +0.000 A 
ATOM      9  C   UNL     1       1.549   3.850  18.645  0.00  0.00    +0.000 A 
ATOM     10  C   UNL     1       2.531   4.608  17.812  0.00  0.00    +0.000 C 
ATOM     11  C   UNL     1       2.131   6.049  17.436  0.00  0.00    +0.000 C 
ATOM     12  N   UNL     1       3.736   4.730  18.654  0.00  0.00    +0.000 NA
ATOM     13  H   UNL     1       0.298   2.848  21.412  0.00  0.00    +0.000 HD
ENDROOT
BRANCH  12  14
ATOM     14  S   UNL     1       5.204   4.171  18.115  0.00  0.00    +0.000 S 
ATOM     15  O   UNL     1       5.773   3.325  19.143  0.00  0.00    +0.000 OA
ATOM     16  O   UNL     1       5.044   3.695  16.758  0.00  0.00    +0.000 OA
BRANCH  14  17
ATOM     17  C   UNL     1       6.172   5.661  18.056  0.00  0.00    +0.000 A 
ATOM     18  C   UNL     1       7.338   5.763  18.823  0.00  0.00    +0.000 A 
ATOM     19  C   UNL     1       8.101   6.931  18.763  0.00  0.00    +0.000 A 
ATOM     20  C   UNL     1       7.707   7.978  17.923  0.00  0.00    +0.000 A 
ATOM     21 CL   UNL     1       8.637   9.420  17.859  0.00  0.00    +0.000 Cl
ATOM     22  C   UNL     1       6.556   7.856  17.132  0.00  0.00    +0.000 A 
ATOM     23  C   UNL     1       5.789   6.693  17.195  0.00  0.00    +0.000 A 
ENDBRANCH  14  17
ENDBRANCH  12  14
BRANCH   1  24
ATOM     24  C   UNL     1       1.849   8.469  18.349  0.00  0.00    +0.000 C 
ATOM     25  O   UNL     1       2.221   8.956  17.286  0.00  0.00    +0.000 OA
BRANCH  24  26
ATOM     26  O   UNL     1       1.279   9.169  19.361  0.00  0.00    +0.000 OA
BRANCH  26  28
ATOM     27  C   UNL     1      -0.737  10.343  18.882  0.00  0.00    +0.000 C 
ATOM     28  C   UNL     1       0.773  10.460  18.983  0.00  0.00    +0.000 C 
ENDBRANCH  26  28
ENDBRANCH  24  26
ENDBRANCH   1  24
TORSDOF 5
ENDMDL
MODEL 2
REMARK VINA RESULT:      -6.9      1.929      2.325
REMARK  Name = 
REMARK  6 active torsions:
REMARK  status: ('A' for Active; 'I' for Inactive)
REMARK    1  A    between atoms: C_1  and  C_2
REMARK    2  A    between atoms: C_2  and  O_3
REMARK    3  A    between atoms: O_3  and  C_4
REMARK    4  A    between atoms: C_4  and  C_6
REMARK    5  A    between atoms: N_17  and  S_18
REMARK    6  A    between atoms: S_18  and  C_21
REMARK                            x       y       z     vdW  Elec       q    Type
REMARK                         _______ _______ _______ _____ _____    ______ ____
ROOT
ATOM      1  C   UNL     1       2.012   7.105  18.556  0.00  0.00    +0.000 C 
ATOM      2  C   UNL     1       2.815   7.051  19.866  0.00  0.00    +0.000 C 
ATOM      3  C   UNL     1       3.094   5.615  20.318  0.00  0.00    +0.000 C 
ATOM      4  C   UNL     1       1.782   4.882  20.755  0.00  0.00    +0.000 C 
ATOM      5  C   UNL     1       1.281   4.008  19.671  0.00  0.00    +0.000 A 
ATOM      6  N   UNL     1       0.336   3.033  19.768  0.00  0.00    +0.000 N 
ATOM      7  N   UNL     1       0.250   2.290  18.648  0.00  0.00    +0.000 NA
ATOM      8  C   UNL     1       1.167   2.819  17.831  0.00  0.00    +0.000 A 
ATOM      9  C   UNL     1       1.808   3.934  18.398  0.00  0.00    +0.000 A 
ATOM     10  C   UNL     1       2.958   4.780  17.955  0.00  0.00    +0.000 C 
ATOM     11  C   UNL     1       2.604   6.195  17.454  0.00  0.00    +0.000 C 
ATOM     12  N   UNL     1       3.781   4.973  19.163  0.00  0.00    +0.000 NA
ATOM     13  H   UNL     1      -0.246   2.784  20.562  0.00  0.00    +0.000 HD
ENDROOT
BRANCH  12  14
ATOM     14  S   UNL     1       5.383   4.535  19.173  0.00  0.00    +0.000 S 
ATOM     15  O   UNL     1       6.140   5.592  19.810  0.00  0.00    +0.000 OA
ATOM     16  O   UNL     1       5.482   3.164  19.628  0.00  0.00    +0.000 OA
BRANCH  14  17
ATOM     17  C   UNL     1       5.786   4.561  17.441  0.00  0.00    +0.000 A 
ATOM     18  C   UNL     1       6.583   5.590  16.928  0.00  0.00    +0.000 A 
ATOM     19  C   UNL     1       6.906   5.598  15.570  0.00  0.00    +0.000 A 
ATOM     20  C   UNL     1       6.452   4.569  14.739  0.00  0.00    +0.000 A 
ATOM     21 CL   UNL     1       6.839   4.585  13.067  0.00  0.00    +0.000 Cl
ATOM     22  C   UNL     1       5.683   3.522  15.266  0.00  0.00    +0.000 A 
ATOM     23  C   UNL     1       5.353   3.514  16.621  0.00  0.00    +0.000 A 
ENDBRANCH  14  17
ENDBRANCH  12  14
BRANCH   1  24
ATOM     24  C   UNL     1       1.837   8.568  18.198  0.00  0.00    +0.000 C 
ATOM     25  O   UNL     1       2.316   9.041  17.172  0.00  0.00    +0.000 OA
BRANCH  24  26
ATOM     26  O   UNL     1       1.143   9.275  19.123  0.00  0.00    +0.000 OA
BRANCH  26  28
ATOM     27  C   UNL     1      -0.963  10.274  18.638  0.00  0.00    +0.000 C 
ATOM     28  C   UNL     1       0.540  10.480  18.624  0.00  0.00    +0.000 C 
ENDBRANCH  26  28
ENDBRANCH  24  26
ENDBRANCH   1  24
TORSDOF 5
ENDMDL
MODEL 3
REMARK VINA RESULT:      -6.8      3.430      6.665
REMARK  Name = 
REMARK  6 active torsions:
REMARK  status: ('A' for Active; 'I' for Inactive)
REMARK    1  A    between atoms: C_1  and  C_2
REMARK    2  A    between atoms: C_2  and  O_3
REMARK    3  A    between atoms: O_3  and  C_4
REMARK    4  A    between atoms: C_4  and  C_6
REMARK    5  A    between atoms: N_17  and  S_18
REMARK    6  A    between atoms: S_18  and  C_21
REMARK                            x       y       z     vdW  Elec       q    Type
REMARK                         _______ _______ _______ _____ _____    ______ ____
ROOT
ATOM      1  C   UNL     1       6.374   4.857  14.844  0.00  0.00    +0.000 C 
ATOM      2  C   UNL     1       6.301   3.683  15.835  0.00  0.00    +0.000 C 
ATOM      3  C   UNL     1       6.212   4.156  17.289  0.00  0.00    +0.000 C 
ATOM      4  C   UNL     1       7.537   4.846  17.756  0.00  0.00    +0.000 C 
ATOM      5  C   UNL     1       7.412   6.320  17.699  0.00  0.00    +0.000 A 
ATOM      6  N   UNL     1       8.242   7.240  18.263  0.00  0.00    +0.000 N 
ATOM      7  N   UNL     1       7.742   8.489  18.195  0.00  0.00    +0.000 NA
ATOM      8  C   UNL     1       6.569   8.341  17.570  0.00  0.00    +0.000 A 
ATOM      9  C   UNL     1       6.333   7.009  17.186  0.00  0.00    +0.000 A 
ATOM     10  C   UNL     1       5.152   6.320  16.584  0.00  0.00    +0.000 C 
ATOM     11  C   UNL     1       5.283   5.923  15.099  0.00  0.00    +0.000 C 
ATOM     12  N   UNL     1       5.024   5.054  17.331  0.00  0.00    +0.000 NA
ATOM     13  H   UNL     1       9.123   7.094  18.746  0.00  0.00    +0.000 HD
ENDROOT
BRANCH  12  14
ATOM     14  S   UNL     1       3.608   4.672  18.110  0.00  0.00    +0.000 S 
ATOM     15  O   UNL     1       2.727   4.025  17.161  0.00  0.00    +0.000 OA
ATOM     16  O   UNL     1       3.933   4.049  19.375  0.00  0.00    +0.000 OA
BRANCH  14  17
ATOM     17  C   UNL     1       2.929   6.279  18.457  0.00  0.00    +0.000 A 
ATOM     18  C   UNL     1       2.750   7.197  17.416  0.00  0.00    +0.000 A 
ATOM     19  C   UNL     1       2.206   8.452  17.693  0.00  0.00    +0.000 A 
ATOM     20  C   UNL     1       1.823   8.774  18.999  0.00  0.00    +0.000 A 
ATOM     21 CL   UNL     1       1.164  10.322  19.342  0.00  0.00    +0.000 Cl
ATOM     22  C   UNL     1       1.973   7.837  20.031  0.00  0.00    +0.000 A 
ATOM     23  C   UNL     1       2.523   6.585  19.759  0.00  0.00    +0.000 A 
ENDBRANCH  14  17
ENDBRANCH  12  14
BRANCH   1  24
ATOM     24  C   UNL     1       6.419   4.262  13.450  0.00  0.00    +0.000 C 
ATOM     25  O   UNL     1       7.309   4.551  12.656  0.00  0.00    +0.000 OA
BRANCH  24  26
ATOM     26  O   UNL     1       5.383   3.431  13.179  0.00  0.00    +0.000 OA
BRANCH  26  28
ATOM     27  C   UNL     1       4.043   3.272  11.217  0.00  0.00    +0.000 C 
ATOM     28  C   UNL     1       5.375   2.902  11.843  0.00  0.00    +0.000 C 
ENDBRANCH  26  28
ENDBRANCH  24  26
ENDBRANCH   1  24
TORSDOF 5
ENDMDL
MODEL 4
REMARK VINA RESULT:      -6.7      1.939      2.361
REMARK  Name = 
REMARK  6 active torsions:
REMARK  status: ('A' for Active; 'I' for Inactive)
REMARK    1  A    between atoms: C_1  and  C_2
REMARK    2  A    between atoms: C_2  and  O_3
REMARK    3  A    between atoms: O_3  and  C_4
REMARK    4  A    between atoms: C_4  and  C_6
REMARK    5  A    between atoms: N_17  and  S_18
REMARK    6  A    between atoms: S_18  and  C_21
REMARK                            x       y       z     vdW  Elec       q    Type
REMARK                         _______ _______ _______ _____ _____    ______ ____
ROOT
ATOM      1  C   UNL     1       2.049   7.113  18.549  0.00  0.00    +0.000 C 
ATOM      2  C   UNL     1       2.845   7.060  19.864  0.00  0.00    +0.000 C 
ATOM      3  C   UNL     1       3.116   5.624  20.322  0.00  0.00    +0.000 C 
ATOM      4  C   UNL     1       1.799   4.896  20.753  0.00  0.00    +0.000 C 
ATOM      5  C   UNL     1       1.301   4.021  19.668  0.00  0.00    +0.000 A 
ATOM      6  N   UNL     1       0.352   3.050  19.762  0.00  0.00    +0.000 N 
ATOM      7  N   UNL     1       0.271   2.304  18.643  0.00  0.00    +0.000 NA
ATOM      8  C   UNL     1       1.194   2.828  17.830  0.00  0.00    +0.000 A 
ATOM      9  C   UNL     1       1.836   3.943  18.398  0.00  0.00    +0.000 A 
ATOM     10  C   UNL     1       2.991   4.784  17.960  0.00  0.00    +0.000 C 
ATOM     11  C   UNL     1       2.645   6.199  17.453  0.00  0.00    +0.000 C 
ATOM     12  N   UNL     1       3.808   4.977  19.172  0.00  0.00    +0.000 NA
ATOM     13  H   UNL     1      -0.235   2.805  20.553  0.00  0.00    +0.000 HD
ENDROOT
BRANCH  12  14
ATOM     14  S   UNL     1       5.408   4.533  19.192  0.00  0.00    +0.000 S 
ATOM     15  O   UNL     1       6.166   5.593  19.823  0.00  0.00    +0.000 OA
ATOM     16  O   UNL     1       5.501   3.167  19.659  0.00  0.00    +0.000 OA
BRANCH  14  17
ATOM     17  C   UNL     1       5.819   4.544  17.462  0.00  0.00    +0.000 A 
ATOM     18  C   UNL     1       5.365   3.511  16.634  0.00  0.00    +0.000 A 
ATOM     19  C   UNL     1       5.680   3.531  15.274  0.00  0.00    +0.000 A 
ATOM     20  C   UNL     1       6.426   4.591  14.747  0.00  0.00    +0.000 A 
ATOM     21 CL   UNL     1       6.825   4.609  13.077  0.00  0.00    +0.000 Cl
ATOM     22  C   UNL     1       6.849   5.639  15.576  0.00  0.00    +0.000 A 
ATOM     23  C   UNL     1       6.540   5.619  16.935  0.00  0.00    +0.000 A 
ENDBRANCH  14  17
ENDBRANCH  12  14
BRANCH   1  24
ATOM     24  C   UNL     1       1.881   8.576  18.186  0.00  0.00    +0.000 C 
ATOM     25  O   UNL     1       2.333   9.036  17.143  0.00  0.00    +0.000 OA
BRANCH  24  26
ATOM     26  O   UNL     1       1.226   9.298  19.129  0.00  0.00    +0.000 OA
BRANCH  26  28
ATOM     27  C   UNL     1       0.447  11.544  19.002  0.00  0.00    +0.000 C 
ATOM     28  C   UNL     1       0.151  10.106  18.622  0.00  0.00    +0.000 C 
ENDBRANCH  26  28
ENDBRANCH  24  26
ENDBRANCH   1  24
TORSDOF 5
ENDMDL
MODEL 5
REMARK VINA RESULT:      -6.2      5.899      9.266
REMARK  Name = 
REMARK  6 active torsions:
REMARK  status: ('A' for Active; 'I' for Inactive)
REMARK    1  A    between atoms: C_1  and  C_2
REMARK    2  A    between atoms: C_2  and  O_3
REMARK    3  A    between atoms: O_3  and  C_4
REMARK    4  A    between atoms: C_4  and  C_6
REMARK    5  A    between atoms: N_17  and  S_18
REMARK    6  A    between atoms: S_18  and  C_21
REMARK                            x       y       z     vdW  Elec       q    Type
REMARK                         _______ _______ _______ _____ _____    ______ ____
ROOT
ATOM      1  C   UNL     1       0.411  10.026  20.256  0.00  0.00    +0.000 C 
ATOM      2  C   UNL     1       1.141  10.878  19.203  0.00  0.00    +0.000 C 
ATOM      3  C   UNL     1       0.533  12.276  19.065  0.00  0.00    +0.000 C 
ATOM      4  C   UNL     1      -0.904  12.224  18.447  0.00  0.00    +0.000 C 
ATOM      5  C   UNL     1      -1.936  12.327  19.504  0.00  0.00    +0.000 A 
ATOM      6  N   UNL     1      -3.264  12.578  19.337  0.00  0.00    +0.000 N 
ATOM      7  N   UNL     1      -3.891  12.804  20.507  0.00  0.00    +0.000 NA
ATOM      8  C   UNL     1      -2.927  12.690  21.427  0.00  0.00    +0.000 A 
ATOM      9  C   UNL     1      -1.689  12.337  20.861  0.00  0.00    +0.000 A 
ATOM     10  C   UNL     1      -0.312  12.209  21.428  0.00  0.00    +0.000 C 
ATOM     11  C   UNL     1       0.219  10.771  21.597  0.00  0.00    +0.000 C 
ATOM     12  N   UNL     1       0.573  12.852  20.438  0.00  0.00    +0.000 NA
ATOM     13  H   UNL     1      -3.796  12.658  18.477  0.00  0.00    +0.000 HD
ENDROOT
BRANCH  12  14
ATOM     14  S   UNL     1       1.571  14.102  20.884  0.00  0.00    +0.000 S 
ATOM     15  O   UNL     1       1.209  14.518  22.222  0.00  0.00    +0.000 OA
ATOM     16  O   UNL     1       2.934  13.742  20.555  0.00  0.00    +0.000 OA
BRANCH  14  17
ATOM     17  C   UNL     1       1.069  15.395  19.771  0.00  0.00    +0.000 A 
ATOM     18  C   UNL     1       2.012  15.988  18.924  0.00  0.00    +0.000 A 
ATOM     19  C   UNL     1       1.609  16.994  18.044  0.00  0.00    +0.000 A 
ATOM     20  C   UNL     1       0.267  17.384  17.998  0.00  0.00    +0.000 A 
ATOM     21 CL   UNL     1      -0.226  18.630  16.925  0.00  0.00    +0.000 Cl
ATOM     22  C   UNL     1      -0.679  16.763  18.826  0.00  0.00    +0.000 A 
ATOM     23  C   UNL     1      -0.279  15.762  19.710  0.00  0.00    +0.000 A 
ENDBRANCH  14  17
ENDBRANCH  12  14
BRANCH   1  24
ATOM     24  C   UNL     1       1.126   8.691  20.325  0.00  0.00    +0.000 C 
ATOM     25  O   UNL     1       1.093   7.994  21.334  0.00  0.00    +0.000 OA
BRANCH  24  26
ATOM     26  O   UNL     1       1.809   8.380  19.195  0.00  0.00    +0.000 OA
BRANCH  26  28
ATOM     27  C   UNL     1       3.258   6.971  17.936  0.00  0.00    +0.000 C 
ATOM     28  C   UNL     1       2.492   7.117  19.238  0.00  0.00    +0.000 C 
ENDBRANCH  26  28
ENDBRANCH  24  26
ENDBRANCH   1  24
TORSDOF 5
ENDMDL
MODEL 6
REMARK VINA RESULT:      -6.1      6.469      8.734
REMARK  Name = 
REMARK  6 active torsions:
REMARK  status: ('A' for Active; 'I' for Inactive)
REMARK    1  A    between atoms: C_1  and  C_2
REMARK    2  A    between atoms: C_2  and  O_3
REMARK    3  A    between atoms: O_3  and  C_4
REMARK    4  A    between atoms: C_4  and  C_6
REMARK    5  A    between atoms: N_17  and  S_18
REMARK    6  A    between atoms: S_18  and  C_21
REMARK                            x       y       z     vdW  Elec       q    Type
REMARK                         _______ _______ _______ _____ _____    ______ ____
ROOT
ATOM      1  C   UNL     1      -1.860  11.677  19.334  0.00  0.00    +0.000 C 
ATOM      2  C   UNL     1      -1.593  11.868  20.837  0.00  0.00    +0.000 C 
ATOM      3  C   UNL     1      -0.141  11.557  21.213  0.00  0.00    +0.000 C 
ATOM      4  C   UNL     1       0.184  10.034  21.053  0.00  0.00    +0.000 C 
ATOM      5  C   UNL     1       0.890   9.777  19.778  0.00  0.00    +0.000 A 
ATOM      6  N   UNL     1       1.555   8.645  19.418  0.00  0.00    +0.000 N 
ATOM      7  N   UNL     1       2.253   8.804  18.277  0.00  0.00    +0.000 NA
ATOM      8  C   UNL     1       2.015  10.070  17.918  0.00  0.00    +0.000 A 
ATOM      9  C   UNL     1       1.123  10.715  18.793  0.00  0.00    +0.000 A 
ATOM     10  C   UNL     1       0.644  12.126  18.897  0.00  0.00    +0.000 C 
ATOM     11  C   UNL     1      -0.809  12.384  18.447  0.00  0.00    +0.000 C 
ATOM     12  N   UNL     1       0.681  12.439  20.339  0.00  0.00    +0.000 NA
ATOM     13  H   UNL     1       1.620   7.759  19.908  0.00  0.00    +0.000 HD
ENDROOT
BRANCH  12  14
ATOM     14  S   UNL     1       1.556  13.734  20.899  0.00  0.00    +0.000 S 
ATOM     15  O   UNL     1       1.120  14.028  22.248  0.00  0.00    +0.000 OA
ATOM     16  O   UNL     1       2.954  13.509  20.597  0.00  0.00    +0.000 OA
BRANCH  14  17
ATOM     17  C   UNL     1       0.981  15.053  19.855  0.00  0.00    +0.000 A 
ATOM     18  C   UNL     1       1.847  15.624  18.916  0.00  0.00    +0.000 A 
ATOM     19  C   UNL     1       1.386  16.651  18.091  0.00  0.00    +0.000 A 
ATOM     20  C   UNL     1       0.060  17.085  18.192  0.00  0.00    +0.000 A 
ATOM     21 CL   UNL     1      -0.504  18.357  17.186  0.00  0.00    +0.000 Cl
ATOM     22  C   UNL     1      -0.812  16.485  19.111  0.00  0.00    +0.000 A 
ATOM     23  C   UNL     1      -0.353  15.463  19.941  0.00  0.00    +0.000 A 
ENDBRANCH  14  17
ENDBRANCH  12  14
BRANCH   1  24
ATOM     24  C   UNL     1      -3.309  12.050  19.087  0.00  0.00    +0.000 C 
ATOM     25  O   UNL     1      -3.975  12.641  19.931  0.00  0.00    +0.000 OA
BRANCH  24  26
ATOM     26  O   UNL     1      -3.777  11.643  17.881  0.00  0.00    +0.000 OA
BRANCH  26  28
ATOM     27  C   UNL     1      -3.004  10.047  16.292  0.00  0.00    +0.000 C 
ATOM     28  C   UNL     1      -3.668  10.230  17.644  0.00  0.00    +0.000 C 
ENDBRANCH  26  28
ENDBRANCH  24  26
ENDBRANCH   1  24
TORSDOF 5
ENDMDL
MODEL 7
REMARK VINA RESULT:      -6.1      7.176      8.946
REMARK  Name = 
REMARK  6 active torsions:
REMARK  status: ('A' for Active; 'I' for Inactive)
REMARK    1  A    between atoms: C_1  and  C_2
REMARK    2  A    between atoms: C_2  and  O_3
REMARK    3  A    between atoms: O_3  and  C_4
REMARK    4  A    between atoms: C_4  and  C_6
REMARK    5  A    between atoms: N_17  and  S_18
REMARK    6  A    between atoms: S_18  and  C_21
REMARK                            x       y       z     vdW  Elec       q    Type
REMARK                         _______ _______ _______ _____ _____    ______ ____
ROOT
ATOM      1  C   UNL     1      -1.729  10.485  18.844  0.00  0.00    +0.000 C 
ATOM      2  C   UNL     1      -2.043  11.978  19.034  0.00  0.00    +0.000 C 
ATOM      3  C   UNL     1      -1.272  12.589  20.208  0.00  0.00    +0.000 C 
ATOM      4  C   UNL     1      -1.759  12.015  21.581  0.00  0.00    +0.000 C 
ATOM      5  C   UNL     1      -0.843  10.956  22.063  0.00  0.00    +0.000 A 
ATOM      6  N   UNL     1      -0.790  10.420  23.313  0.00  0.00    +0.000 N 
ATOM      7  N   UNL     1       0.282   9.622  23.482  0.00  0.00    +0.000 NA
ATOM      8  C   UNL     1       0.912   9.662  22.302  0.00  0.00    +0.000 A 
ATOM      9  C   UNL     1       0.223  10.441  21.356  0.00  0.00    +0.000 A 
ATOM     10  C   UNL     1       0.558  10.888  19.970  0.00  0.00    +0.000 C 
ATOM     11  C   UNL     1      -0.211  10.191  18.828  0.00  0.00    +0.000 C 
ATOM     12  N   UNL     1       0.161  12.307  19.917  0.00  0.00    +0.000 NA
ATOM     13  H   UNL     1      -1.404  10.582  24.105  0.00  0.00    +0.000 HD
ENDROOT
BRANCH  12  14
ATOM     14  S   UNL     1       1.264  13.478  19.503  0.00  0.00    +0.000 S 
ATOM     15  O   UNL     1       2.564  13.071  19.992  0.00  0.00    +0.000 OA
ATOM     16  O   UNL     1       1.062  13.829  18.113  0.00  0.00    +0.000 OA
BRANCH  14  17
ATOM     17  C   UNL     1       0.731  14.857  20.492  0.00  0.00    +0.000 A 
ATOM     18  C   UNL     1       0.976  14.860  21.870  0.00  0.00    +0.000 A 
ATOM     19  C   UNL     1       0.566  15.951  22.639  0.00  0.00    +0.000 A 
ATOM     20  C   UNL     1      -0.063  17.039  22.025  0.00  0.00    +0.000 A 
ATOM     21 CL   UNL     1      -0.578  18.375  22.972  0.00  0.00    +0.000 Cl
ATOM     22  C   UNL     1      -0.274  17.045  20.639  0.00  0.00    +0.000 A 
ATOM     23  C   UNL     1       0.128  15.954  19.870  0.00  0.00    +0.000 A 
ENDBRANCH  14  17
ENDBRANCH  12  14
BRANCH   1  24
ATOM     24  C   UNL     1      -2.517  10.011  17.638  0.00  0.00    +0.000 C 
ATOM     25  O   UNL     1      -3.498   9.284  17.756  0.00  0.00    +0.000 OA
BRANCH  24  26
ATOM     26  O   UNL     1      -2.013  10.443  16.456  0.00  0.00    +0.000 OA
BRANCH  26  28
ATOM     27  C   UNL     1      -3.044  10.045  14.347  0.00  0.00    +0.000 C 
ATOM     28  C   UNL     1      -2.993  10.972  15.547  0.00  0.00    +0.000 C 
ENDBRANCH  26  28
ENDBRANCH  24  26
ENDBRANCH   1  24
TORSDOF 5
ENDMDL
MODEL 8
REMARK VINA RESULT:      -6.1      6.858      9.569
REMARK  Name = 
REMARK  6 active torsions:
REMARK  status: ('A' for Active; 'I' for Inactive)
REMARK    1  A    between atoms: C_1  and  C_2
REMARK    2  A    between atoms: C_2  and  O_3
REMARK    3  A    between atoms: O_3  and  C_4
REMARK    4  A    between atoms: C_4  and  C_6
REMARK    5  A    between atoms: N_17  and  S_18
REMARK    6  A    between atoms: S_18  and  C_21
REMARK                            x       y       z     vdW  Elec       q    Type
REMARK                         _______ _______ _______ _____ _____    ______ ____
ROOT
ATOM      1  C   UNL     1      -1.089  11.102  20.935  0.00  0.00    +0.000 C 
ATOM      2  C   UNL     1      -1.194  12.278  19.950  0.00  0.00    +0.000 C 
ATOM      3  C   UNL     1      -2.027  13.434  20.511  0.00  0.00    +0.000 C 
ATOM      4  C   UNL     1      -3.536  13.043  20.654  0.00  0.00    +0.000 C 
ATOM      5  C   UNL     1      -3.855  12.675  22.052  0.00  0.00    +0.000 A 
ATOM      6  N   UNL     1      -5.090  12.536  22.606  0.00  0.00    +0.000 N 
ATOM      7  N   UNL     1      -5.037  12.389  23.944  0.00  0.00    +0.000 NA
ATOM      8  C   UNL     1      -3.731  12.437  24.228  0.00  0.00    +0.000 A 
ATOM      9  C   UNL     1      -2.937  12.560  23.075  0.00  0.00    +0.000 A 
ATOM     10  C   UNL     1      -1.472  12.770  22.867  0.00  0.00    +0.000 C 
ATOM     11  C   UNL     1      -0.678  11.549  22.357  0.00  0.00    +0.000 C 
ATOM     12  N   UNL     1      -1.376  13.787  21.803  0.00  0.00    +0.000 NA
ATOM     13  H   UNL     1      -6.000  12.578  22.157  0.00  0.00    +0.000 HD
ENDROOT
BRANCH  12  14
ATOM     14  S   UNL     1      -0.541  15.200  22.058  0.00  0.00    +0.000 S 
ATOM     15  O   UNL     1      -1.351  16.299  21.578  0.00  0.00    +0.000 OA
ATOM     16  O   UNL     1      -0.019  15.188  23.408  0.00  0.00    +0.000 OA
BRANCH  14  17
ATOM     17  C   UNL     1       0.834  15.025  20.945  0.00  0.00    +0.000 A 
ATOM     18  C   UNL     1       1.893  14.172  21.275  0.00  0.00    +0.000 A 
ATOM     19  C   UNL     1       2.964  14.030  20.391  0.00  0.00    +0.000 A 
ATOM     20  C   UNL     1       2.961  14.722  19.176  0.00  0.00    +0.000 A 
ATOM     21 CL   UNL     1       4.284  14.558  18.094  0.00  0.00    +0.000 Cl
ATOM     22  C   UNL     1       1.881  15.549  18.835  0.00  0.00    +0.000 A 
ATOM     23  C   UNL     1       0.813  15.697  19.719  0.00  0.00    +0.000 A 
ENDBRANCH  14  17
ENDBRANCH  12  14
BRANCH   1  24
ATOM     24  C   UNL     1      -0.215  10.049  20.283  0.00  0.00    +0.000 C 
ATOM     25  O   UNL     1       0.387   9.211  20.947  0.00  0.00    +0.000 OA
BRANCH  24  26
ATOM     26  O   UNL     1      -0.151  10.154  18.933  0.00  0.00    +0.000 OA
BRANCH  26  28
ATOM     27  C   UNL     1       1.919  11.159  18.323  0.00  0.00    +0.000 C 
ATOM     28  C   UNL     1       1.138   9.859  18.371  0.00  0.00    +0.000 C 
ENDBRANCH  26  28
ENDBRANCH  24  26
ENDBRANCH   1  24
TORSDOF 5
ENDMDL
MODEL 9
REMARK VINA RESULT:      -6.0      6.614     10.188
REMARK  Name = 
REMARK  6 active torsions:
REMARK  status: ('A' for Active; 'I' for Inactive)
REMARK    1  A    between atoms: C_1  and  C_2
REMARK    2  A    between atoms: C_2  and  O_3
REMARK    3  A    between atoms: O_3  and  C_4
REMARK    4  A    between atoms: C_4  and  C_6
REMARK    5  A    between atoms: N_17  and  S_18
REMARK    6  A    between atoms: S_18  and  C_21
REMARK                            x       y       z     vdW  Elec       q    Type
REMARK                         _______ _______ _______ _____ _____    ______ ____
ROOT
ATOM      1  C   UNL     1      -0.656  10.946  20.912  0.00  0.00    +0.000 C 
ATOM      2  C   UNL     1      -0.604  12.133  19.936  0.00  0.00    +0.000 C 
ATOM      3  C   UNL     1      -1.451  13.316  20.415  0.00  0.00    +0.000 C 
ATOM      4  C   UNL     1      -2.980  12.982  20.382  0.00  0.00    +0.000 C 
ATOM      5  C   UNL     1      -3.468  12.616  21.731  0.00  0.00    +0.000 A 
ATOM      6  N   UNL     1      -4.763  12.521  22.141  0.00  0.00    +0.000 N 
ATOM      7  N   UNL     1      -4.866  12.362  23.475  0.00  0.00    +0.000 NA
ATOM      8  C   UNL     1      -3.599  12.356  23.905  0.00  0.00    +0.000 A 
ATOM      9  C   UNL     1      -2.676  12.457  22.849  0.00  0.00    +0.000 A 
ATOM     10  C   UNL     1      -1.190  12.611  22.810  0.00  0.00    +0.000 C 
ATOM     11  C   UNL     1      -0.391  11.365  22.377  0.00  0.00    +0.000 C 
ATOM     12  N   UNL     1      -0.937  13.633  21.776  0.00  0.00    +0.000 NA
ATOM     13  H   UNL     1      -5.614  12.602  21.594  0.00  0.00    +0.000 HD
ENDROOT
BRANCH  12  14
ATOM     14  S   UNL     1      -0.083  15.010  22.141  0.00  0.00    +0.000 S 
ATOM     15  O   UNL     1      -0.837  15.766  23.118  0.00  0.00    +0.000 OA
ATOM     16  O   UNL     1       1.297  14.645  22.378  0.00  0.00    +0.000 OA
BRANCH  14  17
ATOM     17  C   UNL     1      -0.151  15.907  20.606  0.00  0.00    +0.000 A 
ATOM     18  C   UNL     1      -1.279  16.676  20.300  0.00  0.00    +0.000 A 
ATOM     19  C   UNL     1      -1.321  17.387  19.100  0.00  0.00    +0.000 A 
ATOM     20  C   UNL     1      -0.230  17.345  18.226  0.00  0.00    +0.000 A 
ATOM     21 CL   UNL     1      -0.286  18.210  16.744  0.00  0.00    +0.000 Cl
ATOM     22  C   UNL     1       0.911  16.600  18.555  0.00  0.00    +0.000 A 
ATOM     23  C   UNL     1       0.954  15.883  19.750  0.00  0.00    +0.000 A 
ENDBRANCH  14  17
ENDBRANCH  12  14
BRANCH   1  24
ATOM     24  C   UNL     1       0.246   9.864  20.349  0.00  0.00    +0.000 C 
ATOM     25  O   UNL     1       0.296   8.745  20.847  0.00  0.00    +0.000 OA
BRANCH  24  26
ATOM     26  O   UNL     1       0.988  10.272  19.290  0.00  0.00    +0.000 OA
BRANCH  26  28
ATOM     27  C   UNL     1       2.177   8.817  17.827  0.00  0.00    +0.000 C 
ATOM     28  C   UNL     1       0.835   9.468  18.109  0.00  0.00    +0.000 C 
ENDBRANCH  26  28
ENDBRANCH  24  26
ENDBRANCH   1  24
TORSDOF 5
ENDMDL
