MODEL 1
REMARK VINA RESULT:      -7.6      0.000      0.000
REMARK  Name = 
REMARK  5 active torsions:
REMARK  status: ('A' for Active; 'I' for Inactive)
REMARK    1  A    between atoms: C_1  and  C_2
REMARK    2  A    between atoms: C_2  and  N_3
REMARK    3  A    between atoms: C_2  and  C_4
REMARK    4  A    between atoms: C_10  and  C_11
REMARK    5  A    between atoms: C_11  and  C_12
REMARK                            x       y       z     vdW  Elec       q    Type
REMARK                         _______ _______ _______ _____ _____    ______ ____
ROOT
ATOM      1  C   UNL     1       6.417   5.026  18.648  0.00  0.00    +0.000 C 
ATOM      2  O   UNL     1       5.484   5.126  19.469  0.00  0.00    +0.000 OA
ATOM      3  N   UNL     1       6.168   4.557  17.372  0.00  0.00    +0.000 N 
ATOM      4  C   UNL     1       7.133   4.367  16.301  0.00  0.00    +0.000 C 
ATOM      5  C   UNL     1       6.406   4.885  15.075  0.00  0.00    +0.000 C 
ATOM      6  C   UNL     1       4.984   4.402  15.317  0.00  0.00    +0.000 C 
ATOM      7  C   UNL     1       4.791   4.445  16.847  0.00  0.00    +0.000 C 
ENDROOT
BRANCH   1   9
ATOM      8  C   UNL     1       7.998   7.027  18.542  0.00  0.00    +0.000 C 
ATOM      9  C   UNL     1       7.830   5.575  18.992  0.00  0.00    +0.000 C 
BRANCH   9  10
ATOM     10  N   UNL     1       8.165   5.496  20.432  0.00  0.00    +0.000 NA
ATOM     11  H   UNL     1       8.461   6.419  20.750  0.00  0.00    +0.000 HD
ATOM     12  H   UNL     1       8.994   4.903  20.527  0.00  0.00    +0.000 HD
ENDBRANCH   9  10
ENDBRANCH   1   9
BRANCH   7  13
ATOM     13  C   UNL     1       3.997   3.216  17.368  0.00  0.00    +0.000 C 
BRANCH  13  14
ATOM     14  C   UNL     1       3.005   3.530  18.480  0.00  0.00    +0.000 A 
ATOM     15  C   UNL     1       2.232   4.705  18.465  0.00  0.00    +0.000 A 
ATOM     16  C   UNL     1       1.366   5.022  19.522  0.00  0.00    +0.000 A 
ATOM     17  C   UNL     1       1.224   4.140  20.585  0.00  0.00    +0.000 A 
ATOM     18  C   UNL     1       1.940   2.951  20.580  0.00  0.00    +0.000 A 
ATOM     19  F   UNL     1       1.775   2.083  21.587  0.00  0.00    +0.000 F 
ATOM     20  C   UNL     1       2.829   2.642  19.550  0.00  0.00    +0.000 A 
ENDBRANCH  13  14
ENDBRANCH   7  13
TORSDOF 4
ENDMDL
MODEL 2
REMARK VINA RESULT:      -7.4      1.115      1.496
REMARK  Name = 
REMARK  5 active torsions:
REMARK  status: ('A' for Active; 'I' for Inactive)
REMARK    1  A    between atoms: C_1  and  C_2
REMARK    2  A    between atoms: C_2  and  N_3
REMARK    3  A    between atoms: C_2  and  C_4
REMARK    4  A    between atoms: C_10  and  C_11
REMARK    5  A    between atoms: C_11  and  C_12
REMARK                            x       y       z     vdW  Elec       q    Type
REMARK                         _______ _______ _______ _____ _____    ______ ____
ROOT
ATOM      1  C   UNL     1       6.451   4.993  18.721  0.00  0.00    +0.000 C 
ATOM      2  O   UNL     1       5.558   5.043  19.591  0.00  0.00    +0.000 OA
ATOM      3  N   UNL     1       6.143   4.591  17.436  0.00  0.00    +0.000 N 
ATOM      4  C   UNL     1       7.057   4.465  16.311  0.00  0.00    +0.000 C 
ATOM      5  C   UNL     1       6.269   5.043  15.151  0.00  0.00    +0.000 C 
ATOM      6  C   UNL     1       4.863   4.539  15.435  0.00  0.00    +0.000 C 
ATOM      7  C   UNL     1       4.742   4.499  16.971  0.00  0.00    +0.000 C 
ENDROOT
BRANCH   1   9
ATOM      8  C   UNL     1       8.035   6.991  18.597  0.00  0.00    +0.000 C 
ATOM      9  C   UNL     1       7.877   5.531  19.027  0.00  0.00    +0.000 C 
BRANCH   9  10
ATOM     10  N   UNL     1       8.260   5.426  20.453  0.00  0.00    +0.000 NA
ATOM     11  H   UNL     1       9.278   5.460  20.521  0.00  0.00    +0.000 HD
ATOM     12  H   UNL     1       8.004   4.489  20.776  0.00  0.00    +0.000 HD
ENDBRANCH   9  10
ENDBRANCH   1   9
BRANCH   7  13
ATOM     13  C   UNL     1       3.979   3.239  17.464  0.00  0.00    +0.000 C 
BRANCH  13  14
ATOM     14  C   UNL     1       2.919   3.515  18.521  0.00  0.00    +0.000 A 
ATOM     15  C   UNL     1       2.121   2.483  19.049  0.00  0.00    +0.000 A 
ATOM     16  C   UNL     1       1.103   2.750  19.975  0.00  0.00    +0.000 A 
ATOM     17  C   UNL     1       0.903   4.048  20.426  0.00  0.00    +0.000 A 
ATOM     18  C   UNL     1       1.724   5.064  19.954  0.00  0.00    +0.000 A 
ATOM     19  F   UNL     1       1.555   6.310  20.416  0.00  0.00    +0.000 F 
ATOM     20  C   UNL     1       2.717   4.814  19.006  0.00  0.00    +0.000 A 
ENDBRANCH  13  14
ENDBRANCH   7  13
TORSDOF 4
ENDMDL
MODEL 3
REMARK VINA RESULT:      -7.4      3.122      4.377
REMARK  Name = 
REMARK  5 active torsions:
REMARK  status: ('A' for Active; 'I' for Inactive)
REMARK    1  A    between atoms: C_1  and  C_2
REMARK    2  A    between atoms: C_2  and  N_3
REMARK    3  A    between atoms: C_2  and  C_4
REMARK    4  A    between atoms: C_10  and  C_11
REMARK    5  A    between atoms: C_11  and  C_12
REMARK                            x       y       z     vdW  Elec       q    Type
REMARK                         _______ _______ _______ _____ _____    ______ ____
ROOT
ATOM      1  C   UNL     1       5.422   5.168  17.042  0.00  0.00    +0.000 C 
ATOM      2  O   UNL     1       5.534   6.410  17.041  0.00  0.00    +0.000 OA
ATOM      3  N   UNL     1       4.287   4.576  17.563  0.00  0.00    +0.000 N 
ATOM      4  C   UNL     1       4.000   3.153  17.654  0.00  0.00    +0.000 C 
ATOM      5  C   UNL     1       2.541   3.062  17.254  0.00  0.00    +0.000 C 
ATOM      6  C   UNL     1       1.952   4.305  17.904  0.00  0.00    +0.000 C 
ATOM      7  C   UNL     1       3.071   5.364  17.855  0.00  0.00    +0.000 C 
ENDROOT
BRANCH   1   9
ATOM      8  C   UNL     1       6.667   4.711  14.860  0.00  0.00    +0.000 C 
ATOM      9  C   UNL     1       6.474   4.283  16.316  0.00  0.00    +0.000 C 
BRANCH   9  10
ATOM     10  N   UNL     1       7.801   4.274  16.974  0.00  0.00    +0.000 NA
ATOM     11  H   UNL     1       8.216   3.349  16.859  0.00  0.00    +0.000 HD
ATOM     12  H   UNL     1       7.649   4.373  17.981  0.00  0.00    +0.000 HD
ENDBRANCH   9  10
ENDBRANCH   1   9
BRANCH   7  13
ATOM     13  C   UNL     1       3.140   6.201  19.161  0.00  0.00    +0.000 C 
BRANCH  13  14
ATOM     14  C   UNL     1       2.334   7.492  19.128  0.00  0.00    +0.000 A 
ATOM     15  C   UNL     1       2.197   8.242  17.946  0.00  0.00    +0.000 A 
ATOM     16  C   UNL     1       1.507   9.464  17.934  0.00  0.00    +0.000 A 
ATOM     17  C   UNL     1       0.901   9.926  19.095  0.00  0.00    +0.000 A 
ATOM     18  C   UNL     1       0.983   9.163  20.252  0.00  0.00    +0.000 A 
ATOM     19  F   UNL     1       0.368   9.590  21.362  0.00  0.00    +0.000 F 
ATOM     20  C   UNL     1       1.696   7.963  20.283  0.00  0.00    +0.000 A 
ENDBRANCH  13  14
ENDBRANCH   7  13
TORSDOF 4
ENDMDL
MODEL 4
REMARK VINA RESULT:      -7.2      1.948      3.319
REMARK  Name = 
REMARK  5 active torsions:
REMARK  status: ('A' for Active; 'I' for Inactive)
REMARK    1  A    between atoms: C_1  and  C_2
REMARK    2  A    between atoms: C_2  and  N_3
REMARK    3  A    between atoms: C_2  and  C_4
REMARK    4  A    between atoms: C_10  and  C_11
REMARK    5  A    between atoms: C_11  and  C_12
REMARK                            x       y       z     vdW  Elec       q    Type
REMARK                         _______ _______ _______ _____ _____    ______ ____
ROOT
ATOM      1  C   UNL     1       5.716   4.343  15.875  0.00  0.00    +0.000 C 
ATOM      2  O   UNL     1       4.656   3.687  15.832  0.00  0.00    +0.000 OA
ATOM      3  N   UNL     1       6.039   5.062  17.010  0.00  0.00    +0.000 N 
ATOM      4  C   UNL     1       7.220   5.885  17.223  0.00  0.00    +0.000 C 
ATOM      5  C   UNL     1       7.632   5.547  18.643  0.00  0.00    +0.000 C 
ATOM      6  C   UNL     1       6.289   5.420  19.346  0.00  0.00    +0.000 C 
ATOM      7  C   UNL     1       5.323   4.852  18.286  0.00  0.00    +0.000 C 
ENDROOT
BRANCH   1   9
ATOM      8  C   UNL     1       6.115   3.736  13.428  0.00  0.00    +0.000 C 
ATOM      9  C   UNL     1       6.756   4.232  14.725  0.00  0.00    +0.000 C 
BRANCH   9  10
ATOM     10  N   UNL     1       7.463   5.501  14.436  0.00  0.00    +0.000 NA
ATOM     11  H   UNL     1       6.906   6.040  13.772  0.00  0.00    +0.000 HD
ATOM     12  H   UNL     1       8.324   5.270  13.935  0.00  0.00    +0.000 HD
ENDBRANCH   9  10
ENDBRANCH   1   9
BRANCH   7  13
ATOM     13  C   UNL     1       3.922   5.517  18.359  0.00  0.00    +0.000 C 
BRANCH  13  14
ATOM     14  C   UNL     1       2.873   4.702  19.105  0.00  0.00    +0.000 A 
ATOM     15  C   UNL     1       2.708   4.817  20.497  0.00  0.00    +0.000 A 
ATOM     16  C   UNL     1       1.786   4.019  21.190  0.00  0.00    +0.000 A 
ATOM     17  C   UNL     1       0.979   3.131  20.491  0.00  0.00    +0.000 A 
ATOM     18  C   UNL     1       1.096   3.053  19.110  0.00  0.00    +0.000 A 
ATOM     19  F   UNL     1       0.294   2.223  18.431  0.00  0.00    +0.000 F 
ATOM     20  C   UNL     1       2.035   3.818  18.415  0.00  0.00    +0.000 A 
ENDBRANCH  13  14
ENDBRANCH   7  13
TORSDOF 4
ENDMDL
MODEL 5
REMARK VINA RESULT:      -7.1      3.224      4.417
REMARK  Name = 
REMARK  5 active torsions:
REMARK  status: ('A' for Active; 'I' for Inactive)
REMARK    1  A    between atoms: C_1  and  C_2
REMARK    2  A    between atoms: C_2  and  N_3
REMARK    3  A    between atoms: C_2  and  C_4
REMARK    4  A    between atoms: C_10  and  C_11
REMARK    5  A    between atoms: C_11  and  C_12
REMARK                            x       y       z     vdW  Elec       q    Type
REMARK                         _______ _______ _______ _____ _____    ______ ____
ROOT
ATOM      1  C   UNL     1       5.362   5.162  17.726  0.00  0.00    +0.000 C 
ATOM      2  O   UNL     1       5.432   6.393  17.913  0.00  0.00    +0.000 OA
ATOM      3  N   UNL     1       4.191   4.485  18.012  0.00  0.00    +0.000 N 
ATOM      4  C   UNL     1       3.942   3.059  17.865  0.00  0.00    +0.000 C 
ATOM      5  C   UNL     1       2.546   3.005  17.276  0.00  0.00    +0.000 C 
ATOM      6  C   UNL     1       1.841   4.134  18.013  0.00  0.00    +0.000 C 
ATOM      7  C   UNL     1       2.924   5.205  18.254  0.00  0.00    +0.000 C 
ENDROOT
BRANCH   1   9
ATOM      8  C   UNL     1       6.881   5.041  15.677  0.00  0.00    +0.000 C 
ATOM      9  C   UNL     1       6.523   4.405  17.022  0.00  0.00    +0.000 C 
BRANCH   9  10
ATOM     10  N   UNL     1       7.758   4.320  17.836  0.00  0.00    +0.000 NA
ATOM     11  H   UNL     1       8.155   3.387  17.729  0.00  0.00    +0.000 HD
ATOM     12  H   UNL     1       7.486   4.382  18.821  0.00  0.00    +0.000 HD
ENDBRANCH   9  10
ENDBRANCH   1   9
BRANCH   7  13
ATOM     13  C   UNL     1       2.804   5.848  19.663  0.00  0.00    +0.000 C 
BRANCH  13  14
ATOM     14  C   UNL     1       2.165   7.231  19.675  0.00  0.00    +0.000 A 
ATOM     15  C   UNL     1       1.471   7.709  20.801  0.00  0.00    +0.000 A 
ATOM     16  C   UNL     1       0.829   8.956  20.787  0.00  0.00    +0.000 A 
ATOM     17  C   UNL     1       0.918   9.765  19.661  0.00  0.00    +0.000 A 
ATOM     18  C   UNL     1       1.650   9.324  18.567  0.00  0.00    +0.000 A 
ATOM     19  F   UNL     1       1.766  10.119  17.494  0.00  0.00    +0.000 F 
ATOM     20  C   UNL     1       2.263   8.071  18.559  0.00  0.00    +0.000 A 
ENDBRANCH  13  14
ENDBRANCH   7  13
TORSDOF 4
ENDMDL
MODEL 6
REMARK VINA RESULT:      -7.1      1.769      3.184
REMARK  Name = 
REMARK  5 active torsions:
REMARK  status: ('A' for Active; 'I' for Inactive)
REMARK    1  A    between atoms: C_1  and  C_2
REMARK    2  A    between atoms: C_2  and  N_3
REMARK    3  A    between atoms: C_2  and  C_4
REMARK    4  A    between atoms: C_10  and  C_11
REMARK    5  A    between atoms: C_11  and  C_12
REMARK                            x       y       z     vdW  Elec       q    Type
REMARK                         _______ _______ _______ _____ _____    ______ ____
ROOT
ATOM      1  C   UNL     1       5.749   4.374  15.937  0.00  0.00    +0.000 C 
ATOM      2  O   UNL     1       4.681   3.730  15.925  0.00  0.00    +0.000 OA
ATOM      3  N   UNL     1       6.109   5.095  17.060  0.00  0.00    +0.000 N 
ATOM      4  C   UNL     1       7.304   5.905  17.239  0.00  0.00    +0.000 C 
ATOM      5  C   UNL     1       7.749   5.569  18.649  0.00  0.00    +0.000 C 
ATOM      6  C   UNL     1       6.423   5.460  19.387  0.00  0.00    +0.000 C 
ATOM      7  C   UNL     1       5.424   4.898  18.355  0.00  0.00    +0.000 C 
ENDROOT
BRANCH   1   9
ATOM      8  C   UNL     1       6.078   3.758  13.481  0.00  0.00    +0.000 C 
ATOM      9  C   UNL     1       6.758   4.246  14.761  0.00  0.00    +0.000 C 
BRANCH   9  10
ATOM     10  N   UNL     1       7.476   5.504  14.453  0.00  0.00    +0.000 NA
ATOM     11  H   UNL     1       8.189   5.657  15.167  0.00  0.00    +0.000 HD
ATOM     12  H   UNL     1       6.814   6.276  14.569  0.00  0.00    +0.000 HD
ENDBRANCH   9  10
ENDBRANCH   1   9
BRANCH   7  13
ATOM     13  C   UNL     1       4.032   5.579  18.460  0.00  0.00    +0.000 C 
BRANCH  13  14
ATOM     14  C   UNL     1       2.919   4.668  18.962  0.00  0.00    +0.000 A 
ATOM     15  C   UNL     1       1.996   4.082  18.077  0.00  0.00    +0.000 A 
ATOM     16  C   UNL     1       0.934   3.296  18.548  0.00  0.00    +0.000 A 
ATOM     17  C   UNL     1       0.812   3.044  19.908  0.00  0.00    +0.000 A 
ATOM     18  C   UNL     1       1.753   3.572  20.782  0.00  0.00    +0.000 A 
ATOM     19  F   UNL     1       1.656   3.299  22.090  0.00  0.00    +0.000 F 
ATOM     20  C   UNL     1       2.793   4.383  20.327  0.00  0.00    +0.000 A 
ENDBRANCH  13  14
ENDBRANCH   7  13
TORSDOF 4
ENDMDL
MODEL 7
REMARK VINA RESULT:      -6.9      2.912      5.612
REMARK  Name = 
REMARK  5 active torsions:
REMARK  status: ('A' for Active; 'I' for Inactive)
REMARK    1  A    between atoms: C_1  and  C_2
REMARK    2  A    between atoms: C_2  and  N_3
REMARK    3  A    between atoms: C_2  and  C_4
REMARK    4  A    between atoms: C_10  and  C_11
REMARK    5  A    between atoms: C_11  and  C_12
REMARK                            x       y       z     vdW  Elec       q    Type
REMARK                         _______ _______ _______ _____ _____    ______ ____
ROOT
ATOM      1  C   UNL     1       2.479   3.158  18.865  0.00  0.00    +0.000 C 
ATOM      2  O   UNL     1       2.551   2.506  17.804  0.00  0.00    +0.000 OA
ATOM      3  N   UNL     1       2.926   4.466  18.905  0.00  0.00    +0.000 N 
ATOM      4  C   UNL     1       2.927   5.360  20.053  0.00  0.00    +0.000 C 
ATOM      5  C   UNL     1       2.470   6.682  19.468  0.00  0.00    +0.000 C 
ATOM      6  C   UNL     1       3.166   6.694  18.116  0.00  0.00    +0.000 C 
ATOM      7  C   UNL     1       3.216   5.219  17.667  0.00  0.00    +0.000 C 
ENDROOT
BRANCH   1   9
ATOM      8  C   UNL     1       2.613   2.631  21.359  0.00  0.00    +0.000 C 
ATOM      9  C   UNL     1       1.744   2.569  20.102  0.00  0.00    +0.000 C 
BRANCH   9  10
ATOM     10  N   UNL     1       0.454   3.232  20.399  0.00  0.00    +0.000 NA
ATOM     11  H   UNL     1      -0.073   3.327  19.530  0.00  0.00    +0.000 HD
ATOM     12  H   UNL     1       0.657   4.192  20.692  0.00  0.00    +0.000 HD
ENDBRANCH   9  10
ENDBRANCH   1   9
BRANCH   7  13
ATOM     13  C   UNL     1       4.569   4.861  16.993  0.00  0.00    +0.000 C 
BRANCH  13  14
ATOM     14  C   UNL     1       5.773   5.601  17.559  0.00  0.00    +0.000 A 
ATOM     15  C   UNL     1       6.283   6.757  16.939  0.00  0.00    +0.000 A 
ATOM     16  C   UNL     1       7.431   7.399  17.425  0.00  0.00    +0.000 A 
ATOM     17  C   UNL     1       8.054   6.923  18.571  0.00  0.00    +0.000 A 
ATOM     18  C   UNL     1       7.523   5.818  19.222  0.00  0.00    +0.000 A 
ATOM     19  F   UNL     1       8.103   5.381  20.348  0.00  0.00    +0.000 F 
ATOM     20  C   UNL     1       6.402   5.151  18.727  0.00  0.00    +0.000 A 
ENDBRANCH  13  14
ENDBRANCH   7  13
TORSDOF 4
ENDMDL
MODEL 8
REMARK VINA RESULT:      -6.9      1.101      1.172
REMARK  Name = 
REMARK  5 active torsions:
REMARK  status: ('A' for Active; 'I' for Inactive)
REMARK    1  A    between atoms: C_1  and  C_2
REMARK    2  A    between atoms: C_2  and  N_3
REMARK    3  A    between atoms: C_2  and  C_4
REMARK    4  A    between atoms: C_10  and  C_11
REMARK    5  A    between atoms: C_11  and  C_12
REMARK                            x       y       z     vdW  Elec       q    Type
REMARK                         _______ _______ _______ _____ _____    ______ ____
ROOT
ATOM      1  C   UNL     1       6.456   5.417  18.173  0.00  0.00    +0.000 C 
ATOM      2  O   UNL     1       5.735   5.426  19.190  0.00  0.00    +0.000 OA
ATOM      3  N   UNL     1       6.089   4.668  17.071  0.00  0.00    +0.000 N 
ATOM      4  C   UNL     1       6.813   4.535  15.817  0.00  0.00    +0.000 C 
ATOM      5  C   UNL     1       5.719   4.608  14.769  0.00  0.00    +0.000 C 
ATOM      6  C   UNL     1       4.591   3.830  15.428  0.00  0.00    +0.000 C 
ATOM      7  C   UNL     1       4.727   4.109  16.939  0.00  0.00    +0.000 C 
ENDROOT
BRANCH   1   9
ATOM      8  C   UNL     1       7.291   7.743  17.531  0.00  0.00    +0.000 C 
ATOM      9  C   UNL     1       7.684   6.366  18.070  0.00  0.00    +0.000 C 
BRANCH   9  10
ATOM     10  N   UNL     1       8.397   6.558  19.353  0.00  0.00    +0.000 NA
ATOM     11  H   UNL     1       9.282   6.052  19.314  0.00  0.00    +0.000 HD
ATOM     12  H   UNL     1       7.855   6.089  20.084  0.00  0.00    +0.000 HD
ENDBRANCH   9  10
ENDBRANCH   1   9
BRANCH   7  13
ATOM     13  C   UNL     1       4.464   2.838  17.792  0.00  0.00    +0.000 C 
BRANCH  13  14
ATOM     14  C   UNL     1       3.216   2.908  18.662  0.00  0.00    +0.000 A 
ATOM     15  C   UNL     1       1.939   2.635  18.138  0.00  0.00    +0.000 A 
ATOM     16  C   UNL     1       0.786   2.762  18.926  0.00  0.00    +0.000 A 
ATOM     17  C   UNL     1       0.899   3.115  20.264  0.00  0.00    +0.000 A 
ATOM     18  C   UNL     1       2.160   3.329  20.804  0.00  0.00    +0.000 A 
ATOM     19  F   UNL     1       2.273   3.634  22.103  0.00  0.00    +0.000 F 
ATOM     20  C   UNL     1       3.311   3.239  20.020  0.00  0.00    +0.000 A 
ENDBRANCH  13  14
ENDBRANCH   7  13
TORSDOF 4
ENDMDL
MODEL 9
REMARK VINA RESULT:      -6.9      3.309      5.893
REMARK  Name = 
REMARK  5 active torsions:
REMARK  status: ('A' for Active; 'I' for Inactive)
REMARK    1  A    between atoms: C_1  and  C_2
REMARK    2  A    between atoms: C_2  and  N_3
REMARK    3  A    between atoms: C_2  and  C_4
REMARK    4  A    between atoms: C_10  and  C_11
REMARK    5  A    between atoms: C_11  and  C_12
REMARK                            x       y       z     vdW  Elec       q    Type
REMARK                         _______ _______ _______ _____ _____    ______ ____
ROOT
ATOM      1  C   UNL     1       2.516   3.140  18.825  0.00  0.00    +0.000 C 
ATOM      2  O   UNL     1       2.587   2.485  17.766  0.00  0.00    +0.000 OA
ATOM      3  N   UNL     1       2.960   4.448  18.861  0.00  0.00    +0.000 N 
ATOM      4  C   UNL     1       2.962   5.345  20.006  0.00  0.00    +0.000 C 
ATOM      5  C   UNL     1       2.501   6.665  19.420  0.00  0.00    +0.000 C 
ATOM      6  C   UNL     1       3.194   6.675  18.066  0.00  0.00    +0.000 C 
ATOM      7  C   UNL     1       3.246   5.200  17.621  0.00  0.00    +0.000 C 
ENDROOT
BRANCH   1   9
ATOM      8  C   UNL     1       2.650   2.636  21.324  0.00  0.00    +0.000 C 
ATOM      9  C   UNL     1       1.785   2.552  20.065  0.00  0.00    +0.000 C 
BRANCH   9  10
ATOM     10  N   UNL     1       0.486   3.201  20.353  0.00  0.00    +0.000 NA
ATOM     11  H   UNL     1       0.214   2.976  21.310  0.00  0.00    +0.000 HD
ATOM     12  H   UNL     1      -0.222   2.755  19.764  0.00  0.00    +0.000 HD
ENDBRANCH   9  10
ENDBRANCH   1   9
BRANCH   7  13
ATOM     13  C   UNL     1       4.598   4.842  16.945  0.00  0.00    +0.000 C 
BRANCH  13  14
ATOM     14  C   UNL     1       5.816   5.503  17.577  0.00  0.00    +0.000 A 
ATOM     15  C   UNL     1       6.429   4.969  18.725  0.00  0.00    +0.000 A 
ATOM     16  C   UNL     1       7.510   5.615  19.341  0.00  0.00    +0.000 A 
ATOM     17  C   UNL     1       8.026   6.779  18.786  0.00  0.00    +0.000 A 
ATOM     18  C   UNL     1       7.463   7.281  17.621  0.00  0.00    +0.000 A 
ATOM     19  F   UNL     1       7.984   8.383  17.065  0.00  0.00    +0.000 F 
ATOM     20  C   UNL     1       6.366   6.664  17.019  0.00  0.00    +0.000 A 
ENDBRANCH  13  14
ENDBRANCH   7  13
TORSDOF 4
ENDMDL
