MODEL 1
REMARK VINA RESULT:      -7.0      0.000      0.000
REMARK  Name = 
REMARK  7 active torsions:
REMARK  status: ('A' for Active; 'I' for Inactive)
REMARK    1  A    between atoms: C_1  and  O_2
REMARK    2  A    between atoms: O_2  and  C_3
REMARK    3  A    between atoms: C_6  and  S_7
REMARK    4  A    between atoms: S_7  and  N_10
REMARK    5  A    between atoms: N_18  and  C_19
REMARK    6  A    between atoms: C_19  and  C_20
REMARK    7  A    between atoms: C_19  and  C_21
REMARK                            x       y       z     vdW  Elec       q    Type
REMARK                         _______ _______ _______ _____ _____    ______ ____
ROOT
ATOM      1  N   UNL     1       3.748   5.001  17.217  0.00  0.00    +0.000 NA
ATOM      2  C   UNL     1       3.899   5.798  18.533  0.00  0.00    +0.000 C 
ATOM      3  C   UNL     1       2.860   5.689  19.728  0.00  0.00    +0.000 C 
ATOM      4  C   UNL     1       2.566   4.250  20.315  0.00  0.00    +0.000 C 
ATOM      5  C   UNL     1       1.060   3.762  20.319  0.00  0.00    +0.000 C 
ATOM      6  C   UNL     1       0.808   3.093  18.913  0.00  0.00    +0.000 C 
ATOM      7  C   UNL     1       2.070   3.578  18.268  0.00  0.00    +0.000 C 
ATOM      8  C   UNL     1       2.607   4.033  16.940  0.00  0.00    +0.000 C 
ATOM      9  N   UNL     1       3.126   3.380  19.299  0.00  0.00    +0.000 NA
ENDROOT
BRANCH   1  10
ATOM     10  S   UNL     1       5.177   4.702  16.333  0.00  0.00    +0.000 S 
ATOM     11  O   UNL     1       5.042   5.221  14.984  0.00  0.00    +0.000 OA
ATOM     12  O   UNL     1       5.622   3.347  16.592  0.00  0.00    +0.000 OA
BRANCH  10  16
ATOM     13  C   UNL     1       7.983   7.599  18.258  0.00  0.00    +0.000 A 
ATOM     14  C   UNL     1       7.953   6.310  18.786  0.00  0.00    +0.000 A 
ATOM     15  C   UNL     1       7.085   5.385  18.216  0.00  0.00    +0.000 A 
ATOM     16  C   UNL     1       6.295   5.789  17.149  0.00  0.00    +0.000 A 
ATOM     17  C   UNL     1       6.390   7.090  16.680  0.00  0.00    +0.000 A 
ATOM     18  N   UNL     1       7.219   8.009  17.224  0.00  0.00    +0.000 NA
BRANCH  13  20
ATOM     19  C   UNL     1       8.680   9.821  18.382  0.00  0.00    +0.000 C 
ATOM     20  O   UNL     1       8.855   8.492  18.857  0.00  0.00    +0.000 OA
ENDBRANCH  13  20
ENDBRANCH  10  16
ENDBRANCH   1  10
BRANCH   9  21
ATOM     21  C   UNL     1       3.454   2.014  19.743  0.00  0.00    +0.000 C 
ATOM     22  C   UNL     1       3.811   1.089  18.574  0.00  0.00    +0.000 C 
ATOM     23  C   UNL     1       4.667   2.036  20.696  0.00  0.00    +0.000 C 
ENDBRANCH   9  21
TORSDOF 4
ENDMDL
MODEL 2
REMARK VINA RESULT:      -6.8      1.183      2.309
REMARK  Name = 
REMARK  7 active torsions:
REMARK  status: ('A' for Active; 'I' for Inactive)
REMARK    1  A    between atoms: C_1  and  O_2
REMARK    2  A    between atoms: O_2  and  C_3
REMARK    3  A    between atoms: C_6  and  S_7
REMARK    4  A    between atoms: S_7  and  N_10
REMARK    5  A    between atoms: N_18  and  C_19
REMARK    6  A    between atoms: C_19  and  C_20
REMARK    7  A    between atoms: C_19  and  C_21
REMARK                            x       y       z     vdW  Elec       q    Type
REMARK                         _______ _______ _______ _____ _____    ______ ____
ROOT
ATOM      1  N   UNL     1       5.041   4.502  18.926  0.00  0.00    +0.000 NA
ATOM      2  C   UNL     1       5.128   3.007  19.313  0.00  0.00    +0.000 C 
ATOM      3  C   UNL     1       4.267   2.372  20.486  0.00  0.00    +0.000 C 
ATOM      4  C   UNL     1       2.696   2.543  20.417  0.00  0.00    +0.000 C 
ATOM      5  C   UNL     1       1.986   3.231  21.653  0.00  0.00    +0.000 C 
ATOM      6  C   UNL     1       2.032   4.784  21.382  0.00  0.00    +0.000 C 
ATOM      7  C   UNL     1       2.998   4.726  20.238  0.00  0.00    +0.000 C 
ATOM      8  C   UNL     1       4.123   5.502  19.613  0.00  0.00    +0.000 C 
ATOM      9  N   UNL     1       2.540   3.576  19.411  0.00  0.00    +0.000 NA
ENDROOT
BRANCH   1  10
ATOM     10  S   UNL     1       5.479   4.906  17.328  0.00  0.00    +0.000 S 
ATOM     11  O   UNL     1       4.329   5.438  16.619  0.00  0.00    +0.000 OA
ATOM     12  O   UNL     1       6.295   3.842  16.774  0.00  0.00    +0.000 OA
BRANCH  10  16
ATOM     13  C   UNL     1       8.069   8.500  17.914  0.00  0.00    +0.000 A 
ATOM     14  C   UNL     1       8.403   7.361  18.642  0.00  0.00    +0.000 A 
ATOM     15  C   UNL     1       7.614   6.226  18.491  0.00  0.00    +0.000 A 
ATOM     16  C   UNL     1       6.535   6.283  17.619  0.00  0.00    +0.000 A 
ATOM     17  C   UNL     1       6.275   7.455  16.927  0.00  0.00    +0.000 A 
ATOM     18  N   UNL     1       7.022   8.572  17.066  0.00  0.00    +0.000 NA
BRANCH  13  20
ATOM     19  C   UNL     1       9.005   9.965  19.469  0.00  0.00    +0.000 C 
ATOM     20  O   UNL     1       8.875   9.610  18.098  0.00  0.00    +0.000 OA
ENDBRANCH  13  20
ENDBRANCH  10  16
ENDBRANCH   1  10
BRANCH   9  21
ATOM     21  C   UNL     1       1.219   3.634  18.761  0.00  0.00    +0.000 C 
ATOM     22  C   UNL     1       1.279   4.277  17.370  0.00  0.00    +0.000 C 
ATOM     23  C   UNL     1       0.644   2.214  18.583  0.00  0.00    +0.000 C 
ENDBRANCH   9  21
TORSDOF 4
ENDMDL
MODEL 3
REMARK VINA RESULT:      -6.7      1.052      1.260
REMARK  Name = 
REMARK  7 active torsions:
REMARK  status: ('A' for Active; 'I' for Inactive)
REMARK    1  A    between atoms: C_1  and  O_2
REMARK    2  A    between atoms: O_2  and  C_3
REMARK    3  A    between atoms: C_6  and  S_7
REMARK    4  A    between atoms: S_7  and  N_10
REMARK    5  A    between atoms: N_18  and  C_19
REMARK    6  A    between atoms: C_19  and  C_20
REMARK    7  A    between atoms: C_19  and  C_21
REMARK                            x       y       z     vdW  Elec       q    Type
REMARK                         _______ _______ _______ _____ _____    ______ ____
ROOT
ATOM      1  N   UNL     1       4.463   5.047  17.781  0.00  0.00    +0.000 NA
ATOM      2  C   UNL     1       4.168   6.002  18.960  0.00  0.00    +0.000 C 
ATOM      3  C   UNL     1       2.763   6.051  19.697  0.00  0.00    +0.000 C 
ATOM      4  C   UNL     1       2.203   4.698  20.297  0.00  0.00    +0.000 C 
ATOM      5  C   UNL     1       0.775   4.223  19.807  0.00  0.00    +0.000 C 
ATOM      6  C   UNL     1       1.015   3.383  18.493  0.00  0.00    +0.000 C 
ATOM      7  C   UNL     1       2.448   3.776  18.302  0.00  0.00    +0.000 C 
ATOM      8  C   UNL     1       3.452   4.058  17.220  0.00  0.00    +0.000 C 
ATOM      9  N   UNL     1       3.048   3.704  19.663  0.00  0.00    +0.000 NA
ENDROOT
BRANCH   1  10
ATOM     10  S   UNL     1       6.097   4.632  17.521  0.00  0.00    +0.000 S 
ATOM     11  O   UNL     1       6.304   4.285  16.126  0.00  0.00    +0.000 OA
ATOM     12  O   UNL     1       6.548   3.773  18.599  0.00  0.00    +0.000 OA
BRANCH  10  16
ATOM     13  C   UNL     1       7.961   8.675  17.905  0.00  0.00    +0.000 A 
ATOM     14  C   UNL     1       8.424   7.687  18.770  0.00  0.00    +0.000 A 
ATOM     15  C   UNL     1       7.860   6.419  18.684  0.00  0.00    +0.000 A 
ATOM     16  C   UNL     1       6.868   6.199  17.738  0.00  0.00    +0.000 A 
ATOM     17  C   UNL     1       6.468   7.237  16.911  0.00  0.00    +0.000 A 
ATOM     18  N   UNL     1       6.995   8.479  16.983  0.00  0.00    +0.000 NA
BRANCH  13  20
ATOM     19  C   UNL     1       9.261  10.074  19.244  0.00  0.00    +0.000 C 
ATOM     20  O   UNL     1       8.542   9.926  18.026  0.00  0.00    +0.000 OA
ENDBRANCH  13  20
ENDBRANCH  10  16
ENDBRANCH   1  10
BRANCH   9  21
ATOM     21  C   UNL     1       3.123   2.403  20.351  0.00  0.00    +0.000 C 
ATOM     22  C   UNL     1       4.560   1.881  20.459  0.00  0.00    +0.000 C 
ATOM     23  C   UNL     1       2.569   2.522  21.786  0.00  0.00    +0.000 C 
ENDBRANCH   9  21
TORSDOF 4
ENDMDL
MODEL 4
REMARK VINA RESULT:      -6.6      2.365      3.632
REMARK  Name = 
REMARK  7 active torsions:
REMARK  status: ('A' for Active; 'I' for Inactive)
REMARK    1  A    between atoms: C_1  and  O_2
REMARK    2  A    between atoms: O_2  and  C_3
REMARK    3  A    between atoms: C_6  and  S_7
REMARK    4  A    between atoms: S_7  and  N_10
REMARK    5  A    between atoms: N_18  and  C_19
REMARK    6  A    between atoms: C_19  and  C_20
REMARK    7  A    between atoms: C_19  and  C_21
REMARK                            x       y       z     vdW  Elec       q    Type
REMARK                         _______ _______ _______ _____ _____    ______ ____
ROOT
ATOM      1  N   UNL     1       4.361   5.433  18.140  0.00  0.00    +0.000 NA
ATOM      2  C   UNL     1       3.761   6.243  19.312  0.00  0.00    +0.000 C 
ATOM      3  C   UNL     1       2.283   6.017  19.845  0.00  0.00    +0.000 C 
ATOM      4  C   UNL     1       1.882   4.555  20.295  0.00  0.00    +0.000 C 
ATOM      5  C   UNL     1       0.630   3.895  19.587  0.00  0.00    +0.000 C 
ATOM      6  C   UNL     1       1.174   3.200  18.281  0.00  0.00    +0.000 C 
ATOM      7  C   UNL     1       2.535   3.826  18.312  0.00  0.00    +0.000 C 
ATOM      8  C   UNL     1       3.610   4.339  17.396  0.00  0.00    +0.000 C 
ATOM      9  N   UNL     1       2.955   3.753  19.738  0.00  0.00    +0.000 NA
ENDROOT
BRANCH   1  10
ATOM     10  S   UNL     1       6.062   5.300  18.093  0.00  0.00    +0.000 S 
ATOM     11  O   UNL     1       6.488   4.131  18.841  0.00  0.00    +0.000 OA
ATOM     12  O   UNL     1       6.648   6.607  18.315  0.00  0.00    +0.000 OA
BRANCH  10  16
ATOM     13  C   UNL     1       6.798   4.436  13.770  0.00  0.00    +0.000 A 
ATOM     14  C   UNL     1       5.876   3.622  14.424  0.00  0.00    +0.000 A 
ATOM     15  C   UNL     1       5.629   3.858  15.772  0.00  0.00    +0.000 A 
ATOM     16  C   UNL     1       6.308   4.893  16.398  0.00  0.00    +0.000 A 
ATOM     17  C   UNL     1       7.206   5.660  15.673  0.00  0.00    +0.000 A 
ATOM     18  N   UNL     1       7.470   5.444  14.366  0.00  0.00    +0.000 NA
BRANCH  13  20
ATOM     19  C   UNL     1       6.226   3.088  11.955  0.00  0.00    +0.000 C 
ATOM     20  O   UNL     1       7.022   4.166  12.431  0.00  0.00    +0.000 OA
ENDBRANCH  13  20
ENDBRANCH  10  16
ENDBRANCH   1  10
BRANCH   9  21
ATOM     21  C   UNL     1       3.155   2.435  20.365  0.00  0.00    +0.000 C 
ATOM     22  C   UNL     1       4.635   2.042  20.441  0.00  0.00    +0.000 C 
ATOM     23  C   UNL     1       2.608   2.439  21.808  0.00  0.00    +0.000 C 
ENDBRANCH   9  21
TORSDOF 4
ENDMDL
MODEL 5
REMARK VINA RESULT:      -6.5      1.773      2.369
REMARK  Name = 
REMARK  7 active torsions:
REMARK  status: ('A' for Active; 'I' for Inactive)
REMARK    1  A    between atoms: C_1  and  O_2
REMARK    2  A    between atoms: O_2  and  C_3
REMARK    3  A    between atoms: C_6  and  S_7
REMARK    4  A    between atoms: S_7  and  N_10
REMARK    5  A    between atoms: N_18  and  C_19
REMARK    6  A    between atoms: C_19  and  C_20
REMARK    7  A    between atoms: C_19  and  C_21
REMARK                            x       y       z     vdW  Elec       q    Type
REMARK                         _______ _______ _______ _____ _____    ______ ____
ROOT
ATOM      1  N   UNL     1       5.442   5.296  17.689  0.00  0.00    +0.000 NA
ATOM      2  C   UNL     1       4.480   6.333  18.315  0.00  0.00    +0.000 C 
ATOM      3  C   UNL     1       2.900   6.197  18.235  0.00  0.00    +0.000 C 
ATOM      4  C   UNL     1       2.251   4.862  18.781  0.00  0.00    +0.000 C 
ATOM      5  C   UNL     1       1.345   4.035  17.781  0.00  0.00    +0.000 C 
ATOM      6  C   UNL     1       2.318   3.079  16.989  0.00  0.00    +0.000 C 
ATOM      7  C   UNL     1       3.592   3.727  17.438  0.00  0.00    +0.000 C 
ATOM      8  C   UNL     1       4.978   4.048  16.953  0.00  0.00    +0.000 C 
ATOM      9  N   UNL     1       3.398   3.982  18.892  0.00  0.00    +0.000 NA
ENDROOT
BRANCH   1  10
ATOM     10  S   UNL     1       7.004   5.194  18.367  0.00  0.00    +0.000 S 
ATOM     11  O   UNL     1       7.876   4.436  17.488  0.00  0.00    +0.000 OA
ATOM     12  O   UNL     1       6.892   4.893  19.781  0.00  0.00    +0.000 OA
BRANCH  10  16
ATOM     13  C   UNL     1       8.439   9.422  18.179  0.00  0.00    +0.000 A 
ATOM     14  C   UNL     1       7.477   9.045  17.246  0.00  0.00    +0.000 A 
ATOM     15  C   UNL     1       7.013   7.734  17.271  0.00  0.00    +0.000 A 
ATOM     16  C   UNL     1       7.529   6.868  18.225  0.00  0.00    +0.000 A 
ATOM     17  C   UNL     1       8.482   7.326  19.121  0.00  0.00    +0.000 A 
ATOM     18  N   UNL     1       8.954   8.591  19.110  0.00  0.00    +0.000 NA
BRANCH  13  20
ATOM     19  C   UNL     1       9.457  11.169  19.342  0.00  0.00    +0.000 C 
ATOM     20  O   UNL     1       8.880  10.733  18.118  0.00  0.00    +0.000 OA
ENDBRANCH  13  20
ENDBRANCH  10  16
ENDBRANCH   1  10
BRANCH   9  21
ATOM     21  C   UNL     1       3.236   2.840  19.810  0.00  0.00    +0.000 C 
ATOM     22  C   UNL     1       4.575   2.188  20.173  0.00  0.00    +0.000 C 
ATOM     23  C   UNL     1       2.578   3.300  21.127  0.00  0.00    +0.000 C 
ENDBRANCH   9  21
TORSDOF 4
ENDMDL
MODEL 6
REMARK VINA RESULT:      -6.5      1.720      2.213
REMARK  Name = 
REMARK  7 active torsions:
REMARK  status: ('A' for Active; 'I' for Inactive)
REMARK    1  A    between atoms: C_1  and  O_2
REMARK    2  A    between atoms: O_2  and  C_3
REMARK    3  A    between atoms: C_6  and  S_7
REMARK    4  A    between atoms: S_7  and  N_10
REMARK    5  A    between atoms: N_18  and  C_19
REMARK    6  A    between atoms: C_19  and  C_20
REMARK    7  A    between atoms: C_19  and  C_21
REMARK                            x       y       z     vdW  Elec       q    Type
REMARK                         _______ _______ _______ _____ _____    ______ ____
ROOT
ATOM      1  N   UNL     1       5.486   5.284  17.664  0.00  0.00    +0.000 NA
ATOM      2  C   UNL     1       4.552   6.367  18.253  0.00  0.00    +0.000 C 
ATOM      3  C   UNL     1       2.969   6.272  18.175  0.00  0.00    +0.000 C 
ATOM      4  C   UNL     1       2.284   4.975  18.764  0.00  0.00    +0.000 C 
ATOM      5  C   UNL     1       1.356   4.139  17.792  0.00  0.00    +0.000 C 
ATOM      6  C   UNL     1       2.303   3.130  17.035  0.00  0.00    +0.000 C 
ATOM      7  C   UNL     1       3.594   3.758  17.463  0.00  0.00    +0.000 C 
ATOM      8  C   UNL     1       4.988   4.025  16.970  0.00  0.00    +0.000 C 
ATOM      9  N   UNL     1       3.406   4.067  18.908  0.00  0.00    +0.000 NA
ENDROOT
BRANCH   1  10
ATOM     10  S   UNL     1       7.044   5.163  18.348  0.00  0.00    +0.000 S 
ATOM     11  O   UNL     1       7.922   4.430  17.452  0.00  0.00    +0.000 OA
ATOM     12  O   UNL     1       6.924   4.820  19.752  0.00  0.00    +0.000 OA
BRANCH  10  16
ATOM     13  C   UNL     1       8.281   9.438  17.942  0.00  0.00    +0.000 A 
ATOM     14  C   UNL     1       8.853   8.716  18.986  0.00  0.00    +0.000 A 
ATOM     15  C   UNL     1       8.485   7.385  19.147  0.00  0.00    +0.000 A 
ATOM     16  C   UNL     1       7.569   6.840  18.258  0.00  0.00    +0.000 A 
ATOM     17  C   UNL     1       7.051   7.626  17.241  0.00  0.00    +0.000 A 
ATOM     18  N   UNL     1       7.386   8.924  17.071  0.00  0.00    +0.000 NA
BRANCH  13  20
ATOM     19  C   UNL     1       9.353  11.235  18.971  0.00  0.00    +0.000 C 
ATOM     20  O   UNL     1       8.668  10.761  17.819  0.00  0.00    +0.000 OA
ENDBRANCH  13  20
ENDBRANCH  10  16
ENDBRANCH   1  10
BRANCH   9  21
ATOM     21  C   UNL     1       3.212   2.963  19.863  0.00  0.00    +0.000 C 
ATOM     22  C   UNL     1       4.531   2.282  20.245  0.00  0.00    +0.000 C 
ATOM     23  C   UNL     1       2.573   3.486  21.166  0.00  0.00    +0.000 C 
ENDBRANCH   9  21
TORSDOF 4
ENDMDL
MODEL 7
REMARK VINA RESULT:      -6.4      0.629      1.042
REMARK  Name = 
REMARK  7 active torsions:
REMARK  status: ('A' for Active; 'I' for Inactive)
REMARK    1  A    between atoms: C_1  and  O_2
REMARK    2  A    between atoms: O_2  and  C_3
REMARK    3  A    between atoms: C_6  and  S_7
REMARK    4  A    between atoms: S_7  and  N_10
REMARK    5  A    between atoms: N_18  and  C_19
REMARK    6  A    between atoms: C_19  and  C_20
REMARK    7  A    between atoms: C_19  and  C_21
REMARK                            x       y       z     vdW  Elec       q    Type
REMARK                         _______ _______ _______ _____ _____    ______ ____
ROOT
ATOM      1  N   UNL     1       3.954   5.168  17.402  0.00  0.00    +0.000 NA
ATOM      2  C   UNL     1       4.094   5.878  18.768  0.00  0.00    +0.000 C 
ATOM      3  C   UNL     1       3.007   5.753  19.917  0.00  0.00    +0.000 C 
ATOM      4  C   UNL     1       2.623   4.299  20.407  0.00  0.00    +0.000 C 
ATOM      5  C   UNL     1       1.096   3.887  20.330  0.00  0.00    +0.000 C 
ATOM      6  C   UNL     1       0.864   3.315  18.879  0.00  0.00    +0.000 C 
ATOM      7  C   UNL     1       2.171   3.772  18.307  0.00  0.00    +0.000 C 
ATOM      8  C   UNL     1       2.779   4.276  17.029  0.00  0.00    +0.000 C 
ATOM      9  N   UNL     1       3.177   3.462  19.360  0.00  0.00    +0.000 NA
ENDROOT
BRANCH   1  10
ATOM     10  S   UNL     1       5.398   4.849  16.552  0.00  0.00    +0.000 S 
ATOM     11  O   UNL     1       5.245   5.224  15.157  0.00  0.00    +0.000 OA
ATOM     12  O   UNL     1       5.906   3.549  16.944  0.00  0.00    +0.000 OA
BRANCH  10  16
ATOM     13  C   UNL     1       8.158   7.794  18.470  0.00  0.00    +0.000 A 
ATOM     14  C   UNL     1       7.295   8.287  17.495  0.00  0.00    +0.000 A 
ATOM     15  C   UNL     1       6.428   7.397  16.871  0.00  0.00    +0.000 A 
ATOM     16  C   UNL     1       6.462   6.063  17.253  0.00  0.00    +0.000 A 
ATOM     17  C   UNL     1       7.348   5.656  18.237  0.00  0.00    +0.000 A 
ATOM     18  N   UNL     1       8.206   6.500  18.851  0.00  0.00    +0.000 NA
BRANCH  13  20
ATOM     19  C   UNL     1       8.853  10.020  18.531  0.00  0.00    +0.000 C 
ATOM     20  O   UNL     1       9.010   8.710  19.063  0.00  0.00    +0.000 OA
ENDBRANCH  13  20
ENDBRANCH  10  16
ENDBRANCH   1  10
BRANCH   9  21
ATOM     21  C   UNL     1       3.423   2.058  19.733  0.00  0.00    +0.000 C 
ATOM     22  C   UNL     1       3.749   1.179  18.520  0.00  0.00    +0.000 C 
ATOM     23  C   UNL     1       4.618   1.961  20.703  0.00  0.00    +0.000 C 
ENDBRANCH   9  21
TORSDOF 4
ENDMDL
MODEL 8
REMARK VINA RESULT:      -6.4      1.290      1.687
REMARK  Name = 
REMARK  7 active torsions:
REMARK  status: ('A' for Active; 'I' for Inactive)
REMARK    1  A    between atoms: C_1  and  O_2
REMARK    2  A    between atoms: O_2  and  C_3
REMARK    3  A    between atoms: C_6  and  S_7
REMARK    4  A    between atoms: S_7  and  N_10
REMARK    5  A    between atoms: N_18  and  C_19
REMARK    6  A    between atoms: C_19  and  C_20
REMARK    7  A    between atoms: C_19  and  C_21
REMARK                            x       y       z     vdW  Elec       q    Type
REMARK                         _______ _______ _______ _____ _____    ______ ____
ROOT
ATOM      1  N   UNL     1       4.623   5.141  17.842  0.00  0.00    +0.000 NA
ATOM      2  C   UNL     1       4.209   6.073  19.004  0.00  0.00    +0.000 C 
ATOM      3  C   UNL     1       2.750   6.072  19.630  0.00  0.00    +0.000 C 
ATOM      4  C   UNL     1       2.188   4.696  20.173  0.00  0.00    +0.000 C 
ATOM      5  C   UNL     1       0.817   4.184  19.569  0.00  0.00    +0.000 C 
ATOM      6  C   UNL     1       1.183   3.367  18.271  0.00  0.00    +0.000 C 
ATOM      7  C   UNL     1       2.614   3.804  18.195  0.00  0.00    +0.000 C 
ATOM      8  C   UNL     1       3.689   4.128  17.196  0.00  0.00    +0.000 C 
ATOM      9  N   UNL     1       3.109   3.735  19.598  0.00  0.00    +0.000 NA
ENDROOT
BRANCH   1  10
ATOM     10  S   UNL     1       6.285   4.777  17.707  0.00  0.00    +0.000 S 
ATOM     11  O   UNL     1       6.579   4.302  16.366  0.00  0.00    +0.000 OA
ATOM     12  O   UNL     1       6.712   4.053  18.888  0.00  0.00    +0.000 OA
BRANCH  10  16
ATOM     13  C   UNL     1       8.153   8.817  18.103  0.00  0.00    +0.000 A 
ATOM     14  C   UNL     1       7.114   8.695  17.185  0.00  0.00    +0.000 A 
ATOM     15  C   UNL     1       6.515   7.450  17.030  0.00  0.00    +0.000 A 
ATOM     16  C   UNL     1       6.978   6.392  17.799  0.00  0.00    +0.000 A 
ATOM     17  C   UNL     1       8.015   6.600  18.695  0.00  0.00    +0.000 A 
ATOM     18  N   UNL     1       8.619   7.798  18.856  0.00  0.00    +0.000 NA
BRANCH  13  20
ATOM     19  C   UNL     1       9.333  10.270  19.495  0.00  0.00    +0.000 C 
ATOM     20  O   UNL     1       8.728  10.071  18.224  0.00  0.00    +0.000 OA
ENDBRANCH  13  20
ENDBRANCH  10  16
ENDBRANCH   1  10
BRANCH   9  21
ATOM     21  C   UNL     1       3.170   2.429  20.277  0.00  0.00    +0.000 C 
ATOM     22  C   UNL     1       4.606   1.909  20.415  0.00  0.00    +0.000 C 
ATOM     23  C   UNL     1       2.584   2.537  21.700  0.00  0.00    +0.000 C 
ENDBRANCH   9  21
TORSDOF 4
ENDMDL
MODEL 9
REMARK VINA RESULT:      -6.2      2.540      4.239
REMARK  Name = 
REMARK  7 active torsions:
REMARK  status: ('A' for Active; 'I' for Inactive)
REMARK    1  A    between atoms: C_1  and  O_2
REMARK    2  A    between atoms: O_2  and  C_3
REMARK    3  A    between atoms: C_6  and  S_7
REMARK    4  A    between atoms: S_7  and  N_10
REMARK    5  A    between atoms: N_18  and  C_19
REMARK    6  A    between atoms: C_19  and  C_20
REMARK    7  A    between atoms: C_19  and  C_21
REMARK                            x       y       z     vdW  Elec       q    Type
REMARK                         _______ _______ _______ _____ _____    ______ ____
ROOT
ATOM      1  N   UNL     1       4.756   3.633  18.159  0.00  0.00    +0.000 NA
ATOM      2  C   UNL     1       3.709   3.551  17.026  0.00  0.00    +0.000 C 
ATOM      3  C   UNL     1       2.238   2.998  17.252  0.00  0.00    +0.000 C 
ATOM      4  C   UNL     1       1.364   3.683  18.379  0.00  0.00    +0.000 C 
ATOM      5  C   UNL     1       0.788   2.748  19.519  0.00  0.00    +0.000 C 
ATOM      6  C   UNL     1       1.906   2.660  20.627  0.00  0.00    +0.000 C 
ATOM      7  C   UNL     1       2.999   3.282  19.813  0.00  0.00    +0.000 C 
ATOM      8  C   UNL     1       4.484   3.209  19.595  0.00  0.00    +0.000 C 
ATOM      9  N   UNL     1       2.354   4.435  19.127  0.00  0.00    +0.000 NA
ENDROOT
BRANCH   1  10
ATOM     10  S   UNL     1       6.000   4.786  17.972  0.00  0.00    +0.000 S 
ATOM     11  O   UNL     1       7.197   4.339  18.661  0.00  0.00    +0.000 OA
ATOM     12  O   UNL     1       5.452   6.114  18.169  0.00  0.00    +0.000 OA
BRANCH  10  16
ATOM     13  C   UNL     1       6.980   4.518  13.620  0.00  0.00    +0.000 A 
ATOM     14  C   UNL     1       6.118   3.550  14.129  0.00  0.00    +0.000 A 
ATOM     15  C   UNL     1       5.798   3.599  15.481  0.00  0.00    +0.000 A 
ATOM     16  C   UNL     1       6.349   4.610  16.255  0.00  0.00    +0.000 A 
ATOM     17  C   UNL     1       7.195   5.538  15.669  0.00  0.00    +0.000 A 
ATOM     18  N   UNL     1       7.528   5.505  14.360  0.00  0.00    +0.000 NA
BRANCH  13  20
ATOM     19  C   UNL     1       6.839   3.210  11.694  0.00  0.00    +0.000 C 
ATOM     20  O   UNL     1       7.280   4.432  12.271  0.00  0.00    +0.000 OA
ENDBRANCH  13  20
ENDBRANCH  10  16
ENDBRANCH   1  10
BRANCH   9  21
ATOM     21  C   UNL     1       1.829   5.552  19.931  0.00  0.00    +0.000 C 
ATOM     22  C   UNL     1       2.316   5.506  21.383  0.00  0.00    +0.000 C 
ATOM     23  C   UNL     1       2.285   6.901  19.338  0.00  0.00    +0.000 C 
ENDBRANCH   9  21
TORSDOF 4
ENDMDL
