MODEL 1
REMARK VINA RESULT:      -7.6      0.000      0.000
REMARK  Name = 
REMARK  10 active torsions:
REMARK  status: ('A' for Active; 'I' for Inactive)
REMARK    1  A    between atoms: C_1  and  C_2
REMARK    2  A    between atoms: C_2  and  C_3
REMARK    3  A    between atoms: C_3  and  C_4
REMARK    4  A    between atoms: C_4  and  C_5
REMARK    5  A    between atoms: C_5  and  O_7
REMARK    6  A    between atoms: O_7  and  C_8
REMARK    7  A    between atoms: C_8  and  C_9
REMARK    8  A    between atoms: C_9  and  N_10
REMARK    9  A    between atoms: C_12  and  C_13
REMARK   10  A    between atoms: C_17  and  C_18
REMARK                            x       y       z     vdW  Elec       q    Type
REMARK                         _______ _______ _______ _____ _____    ______ ____
ROOT
ATOM      1  N   UNL     1       5.712   5.575  17.826  0.00  0.00    +0.000 N 
ATOM      2  N   UNL     1       5.750   5.431  16.467  0.00  0.00    +0.000 NA
ATOM      3  C   UNL     1       6.782   4.891  15.905  0.00  0.00    +0.000 C 
ATOM      4  O   UNL     1       7.889   4.447  16.534  0.00  0.00    +0.000 OA
ATOM      5  C   UNL     1       7.958   4.637  17.934  0.00  0.00    +0.000 C 
ATOM      6  C   UNL     1       6.766   5.231  18.650  0.00  0.00    +0.000 C 
ATOM      7  O   UNL     1       6.764   5.390  19.872  0.00  0.00    +0.000 OA
ENDROOT
BRANCH   3   8
ATOM      8  C   UNL     1       6.889   4.662  14.442  0.00  0.00    +0.000 A 
ATOM      9  C   UNL     1       7.765   5.451  13.690  0.00  0.00    +0.000 A 
ATOM     10  C   UNL     1       7.860   5.272  12.310  0.00  0.00    +0.000 A 
ATOM     11  C   UNL     1       7.073   4.312  11.671  0.00  0.00    +0.000 A 
ATOM     12  C   UNL     1       6.189   3.516  12.405  0.00  0.00    +0.000 A 
ATOM     13  C   UNL     1       5.319   2.497  11.729  0.00  0.00    +0.000 C 
ATOM     14  C   UNL     1       6.110   3.689  13.793  0.00  0.00    +0.000 A 
ENDBRANCH   3   8
BRANCH   1  15
ATOM     15  C   UNL     1       4.485   6.126  18.386  0.00  0.00    +0.000 C 
BRANCH  15  16
ATOM     16  C   UNL     1       3.393   5.073  18.569  0.00  0.00    +0.000 C 
BRANCH  16  17
ATOM     17  O   UNL     1       3.659   4.257  19.727  0.00  0.00    +0.000 OA
BRANCH  17  18
ATOM     18  C   UNL     1       4.082   2.993  19.451  0.00  0.00    +0.000 C 
ATOM     19  O   UNL     1       4.992   2.413  20.027  0.00  0.00    +0.000 OA
BRANCH  18  20
ATOM     20  C   UNL     1       3.252   2.369  18.359  0.00  0.00    +0.000 C 
BRANCH  20  21
ATOM     21  C   UNL     1       2.017   1.673  18.927  0.00  0.00    +0.000 C 
BRANCH  21  23
ATOM     22  C   UNL     1       0.509   3.263  20.170  0.00  0.00    +0.000 C 
ATOM     23  C   UNL     1       0.761   2.544  18.854  0.00  0.00    +0.000 C 
ENDBRANCH  21  23
ENDBRANCH  20  21
ENDBRANCH  18  20
ENDBRANCH  17  18
ENDBRANCH  16  17
ENDBRANCH  15  16
ENDBRANCH   1  15
TORSDOF 8
ENDMDL
MODEL 2
REMARK VINA RESULT:      -7.6      1.246      1.703
REMARK  Name = 
REMARK  10 active torsions:
REMARK  status: ('A' for Active; 'I' for Inactive)
REMARK    1  A    between atoms: C_1  and  C_2
REMARK    2  A    between atoms: C_2  and  C_3
REMARK    3  A    between atoms: C_3  and  C_4
REMARK    4  A    between atoms: C_4  and  C_5
REMARK    5  A    between atoms: C_5  and  O_7
REMARK    6  A    between atoms: O_7  and  C_8
REMARK    7  A    between atoms: C_8  and  C_9
REMARK    8  A    between atoms: C_9  and  N_10
REMARK    9  A    between atoms: C_12  and  C_13
REMARK   10  A    between atoms: C_17  and  C_18
REMARK                            x       y       z     vdW  Elec       q    Type
REMARK                         _______ _______ _______ _____ _____    ______ ____
ROOT
ATOM      1  N   UNL     1       5.355   4.652  17.975  0.00  0.00    +0.000 N 
ATOM      2  N   UNL     1       5.433   4.519  16.616  0.00  0.00    +0.000 NA
ATOM      3  C   UNL     1       6.572   4.657  16.019  0.00  0.00    +0.000 C 
ATOM      4  O   UNL     1       7.750   4.949  16.610  0.00  0.00    +0.000 OA
ATOM      5  C   UNL     1       7.734   5.181  18.005  0.00  0.00    +0.000 C 
ATOM      6  C   UNL     1       6.437   4.999  18.761  0.00  0.00    +0.000 C 
ATOM      7  O   UNL     1       6.377   5.161  19.981  0.00  0.00    +0.000 OA
ENDROOT
BRANCH   3   8
ATOM      8  C   UNL     1       6.753   4.492  14.555  0.00  0.00    +0.000 A 
ATOM      9  C   UNL     1       7.667   5.311  13.884  0.00  0.00    +0.000 A 
ATOM     10  C   UNL     1       7.831   5.192  12.503  0.00  0.00    +0.000 A 
ATOM     11  C   UNL     1       7.075   4.265  11.784  0.00  0.00    +0.000 A 
ATOM     12  C   UNL     1       6.154   3.440  12.437  0.00  0.00    +0.000 A 
ATOM     13  C   UNL     1       5.318   2.455  11.674  0.00  0.00    +0.000 C 
ATOM     14  C   UNL     1       6.006   3.552  13.825  0.00  0.00    +0.000 A 
ENDBRANCH   3   8
BRANCH   1  15
ATOM     15  C   UNL     1       4.051   4.411  18.576  0.00  0.00    +0.000 C 
BRANCH  15  16
ATOM     16  C   UNL     1       2.999   5.427  18.135  0.00  0.00    +0.000 C 
BRANCH  16  17
ATOM     17  O   UNL     1       1.691   4.823  18.089  0.00  0.00    +0.000 OA
BRANCH  17  18
ATOM     18  C   UNL     1       1.683   3.499  17.771  0.00  0.00    +0.000 C 
ATOM     19  O   UNL     1       2.215   3.009  16.784  0.00  0.00    +0.000 OA
BRANCH  18  20
ATOM     20  C   UNL     1       0.964   2.692  18.821  0.00  0.00    +0.000 C 
BRANCH  20  21
ATOM     21  C   UNL     1       0.835   3.471  20.129  0.00  0.00    +0.000 C 
BRANCH  21  23
ATOM     22  C   UNL     1       2.759   2.758  21.590  0.00  0.00    +0.000 C 
ATOM     23  C   UNL     1       1.261   2.652  21.349  0.00  0.00    +0.000 C 
ENDBRANCH  21  23
ENDBRANCH  20  21
ENDBRANCH  18  20
ENDBRANCH  17  18
ENDBRANCH  16  17
ENDBRANCH  15  16
ENDBRANCH   1  15
TORSDOF 8
ENDMDL
MODEL 3
REMARK VINA RESULT:      -7.5      0.971      1.628
REMARK  Name = 
REMARK  10 active torsions:
REMARK  status: ('A' for Active; 'I' for Inactive)
REMARK    1  A    between atoms: C_1  and  C_2
REMARK    2  A    between atoms: C_2  and  C_3
REMARK    3  A    between atoms: C_3  and  C_4
REMARK    4  A    between atoms: C_4  and  C_5
REMARK    5  A    between atoms: C_5  and  O_7
REMARK    6  A    between atoms: O_7  and  C_8
REMARK    7  A    between atoms: C_8  and  C_9
REMARK    8  A    between atoms: C_9  and  N_10
REMARK    9  A    between atoms: C_12  and  C_13
REMARK   10  A    between atoms: C_17  and  C_18
REMARK                            x       y       z     vdW  Elec       q    Type
REMARK                         _______ _______ _______ _____ _____    ______ ____
ROOT
ATOM      1  N   UNL     1       5.517   5.554  17.762  0.00  0.00    +0.000 N 
ATOM      2  N   UNL     1       5.597   5.414  16.404  0.00  0.00    +0.000 NA
ATOM      3  C   UNL     1       6.635   4.855  15.874  0.00  0.00    +0.000 C 
ATOM      4  O   UNL     1       7.712   4.386  16.537  0.00  0.00    +0.000 OA
ATOM      5  C   UNL     1       7.738   4.569  17.940  0.00  0.00    +0.000 C 
ATOM      6  C   UNL     1       6.536   5.184  18.619  0.00  0.00    +0.000 C 
ATOM      7  O   UNL     1       6.497   5.338  19.841  0.00  0.00    +0.000 OA
ENDROOT
BRANCH   3   8
ATOM      8  C   UNL     1       6.786   4.630  14.414  0.00  0.00    +0.000 A 
ATOM      9  C   UNL     1       7.713   5.395  13.698  0.00  0.00    +0.000 A 
ATOM     10  C   UNL     1       7.850   5.220  12.321  0.00  0.00    +0.000 A 
ATOM     11  C   UNL     1       7.056   4.288  11.649  0.00  0.00    +0.000 A 
ATOM     12  C   UNL     1       6.122   3.516  12.347  0.00  0.00    +0.000 A 
ATOM     13  C   UNL     1       5.245   2.529  11.636  0.00  0.00    +0.000 C 
ATOM     14  C   UNL     1       6.000   3.685  13.733  0.00  0.00    +0.000 A 
ENDBRANCH   3   8
BRANCH   1  15
ATOM     15  C   UNL     1       4.283   6.128  18.283  0.00  0.00    +0.000 C 
BRANCH  15  16
ATOM     16  C   UNL     1       3.055   5.276  17.968  0.00  0.00    +0.000 C 
BRANCH  16  17
ATOM     17  O   UNL     1       2.033   5.463  18.968  0.00  0.00    +0.000 OA
BRANCH  17  18
ATOM     18  C   UNL     1       1.484   4.313  19.446  0.00  0.00    +0.000 C 
ATOM     19  O   UNL     1       1.025   4.167  20.571  0.00  0.00    +0.000 OA
BRANCH  18  20
ATOM     20  C   UNL     1       1.472   3.237  18.391  0.00  0.00    +0.000 C 
BRANCH  20  21
ATOM     21  C   UNL     1       2.016   1.918  18.937  0.00  0.00    +0.000 C 
BRANCH  21  23
ATOM     22  C   UNL     1       4.312   2.261  19.914  0.00  0.00    +0.000 C 
ATOM     23  C   UNL     1       3.522   1.762  18.714  0.00  0.00    +0.000 C 
ENDBRANCH  21  23
ENDBRANCH  20  21
ENDBRANCH  18  20
ENDBRANCH  17  18
ENDBRANCH  16  17
ENDBRANCH  15  16
ENDBRANCH   1  15
TORSDOF 8
ENDMDL
MODEL 4
REMARK VINA RESULT:      -7.5      1.297      1.911
REMARK  Name = 
REMARK  10 active torsions:
REMARK  status: ('A' for Active; 'I' for Inactive)
REMARK    1  A    between atoms: C_1  and  C_2
REMARK    2  A    between atoms: C_2  and  C_3
REMARK    3  A    between atoms: C_3  and  C_4
REMARK    4  A    between atoms: C_4  and  C_5
REMARK    5  A    between atoms: C_5  and  O_7
REMARK    6  A    between atoms: O_7  and  C_8
REMARK    7  A    between atoms: C_8  and  C_9
REMARK    8  A    between atoms: C_9  and  N_10
REMARK    9  A    between atoms: C_12  and  C_13
REMARK   10  A    between atoms: C_17  and  C_18
REMARK                            x       y       z     vdW  Elec       q    Type
REMARK                         _______ _______ _______ _____ _____    ______ ____
ROOT
ATOM      1  N   UNL     1       5.334   4.422  17.914  0.00  0.00    +0.000 N 
ATOM      2  N   UNL     1       5.411   4.315  16.553  0.00  0.00    +0.000 NA
ATOM      3  C   UNL     1       6.530   4.551  15.951  0.00  0.00    +0.000 C 
ATOM      4  O   UNL     1       7.686   4.927  16.537  0.00  0.00    +0.000 OA
ATOM      5  C   UNL     1       7.663   5.138  17.935  0.00  0.00    +0.000 C 
ATOM      6  C   UNL     1       6.391   4.844  18.698  0.00  0.00    +0.000 C 
ATOM      7  O   UNL     1       6.328   4.983  19.921  0.00  0.00    +0.000 OA
ENDROOT
BRANCH   3   8
ATOM      8  C   UNL     1       6.711   4.421  14.483  0.00  0.00    +0.000 A 
ATOM      9  C   UNL     1       7.616   5.264  13.830  0.00  0.00    +0.000 A 
ATOM     10  C   UNL     1       7.780   5.178  12.447  0.00  0.00    +0.000 A 
ATOM     11  C   UNL     1       7.034   4.259  11.707  0.00  0.00    +0.000 A 
ATOM     12  C   UNL     1       6.122   3.410  12.341  0.00  0.00    +0.000 A 
ATOM     13  C   UNL     1       5.295   2.435  11.557  0.00  0.00    +0.000 C 
ATOM     14  C   UNL     1       5.973   3.490  13.733  0.00  0.00    +0.000 A 
ENDBRANCH   3   8
BRANCH   1  15
ATOM     15  C   UNL     1       4.057   4.070  18.521  0.00  0.00    +0.000 C 
BRANCH  15  16
ATOM     16  C   UNL     1       4.095   2.723  19.239  0.00  0.00    +0.000 C 
BRANCH  16  17
ATOM     17  O   UNL     1       2.767   2.305  19.614  0.00  0.00    +0.000 OA
BRANCH  17  18
ATOM     18  C   UNL     1       2.439   2.541  20.915  0.00  0.00    +0.000 C 
ATOM     19  O   UNL     1       3.159   2.308  21.875  0.00  0.00    +0.000 OA
BRANCH  18  20
ATOM     20  C   UNL     1       1.075   3.172  21.024  0.00  0.00    +0.000 C 
BRANCH  20  21
ATOM     21  C   UNL     1       0.993   4.463  20.212  0.00  0.00    +0.000 C 
BRANCH  21  23
ATOM     22  C   UNL     1       2.110   6.696  19.883  0.00  0.00    +0.000 C 
ATOM     23  C   UNL     1       1.699   5.637  20.893  0.00  0.00    +0.000 C 
ENDBRANCH  21  23
ENDBRANCH  20  21
ENDBRANCH  18  20
ENDBRANCH  17  18
ENDBRANCH  16  17
ENDBRANCH  15  16
ENDBRANCH   1  15
TORSDOF 8
ENDMDL
MODEL 5
REMARK VINA RESULT:      -7.4      0.979      1.080
REMARK  Name = 
REMARK  10 active torsions:
REMARK  status: ('A' for Active; 'I' for Inactive)
REMARK    1  A    between atoms: C_1  and  C_2
REMARK    2  A    between atoms: C_2  and  C_3
REMARK    3  A    between atoms: C_3  and  C_4
REMARK    4  A    between atoms: C_4  and  C_5
REMARK    5  A    between atoms: C_5  and  O_7
REMARK    6  A    between atoms: O_7  and  C_8
REMARK    7  A    between atoms: C_8  and  C_9
REMARK    8  A    between atoms: C_9  and  N_10
REMARK    9  A    between atoms: C_12  and  C_13
REMARK   10  A    between atoms: C_17  and  C_18
REMARK                            x       y       z     vdW  Elec       q    Type
REMARK                         _______ _______ _______ _____ _____    ______ ____
ROOT
ATOM      1  N   UNL     1       5.574   5.701  17.726  0.00  0.00    +0.000 N 
ATOM      2  N   UNL     1       5.664   5.542  16.370  0.00  0.00    +0.000 NA
ATOM      3  C   UNL     1       6.675   4.919  15.860  0.00  0.00    +0.000 C 
ATOM      4  O   UNL     1       7.716   4.397  16.542  0.00  0.00    +0.000 OA
ATOM      5  C   UNL     1       7.734   4.594  17.943  0.00  0.00    +0.000 C 
ATOM      6  C   UNL     1       6.560   5.284  18.600  0.00  0.00    +0.000 C 
ATOM      7  O   UNL     1       6.515   5.453  19.820  0.00  0.00    +0.000 OA
ENDROOT
BRANCH   3   8
ATOM      8  C   UNL     1       6.831   4.670  14.405  0.00  0.00    +0.000 A 
ATOM      9  C   UNL     1       7.729   5.452  13.671  0.00  0.00    +0.000 A 
ATOM     10  C   UNL     1       7.870   5.253  12.297  0.00  0.00    +0.000 A 
ATOM     11  C   UNL     1       7.108   4.281  11.647  0.00  0.00    +0.000 A 
ATOM     12  C   UNL     1       6.203   3.492  12.363  0.00  0.00    +0.000 A 
ATOM     13  C   UNL     1       5.359   2.461  11.673  0.00  0.00    +0.000 C 
ATOM     14  C   UNL     1       6.078   3.685  13.745  0.00  0.00    +0.000 A 
ENDBRANCH   3   8
BRANCH   1  15
ATOM     15  C   UNL     1       4.369   6.349  18.225  0.00  0.00    +0.000 C 
BRANCH  15  16
ATOM     16  C   UNL     1       3.401   5.370  18.887  0.00  0.00    +0.000 C 
BRANCH  16  17
ATOM     17  O   UNL     1       2.858   4.452  17.917  0.00  0.00    +0.000 OA
BRANCH  17  18
ATOM     18  C   UNL     1       3.398   3.202  17.946  0.00  0.00    +0.000 C 
ATOM     19  O   UNL     1       4.016   2.681  17.028  0.00  0.00    +0.000 OA
BRANCH  18  20
ATOM     20  C   UNL     1       3.173   2.546  19.284  0.00  0.00    +0.000 C 
BRANCH  20  21
ATOM     21  C   UNL     1       1.706   2.166  19.477  0.00  0.00    +0.000 C 
BRANCH  21  23
ATOM     22  C   UNL     1       1.933   3.128  21.794  0.00  0.00    +0.000 C 
ATOM     23  C   UNL     1       1.027   2.977  20.582  0.00  0.00    +0.000 C 
ENDBRANCH  21  23
ENDBRANCH  20  21
ENDBRANCH  18  20
ENDBRANCH  17  18
ENDBRANCH  16  17
ENDBRANCH  15  16
ENDBRANCH   1  15
TORSDOF 8
ENDMDL
MODEL 6
REMARK VINA RESULT:      -7.4      0.793      1.163
REMARK  Name = 
REMARK  10 active torsions:
REMARK  status: ('A' for Active; 'I' for Inactive)
REMARK    1  A    between atoms: C_1  and  C_2
REMARK    2  A    between atoms: C_2  and  C_3
REMARK    3  A    between atoms: C_3  and  C_4
REMARK    4  A    between atoms: C_4  and  C_5
REMARK    5  A    between atoms: C_5  and  O_7
REMARK    6  A    between atoms: O_7  and  C_8
REMARK    7  A    between atoms: C_8  and  C_9
REMARK    8  A    between atoms: C_9  and  N_10
REMARK    9  A    between atoms: C_12  and  C_13
REMARK   10  A    between atoms: C_17  and  C_18
REMARK                            x       y       z     vdW  Elec       q    Type
REMARK                         _______ _______ _______ _____ _____    ______ ____
ROOT
ATOM      1  N   UNL     1       5.693   5.759  17.724  0.00  0.00    +0.000 N 
ATOM      2  N   UNL     1       5.762   5.603  16.367  0.00  0.00    +0.000 NA
ATOM      3  C   UNL     1       6.740   4.938  15.844  0.00  0.00    +0.000 C 
ATOM      4  O   UNL     1       7.761   4.367  16.514  0.00  0.00    +0.000 OA
ATOM      5  C   UNL     1       7.802   4.555  17.915  0.00  0.00    +0.000 C 
ATOM      6  C   UNL     1       6.666   5.294  18.586  0.00  0.00    +0.000 C 
ATOM      7  O   UNL     1       6.640   5.459  19.808  0.00  0.00    +0.000 OA
ENDROOT
BRANCH   3   8
ATOM      8  C   UNL     1       6.871   4.690  14.386  0.00  0.00    +0.000 A 
ATOM      9  C   UNL     1       7.751   5.477  13.637  0.00  0.00    +0.000 A 
ATOM     10  C   UNL     1       7.868   5.279  12.261  0.00  0.00    +0.000 A 
ATOM     11  C   UNL     1       7.100   4.303  11.623  0.00  0.00    +0.000 A 
ATOM     12  C   UNL     1       6.213   3.508  12.356  0.00  0.00    +0.000 A 
ATOM     13  C   UNL     1       5.362   2.472  11.682  0.00  0.00    +0.000 C 
ATOM     14  C   UNL     1       6.111   3.701  13.740  0.00  0.00    +0.000 A 
ENDBRANCH   3   8
BRANCH   1  15
ATOM     15  C   UNL     1       4.523   6.459  18.237  0.00  0.00    +0.000 C 
BRANCH  15  16
ATOM     16  C   UNL     1       3.292   5.560  18.337  0.00  0.00    +0.000 C 
BRANCH  16  17
ATOM     17  O   UNL     1       2.904   5.374  19.713  0.00  0.00    +0.000 OA
BRANCH  17  18
ATOM     18  C   UNL     1       3.191   4.146  20.227  0.00  0.00    +0.000 C 
ATOM     19  O   UNL     1       4.041   3.381  19.791  0.00  0.00    +0.000 OA
BRANCH  18  20
ATOM     20  C   UNL     1       2.350   3.857  21.444  0.00  0.00    +0.000 C 
BRANCH  20  21
ATOM     21  C   UNL     1       1.282   2.807  21.144  0.00  0.00    +0.000 C 
BRANCH  21  23
ATOM     22  C   UNL     1       0.792   2.248  18.737  0.00  0.00    +0.000 C 
ATOM     23  C   UNL     1       0.445   3.151  19.910  0.00  0.00    +0.000 C 
ENDBRANCH  21  23
ENDBRANCH  20  21
ENDBRANCH  18  20
ENDBRANCH  17  18
ENDBRANCH  16  17
ENDBRANCH  15  16
ENDBRANCH   1  15
TORSDOF 8
ENDMDL
MODEL 7
REMARK VINA RESULT:      -7.2      2.832      7.274
REMARK  Name = 
REMARK  10 active torsions:
REMARK  status: ('A' for Active; 'I' for Inactive)
REMARK    1  A    between atoms: C_1  and  C_2
REMARK    2  A    between atoms: C_2  and  C_3
REMARK    3  A    between atoms: C_3  and  C_4
REMARK    4  A    between atoms: C_4  and  C_5
REMARK    5  A    between atoms: C_5  and  O_7
REMARK    6  A    between atoms: O_7  and  C_8
REMARK    7  A    between atoms: C_8  and  C_9
REMARK    8  A    between atoms: C_9  and  N_10
REMARK    9  A    between atoms: C_12  and  C_13
REMARK   10  A    between atoms: C_17  and  C_18
REMARK                            x       y       z     vdW  Elec       q    Type
REMARK                         _______ _______ _______ _____ _____    ______ ____
ROOT
ATOM      1  N   UNL     1       3.899   4.291  18.372  0.00  0.00    +0.000 N 
ATOM      2  N   UNL     1       3.393   5.554  18.237  0.00  0.00    +0.000 NA
ATOM      3  C   UNL     1       2.721   6.087  19.205  0.00  0.00    +0.000 C 
ATOM      4  O   UNL     1       2.431   5.504  20.386  0.00  0.00    +0.000 OA
ATOM      5  C   UNL     1       2.851   4.166  20.568  0.00  0.00    +0.000 C 
ATOM      6  C   UNL     1       3.671   3.504  19.485  0.00  0.00    +0.000 C 
ATOM      7  O   UNL     1       4.086   2.350  19.608  0.00  0.00    +0.000 OA
ENDROOT
BRANCH   3   8
ATOM      8  C   UNL     1       2.171   7.465  19.156  0.00  0.00    +0.000 A 
ATOM      9  C   UNL     1       2.258   8.192  17.964  0.00  0.00    +0.000 A 
ATOM     10  C   UNL     1       1.772   9.499  17.904  0.00  0.00    +0.000 A 
ATOM     11  C   UNL     1       1.208  10.090  19.036  0.00  0.00    +0.000 A 
ATOM     12  C   UNL     1       1.115   9.380  20.237  0.00  0.00    +0.000 A 
ATOM     13  C   UNL     1       0.534  10.011  21.468  0.00  0.00    +0.000 C 
ATOM     14  C   UNL     1       1.589   8.063  20.286  0.00  0.00    +0.000 A 
ENDBRANCH   3   8
BRANCH   1  15
ATOM     15  C   UNL     1       4.704   3.792  17.266  0.00  0.00    +0.000 C 
BRANCH  15  16
ATOM     16  C   UNL     1       6.025   4.544  17.110  0.00  0.00    +0.000 C 
BRANCH  16  17
ATOM     17  O   UNL     1       5.999   5.387  15.941  0.00  0.00    +0.000 OA
BRANCH  17  18
ATOM     18  C   UNL     1       6.773   4.955  14.907  0.00  0.00    +0.000 C 
ATOM     19  O   UNL     1       7.868   5.412  14.608  0.00  0.00    +0.000 OA
BRANCH  18  20
ATOM     20  C   UNL     1       6.124   3.801  14.188  0.00  0.00    +0.000 C 
BRANCH  20  21
ATOM     21  C   UNL     1       6.360   3.879  12.681  0.00  0.00    +0.000 C 
BRANCH  21  23
ATOM     22  C   UNL     1       4.355   3.181  11.327  0.00  0.00    +0.000 C 
ATOM     23  C   UNL     1       5.685   2.739  11.916  0.00  0.00    +0.000 C 
ENDBRANCH  21  23
ENDBRANCH  20  21
ENDBRANCH  18  20
ENDBRANCH  17  18
ENDBRANCH  16  17
ENDBRANCH  15  16
ENDBRANCH   1  15
TORSDOF 8
ENDMDL
MODEL 8
REMARK VINA RESULT:      -7.1      1.116      1.729
REMARK  Name = 
REMARK  10 active torsions:
REMARK  status: ('A' for Active; 'I' for Inactive)
REMARK    1  A    between atoms: C_1  and  C_2
REMARK    2  A    between atoms: C_2  and  C_3
REMARK    3  A    between atoms: C_3  and  C_4
REMARK    4  A    between atoms: C_4  and  C_5
REMARK    5  A    between atoms: C_5  and  O_7
REMARK    6  A    between atoms: O_7  and  C_8
REMARK    7  A    between atoms: C_8  and  C_9
REMARK    8  A    between atoms: C_9  and  N_10
REMARK    9  A    between atoms: C_12  and  C_13
REMARK   10  A    between atoms: C_17  and  C_18
REMARK                            x       y       z     vdW  Elec       q    Type
REMARK                         _______ _______ _______ _____ _____    ______ ____
ROOT
ATOM      1  N   UNL     1       5.461   5.770  17.602  0.00  0.00    +0.000 N 
ATOM      2  N   UNL     1       5.578   5.578  16.253  0.00  0.00    +0.000 NA
ATOM      3  C   UNL     1       6.607   4.957  15.777  0.00  0.00    +0.000 C 
ATOM      4  O   UNL     1       7.642   4.468  16.491  0.00  0.00    +0.000 OA
ATOM      5  C   UNL     1       7.632   4.700  17.887  0.00  0.00    +0.000 C 
ATOM      6  C   UNL     1       6.437   5.389  18.504  0.00  0.00    +0.000 C 
ATOM      7  O   UNL     1       6.366   5.589  19.718  0.00  0.00    +0.000 OA
ENDROOT
BRANCH   3   8
ATOM      8  C   UNL     1       6.794   4.673  14.332  0.00  0.00    +0.000 A 
ATOM      9  C   UNL     1       7.732   5.415  13.607  0.00  0.00    +0.000 A 
ATOM     10  C   UNL     1       7.902   5.184  12.241  0.00  0.00    +0.000 A 
ATOM     11  C   UNL     1       7.130   4.220  11.590  0.00  0.00    +0.000 A 
ATOM     12  C   UNL     1       6.185   3.471  12.298  0.00  0.00    +0.000 A 
ATOM     13  C   UNL     1       5.331   2.449  11.608  0.00  0.00    +0.000 C 
ATOM     14  C   UNL     1       6.030   3.696  13.672  0.00  0.00    +0.000 A 
ENDBRANCH   3   8
BRANCH   1  15
ATOM     15  C   UNL     1       4.238   6.413  18.063  0.00  0.00    +0.000 C 
BRANCH  15  16
ATOM     16  C   UNL     1       3.507   5.600  19.129  0.00  0.00    +0.000 C 
BRANCH  16  17
ATOM     17  O   UNL     1       2.098   5.519  18.835  0.00  0.00    +0.000 OA
BRANCH  17  18
ATOM     18  C   UNL     1       1.656   4.278  18.493  0.00  0.00    +0.000 C 
ATOM     19  O   UNL     1       1.782   3.765  17.389  0.00  0.00    +0.000 OA
BRANCH  18  20
ATOM     20  C   UNL     1       1.017   3.585  19.669  0.00  0.00    +0.000 C 
BRANCH  20  21
ATOM     21  C   UNL     1       1.780   2.318  20.049  0.00  0.00    +0.000 C 
BRANCH  21  23
ATOM     22  C   UNL     1       4.291   2.234  20.225  0.00  0.00    +0.000 C 
ATOM     23  C   UNL     1       2.997   2.603  20.932  0.00  0.00    +0.000 C 
ENDBRANCH  21  23
ENDBRANCH  20  21
ENDBRANCH  18  20
ENDBRANCH  17  18
ENDBRANCH  16  17
ENDBRANCH  15  16
ENDBRANCH   1  15
TORSDOF 8
ENDMDL
MODEL 9
REMARK VINA RESULT:      -7.1      2.770      7.354
REMARK  Name = 
REMARK  10 active torsions:
REMARK  status: ('A' for Active; 'I' for Inactive)
REMARK    1  A    between atoms: C_1  and  C_2
REMARK    2  A    between atoms: C_2  and  C_3
REMARK    3  A    between atoms: C_3  and  C_4
REMARK    4  A    between atoms: C_4  and  C_5
REMARK    5  A    between atoms: C_5  and  O_7
REMARK    6  A    between atoms: O_7  and  C_8
REMARK    7  A    between atoms: C_8  and  C_9
REMARK    8  A    between atoms: C_9  and  N_10
REMARK    9  A    between atoms: C_12  and  C_13
REMARK   10  A    between atoms: C_17  and  C_18
REMARK                            x       y       z     vdW  Elec       q    Type
REMARK                         _______ _______ _______ _____ _____    ______ ____
ROOT
ATOM      1  N   UNL     1       4.817   4.973  17.977  0.00  0.00    +0.000 N 
ATOM      2  N   UNL     1       4.240   6.082  18.531  0.00  0.00    +0.000 NA
ATOM      3  C   UNL     1       2.953   6.153  18.639  0.00  0.00    +0.000 C 
ATOM      4  O   UNL     1       2.068   5.220  18.233  0.00  0.00    +0.000 OA
ATOM      5  C   UNL     1       2.586   4.079  17.577  0.00  0.00    +0.000 C 
ATOM      6  C   UNL     1       4.085   3.925  17.453  0.00  0.00    +0.000 C 
ATOM      7  O   UNL     1       4.588   2.936  16.916  0.00  0.00    +0.000 OA
ENDROOT
BRANCH   3   8
ATOM      8  C   UNL     1       2.248   7.302  19.260  0.00  0.00    +0.000 A 
ATOM      9  C   UNL     1       1.773   7.184  20.571  0.00  0.00    +0.000 A 
ATOM     10  C   UNL     1       1.083   8.241  21.163  0.00  0.00    +0.000 A 
ATOM     11  C   UNL     1       0.852   9.418  20.448  0.00  0.00    +0.000 A 
ATOM     12  C   UNL     1       1.316   9.554  19.136  0.00  0.00    +0.000 A 
ATOM     13  C   UNL     1       1.055  10.802  18.347  0.00  0.00    +0.000 C 
ATOM     14  C   UNL     1       2.023   8.494  18.552  0.00  0.00    +0.000 A 
ENDBRANCH   3   8
BRANCH   1  15
ATOM     15  C   UNL     1       6.273   4.941  17.958  0.00  0.00    +0.000 C 
BRANCH  15  16
ATOM     16  C   UNL     1       6.861   5.509  16.667  0.00  0.00    +0.000 C 
BRANCH  16  17
ATOM     17  O   UNL     1       7.191   4.450  15.746  0.00  0.00    +0.000 OA
BRANCH  17  18
ATOM     18  C   UNL     1       7.118   4.792  14.430  0.00  0.00    +0.000 C 
ATOM     19  O   UNL     1       7.831   5.617  13.877  0.00  0.00    +0.000 OA
BRANCH  18  20
ATOM     20  C   UNL     1       6.060   3.988  13.719  0.00  0.00    +0.000 C 
BRANCH  20  21
ATOM     21  C   UNL     1       6.580   3.433  12.394  0.00  0.00    +0.000 C 
BRANCH  21  23
ATOM     22  C   UNL     1       4.206   3.313  11.562  0.00  0.00    +0.000 C 
ATOM     23  C   UNL     1       5.538   2.587  11.659  0.00  0.00    +0.000 C 
ENDBRANCH  21  23
ENDBRANCH  20  21
ENDBRANCH  18  20
ENDBRANCH  17  18
ENDBRANCH  16  17
ENDBRANCH  15  16
ENDBRANCH   1  15
TORSDOF 8
ENDMDL
