MODEL 1
REMARK VINA RESULT:      -6.6      0.000      0.000
REMARK  Name = 
REMARK  10 active torsions:
REMARK  status: ('A' for Active; 'I' for Inactive)
REMARK    1  A    between atoms: C_1  and  C_2
REMARK    2  A    between atoms: C_2  and  O_4
REMARK    3  A    between atoms: O_4  and  C_5
REMARK    4  A    between atoms: C_8  and  C_9
REMARK    5  A    between atoms: C_12  and  C_13
REMARK    6  A    between atoms: C_16  and  O_17
REMARK    7  A    between atoms: C_24  and  O_25
REMARK    8  A    between atoms: O_25  and  C_26
REMARK    9  A    between atoms: C_26  and  C_27
REMARK   10  A    between atoms: C_29  and  C_30
REMARK                            x       y       z     vdW  Elec       q    Type
REMARK                         _______ _______ _______ _____ _____    ______ ____
ROOT
ATOM      1  C   UNL     1       1.416   7.360  20.784  0.00  0.00    +0.000 C 
ATOM      2  C   UNL     1       1.925   7.870  19.434  0.00  0.00    +0.000 C 
ATOM      3  C   UNL     1       2.036   9.393  19.437  0.00  0.00    +0.000 C 
ATOM      4  C   UNL     1       0.706  10.142  19.749  0.00  0.00    +0.000 C 
ATOM      5  C   UNL     1      -0.270   9.974  18.562  0.00  0.00    +0.000 C 
ATOM      6  C   UNL     1       0.070   9.524  20.994  0.00  0.00    +0.000 C 
ATOM      7  C   UNL     1      -0.459  10.281  21.974  0.00  0.00    +0.000 C 
ATOM      8  C   UNL     1      -0.564  11.798  21.974  0.00  0.00    +0.000 C 
ATOM      9  C   UNL     1      -0.109  12.471  20.642  0.00  0.00    +0.000 C 
ATOM     10  C   UNL     1       0.379  13.934  20.838  0.00  0.00    +0.000 C 
ATOM     11  C   UNL     1      -0.539  14.979  21.463  0.00  0.00    +0.000 C 
ATOM     12  C   UNL     1       0.092  16.330  21.087  0.00  0.00    +0.000 C 
ATOM     13  C   UNL     1       1.164  16.041  20.018  0.00  0.00    +0.000 C 
ATOM     14  C   UNL     1       0.804  14.619  19.516  0.00  0.00    +0.000 C 
ATOM     15  C   UNL     1      -0.325  14.712  18.460  0.00  0.00    +0.000 C 
ATOM     16  C   UNL     1       1.985  13.831  18.940  0.00  0.00    +0.000 C 
ATOM     17  C   UNL     1       1.627  12.355  18.734  0.00  0.00    +0.000 C 
ATOM     18  C   UNL     1       1.061  11.660  19.999  0.00  0.00    +0.000 C 
ATOM     19  C   UNL     1       0.049   8.003  21.078  0.00  0.00    +0.000 C 
ENDROOT
BRANCH   8  20
ATOM     20  C   UNL     1      -1.988  12.201  22.356  0.00  0.00    +0.000 A 
ATOM     21  C   UNL     1      -2.386  12.225  23.703  0.00  0.00    +0.000 A 
ATOM     22  C   UNL     1      -3.697  12.548  24.057  0.00  0.00    +0.000 A 
ATOM     23  C   UNL     1      -4.625  12.823  23.058  0.00  0.00    +0.000 A 
ATOM     24  C   UNL     1      -4.254  12.816  21.721  0.00  0.00    +0.000 A 
ATOM     25  C   UNL     1      -2.938  12.516  21.370  0.00  0.00    +0.000 A 
BRANCH  23  26
ATOM     26  O   UNL     1      -5.927  13.095  23.357  0.00  0.00    +0.000 OA
ATOM     27  H   UNL     1      -6.221  12.470  24.038  0.00  0.00    +0.000 HD
ENDBRANCH  23  26
ENDBRANCH   8  20
BRANCH   1  28
ATOM     28  O   UNL     1       1.257   5.918  20.761  0.00  0.00    +0.000 OA
BRANCH  28  30
ATOM     29  C   UNL     1       1.517   4.259  19.083  0.00  0.00    +0.000 C 
ATOM     30  C   UNL     1       2.179   5.223  20.032  0.00  0.00    +0.000 C 
ATOM     31  O   UNL     1       3.390   5.322  20.149  0.00  0.00    +0.000 OA
ENDBRANCH  28  30
ENDBRANCH   1  28
BRANCH  13  32
ATOM     32  O   UNL     1       1.118  17.023  18.964  0.00  0.00    +0.000 OA
BRANCH  32  33
ATOM     33  C   UNL     1       2.289  17.296  18.318  0.00  0.00    +0.000 C 
ATOM     34  C   UNL     1       2.054  17.636  16.871  0.00  0.00    +0.000 C 
ATOM     35  O   UNL     1       3.393  17.311  18.845  0.00  0.00    +0.000 OA
ENDBRANCH  32  33
ENDBRANCH  13  32
TORSDOF 6
ENDMDL
MODEL 2
REMARK VINA RESULT:      -6.5      3.140      7.010
REMARK  Name = 
REMARK  10 active torsions:
REMARK  status: ('A' for Active; 'I' for Inactive)
REMARK    1  A    between atoms: C_1  and  C_2
REMARK    2  A    between atoms: C_2  and  O_4
REMARK    3  A    between atoms: O_4  and  C_5
REMARK    4  A    between atoms: C_8  and  C_9
REMARK    5  A    between atoms: C_12  and  C_13
REMARK    6  A    between atoms: C_16  and  O_17
REMARK    7  A    between atoms: C_24  and  O_25
REMARK    8  A    between atoms: O_25  and  C_26
REMARK    9  A    between atoms: C_26  and  C_27
REMARK   10  A    between atoms: C_29  and  C_30
REMARK                            x       y       z     vdW  Elec       q    Type
REMARK                         _______ _______ _______ _____ _____    ______ ____
ROOT
ATOM      1  C   UNL     1       5.079  14.964  18.697  0.00  0.00    +0.000 C 
ATOM      2  C   UNL     1       4.560  16.250  19.343  0.00  0.00    +0.000 C 
ATOM      3  C   UNL     1       3.444  15.943  20.339  0.00  0.00    +0.000 C 
ATOM      4  C   UNL     1       2.218  15.197  19.733  0.00  0.00    +0.000 C 
ATOM      5  C   UNL     1       1.447  16.151  18.793  0.00  0.00    +0.000 C 
ATOM      6  C   UNL     1       2.719  14.006  18.915  0.00  0.00    +0.000 C 
ATOM      7  C   UNL     1       2.134  12.796  18.989  0.00  0.00    +0.000 C 
ATOM      8  C   UNL     1       0.901  12.446  19.808  0.00  0.00    +0.000 C 
ATOM      9  C   UNL     1       0.231  13.668  20.509  0.00  0.00    +0.000 C 
ATOM     10  C   UNL     1      -0.570  13.274  21.781  0.00  0.00    +0.000 C 
ATOM     11  C   UNL     1      -1.701  12.254  21.697  0.00  0.00    +0.000 C 
ATOM     12  C   UNL     1      -2.510  12.458  22.989  0.00  0.00    +0.000 C 
ATOM     13  C   UNL     1      -2.013  13.771  23.625  0.00  0.00    +0.000 C 
ATOM     14  C   UNL     1      -1.264  14.477  22.466  0.00  0.00    +0.000 C 
ATOM     15  C   UNL     1      -2.282  15.217  21.565  0.00  0.00    +0.000 C 
ATOM     16  C   UNL     1      -0.170  15.451  22.917  0.00  0.00    +0.000 C 
ATOM     17  C   UNL     1       0.711  15.887  21.740  0.00  0.00    +0.000 C 
ATOM     18  C   UNL     1       1.316  14.709  20.934  0.00  0.00    +0.000 C 
ATOM     19  C   UNL     1       3.910  14.249  17.997  0.00  0.00    +0.000 C 
ENDROOT
BRANCH   8  20
ATOM     20  C   UNL     1      -0.088  11.687  18.924  0.00  0.00    +0.000 A 
ATOM     21  C   UNL     1       0.089  10.317  18.669  0.00  0.00    +0.000 A 
ATOM     22  C   UNL     1      -0.785   9.627  17.827  0.00  0.00    +0.000 A 
ATOM     23  C   UNL     1      -1.826  10.314  17.213  0.00  0.00    +0.000 A 
ATOM     24  C   UNL     1      -2.029  11.666  17.457  0.00  0.00    +0.000 A 
ATOM     25  C   UNL     1      -1.169  12.349  18.317  0.00  0.00    +0.000 A 
BRANCH  23  26
ATOM     26  O   UNL     1      -2.672   9.690  16.345  0.00  0.00    +0.000 OA
ATOM     27  H   UNL     1      -2.638  10.158  15.495  0.00  0.00    +0.000 HD
ENDBRANCH  23  26
ENDBRANCH   8  20
BRANCH   1  28
ATOM     28  O   UNL     1       6.101  15.262  17.710  0.00  0.00    +0.000 OA
BRANCH  28  30
ATOM     29  C   UNL     1       7.969  14.311  18.823  0.00  0.00    +0.000 C 
ATOM     30  C   UNL     1       7.347  15.531  18.196  0.00  0.00    +0.000 C 
ATOM     31  O   UNL     1       7.890  16.625  18.178  0.00  0.00    +0.000 OA
ENDBRANCH  28  30
ENDBRANCH   1  28
BRANCH  13  32
ATOM     32  O   UNL     1      -3.116  14.554  24.122  0.00  0.00    +0.000 OA
BRANCH  32  33
ATOM     33  C   UNL     1      -2.860  15.397  25.163  0.00  0.00    +0.000 C 
ATOM     34  C   UNL     1      -3.754  16.608  25.124  0.00  0.00    +0.000 C 
ATOM     35  O   UNL     1      -2.041  15.190  26.049  0.00  0.00    +0.000 OA
ENDBRANCH  32  33
ENDBRANCH  13  32
TORSDOF 6
ENDMDL
MODEL 3
REMARK VINA RESULT:      -6.5      0.882      1.164
REMARK  Name = 
REMARK  10 active torsions:
REMARK  status: ('A' for Active; 'I' for Inactive)
REMARK    1  A    between atoms: C_1  and  C_2
REMARK    2  A    between atoms: C_2  and  O_4
REMARK    3  A    between atoms: O_4  and  C_5
REMARK    4  A    between atoms: C_8  and  C_9
REMARK    5  A    between atoms: C_12  and  C_13
REMARK    6  A    between atoms: C_16  and  O_17
REMARK    7  A    between atoms: C_24  and  O_25
REMARK    8  A    between atoms: O_25  and  C_26
REMARK    9  A    between atoms: C_26  and  C_27
REMARK   10  A    between atoms: C_29  and  C_30
REMARK                            x       y       z     vdW  Elec       q    Type
REMARK                         _______ _______ _______ _____ _____    ______ ____
ROOT
ATOM      1  C   UNL     1       1.366   7.838  20.734  0.00  0.00    +0.000 C 
ATOM      2  C   UNL     1       1.591   8.292  19.290  0.00  0.00    +0.000 C 
ATOM      3  C   UNL     1       1.738   9.810  19.217  0.00  0.00    +0.000 C 
ATOM      4  C   UNL     1       0.523  10.609  19.775  0.00  0.00    +0.000 C 
ATOM      5  C   UNL     1      -0.686  10.439  18.826  0.00  0.00    +0.000 C 
ATOM      6  C   UNL     1       0.149  10.048  21.147  0.00  0.00    +0.000 C 
ATOM      7  C   UNL     1      -0.143  10.849  22.189  0.00  0.00    +0.000 C 
ATOM      8  C   UNL     1      -0.208  12.368  22.158  0.00  0.00    +0.000 C 
ATOM      9  C   UNL     1      -0.028  12.988  20.737  0.00  0.00    +0.000 C 
ATOM     10  C   UNL     1       0.527  14.440  20.775  0.00  0.00    +0.000 C 
ATOM     11  C   UNL     1      -0.213  15.530  21.542  0.00  0.00    +0.000 C 
ATOM     12  C   UNL     1       0.357  16.850  20.996  0.00  0.00    +0.000 C 
ATOM     13  C   UNL     1       1.172  16.497  19.736  0.00  0.00    +0.000 C 
ATOM     14  C   UNL     1       0.680  15.073  19.370  0.00  0.00    +0.000 C 
ATOM     15  C   UNL     1      -0.644  15.171  18.573  0.00  0.00    +0.000 C 
ATOM     16  C   UNL     1       1.693  14.232  18.587  0.00  0.00    +0.000 C 
ATOM     17  C   UNL     1       1.262  12.762  18.512  0.00  0.00    +0.000 C 
ATOM     18  C   UNL     1       0.960  12.122  19.892  0.00  0.00    +0.000 C 
ATOM     19  C   UNL     1       0.108   8.532  21.286  0.00  0.00    +0.000 C 
ENDROOT
BRANCH   8  20
ATOM     20  C   UNL     1      -1.509  12.827  22.816  0.00  0.00    +0.000 A 
ATOM     21  C   UNL     1      -2.746  12.322  22.379  0.00  0.00    +0.000 A 
ATOM     22  C   UNL     1      -3.941  12.770  22.944  0.00  0.00    +0.000 A 
ATOM     23  C   UNL     1      -3.905  13.747  23.932  0.00  0.00    +0.000 A 
ATOM     24  C   UNL     1      -2.696  14.253  24.389  0.00  0.00    +0.000 A 
ATOM     25  C   UNL     1      -1.500  13.788  23.840  0.00  0.00    +0.000 A 
BRANCH  23  26
ATOM     26  O   UNL     1      -5.051  14.247  24.476  0.00  0.00    +0.000 OA
ATOM     27  H   UNL     1      -4.817  14.739  25.280  0.00  0.00    +0.000 HD
ENDBRANCH  23  26
ENDBRANCH   8  20
BRANCH   1  28
ATOM     28  O   UNL     1       1.170   6.401  20.795  0.00  0.00    +0.000 OA
BRANCH  28  30
ATOM     29  C   UNL     1       2.173   4.285  21.187  0.00  0.00    +0.000 C 
ATOM     30  C   UNL     1       2.265   5.633  20.521  0.00  0.00    +0.000 C 
ATOM     31  O   UNL     1       3.228   5.988  19.860  0.00  0.00    +0.000 OA
ENDBRANCH  28  30
ENDBRANCH   1  28
BRANCH  13  32
ATOM     32  O   UNL     1       0.929  17.448  18.681  0.00  0.00    +0.000 OA
BRANCH  32  33
ATOM     33  C   UNL     1       1.912  17.606  17.748  0.00  0.00    +0.000 C 
ATOM     34  C   UNL     1       1.376  18.210  16.479  0.00  0.00    +0.000 C 
ATOM     35  O   UNL     1       3.094  17.337  17.922  0.00  0.00    +0.000 OA
ENDBRANCH  32  33
ENDBRANCH  13  32
TORSDOF 6
ENDMDL
MODEL 4
REMARK VINA RESULT:      -6.2      2.154      6.580
REMARK  Name = 
REMARK  10 active torsions:
REMARK  status: ('A' for Active; 'I' for Inactive)
REMARK    1  A    between atoms: C_1  and  C_2
REMARK    2  A    between atoms: C_2  and  O_4
REMARK    3  A    between atoms: O_4  and  C_5
REMARK    4  A    between atoms: C_8  and  C_9
REMARK    5  A    between atoms: C_12  and  C_13
REMARK    6  A    between atoms: C_16  and  O_17
REMARK    7  A    between atoms: C_24  and  O_25
REMARK    8  A    between atoms: O_25  and  C_26
REMARK    9  A    between atoms: C_26  and  C_27
REMARK   10  A    between atoms: C_29  and  C_30
REMARK                            x       y       z     vdW  Elec       q    Type
REMARK                         _______ _______ _______ _____ _____    ______ ____
ROOT
ATOM      1  C   UNL     1      -5.174  13.486  20.362  0.00  0.00    +0.000 C 
ATOM      2  C   UNL     1      -4.738  14.671  21.227  0.00  0.00    +0.000 C 
ATOM      3  C   UNL     1      -3.321  15.111  20.869  0.00  0.00    +0.000 C 
ATOM      4  C   UNL     1      -2.238  14.000  21.017  0.00  0.00    +0.000 C 
ATOM      5  C   UNL     1      -2.022  13.688  22.516  0.00  0.00    +0.000 C 
ATOM      6  C   UNL     1      -2.731  12.732  20.321  0.00  0.00    +0.000 C 
ATOM      7  C   UNL     1      -1.927  11.992  19.535  0.00  0.00    +0.000 C 
ATOM      8  C   UNL     1      -0.450  12.248  19.274  0.00  0.00    +0.000 C 
ATOM      9  C   UNL     1       0.155  13.415  20.114  0.00  0.00    +0.000 C 
ATOM     10  C   UNL     1       1.390  14.073  19.436  0.00  0.00    +0.000 C 
ATOM     11  C   UNL     1       2.610  13.233  19.072  0.00  0.00    +0.000 C 
ATOM     12  C   UNL     1       3.740  14.255  18.857  0.00  0.00    +0.000 C 
ATOM     13  C   UNL     1       3.227  15.606  19.393  0.00  0.00    +0.000 C 
ATOM     14  C   UNL     1       2.016  15.212  20.277  0.00  0.00    +0.000 C 
ATOM     15  C   UNL     1       2.515  14.767  21.674  0.00  0.00    +0.000 C 
ATOM     16  C   UNL     1       0.959  16.311  20.433  0.00  0.00    +0.000 C 
ATOM     17  C   UNL     1      -0.326  15.767  21.067  0.00  0.00    +0.000 C 
ATOM     18  C   UNL     1      -0.915  14.531  20.338  0.00  0.00    +0.000 C 
ATOM     19  C   UNL     1      -4.180  12.329  20.563  0.00  0.00    +0.000 C 
ENDROOT
BRANCH   8  20
ATOM     20  C   UNL     1       0.326  10.946  19.472  0.00  0.00    +0.000 A 
ATOM     21  C   UNL     1       0.849  10.253  18.367  0.00  0.00    +0.000 A 
ATOM     22  C   UNL     1       1.519   9.040  18.535  0.00  0.00    +0.000 A 
ATOM     23  C   UNL     1       1.645   8.501  19.810  0.00  0.00    +0.000 A 
ATOM     24  C   UNL     1       1.147   9.172  20.919  0.00  0.00    +0.000 A 
ATOM     25  C   UNL     1       0.498  10.395  20.753  0.00  0.00    +0.000 A 
BRANCH  23  26
ATOM     26  O   UNL     1       2.250   7.296  20.014  0.00  0.00    +0.000 OA
ATOM     27  H   UNL     1       1.634   6.723  20.498  0.00  0.00    +0.000 HD
ENDBRANCH  23  26
ENDBRANCH   8  20
BRANCH   1  28
ATOM     28  O   UNL     1      -6.500  13.034  20.742  0.00  0.00    +0.000 OA
BRANCH  28  30
ATOM     29  C   UNL     1      -7.594  13.136  18.638  0.00  0.00    +0.000 C 
ATOM     30  C   UNL     1      -7.171  12.293  19.813  0.00  0.00    +0.000 C 
ATOM     31  O   UNL     1      -7.446  11.109  19.920  0.00  0.00    +0.000 OA
ENDBRANCH  28  30
ENDBRANCH   1  28
BRANCH  13  32
ATOM     32  O   UNL     1       4.253  16.287  20.143  0.00  0.00    +0.000 OA
BRANCH  32  33
ATOM     33  C   UNL     1       5.347  16.717  19.449  0.00  0.00    +0.000 C 
ATOM     34  C   UNL     1       6.592  15.988  19.875  0.00  0.00    +0.000 C 
ATOM     35  O   UNL     1       5.327  17.559  18.560  0.00  0.00    +0.000 OA
ENDBRANCH  32  33
ENDBRANCH  13  32
TORSDOF 6
ENDMDL
MODEL 5
REMARK VINA RESULT:      -6.2      1.915      6.459
REMARK  Name = 
REMARK  10 active torsions:
REMARK  status: ('A' for Active; 'I' for Inactive)
REMARK    1  A    between atoms: C_1  and  C_2
REMARK    2  A    between atoms: C_2  and  O_4
REMARK    3  A    between atoms: O_4  and  C_5
REMARK    4  A    between atoms: C_8  and  C_9
REMARK    5  A    between atoms: C_12  and  C_13
REMARK    6  A    between atoms: C_16  and  O_17
REMARK    7  A    between atoms: C_24  and  O_25
REMARK    8  A    between atoms: O_25  and  C_26
REMARK    9  A    between atoms: C_26  and  C_27
REMARK   10  A    between atoms: C_29  and  C_30
REMARK                            x       y       z     vdW  Elec       q    Type
REMARK                         _______ _______ _______ _____ _____    ______ ____
ROOT
ATOM      1  C   UNL     1      -5.626  13.686  20.344  0.00  0.00    +0.000 C 
ATOM      2  C   UNL     1      -5.204  14.899  21.176  0.00  0.00    +0.000 C 
ATOM      3  C   UNL     1      -3.769  15.306  20.851  0.00  0.00    +0.000 C 
ATOM      4  C   UNL     1      -2.708  14.188  21.080  0.00  0.00    +0.000 C 
ATOM      5  C   UNL     1      -2.547  13.933  22.597  0.00  0.00    +0.000 C 
ATOM      6  C   UNL     1      -3.195  12.899  20.418  0.00  0.00    +0.000 C 
ATOM      7  C   UNL     1      -2.374  12.119  19.690  0.00  0.00    +0.000 C 
ATOM      8  C   UNL     1      -0.886  12.345  19.471  0.00  0.00    +0.000 C 
ATOM      9  C   UNL     1      -0.293  13.537  20.284  0.00  0.00    +0.000 C 
ATOM     10  C   UNL     1       0.973  14.151  19.624  0.00  0.00    +0.000 C 
ATOM     11  C   UNL     1       2.193  13.282  19.336  0.00  0.00    +0.000 C 
ATOM     12  C   UNL     1       3.343  14.280  19.121  0.00  0.00    +0.000 C 
ATOM     13  C   UNL     1       2.832  15.658  19.585  0.00  0.00    +0.000 C 
ATOM     14  C   UNL     1       1.586  15.315  20.441  0.00  0.00    +0.000 C 
ATOM     15  C   UNL     1       2.031  14.920  21.871  0.00  0.00    +0.000 C 
ATOM     16  C   UNL     1       0.540  16.432  20.516  0.00  0.00    +0.000 C 
ATOM     17  C   UNL     1      -0.773  15.930  21.127  0.00  0.00    +0.000 C 
ATOM     18  C   UNL     1      -1.355  14.675  20.427  0.00  0.00    +0.000 C 
ATOM     19  C   UNL     1      -4.656  12.525  20.625  0.00  0.00    +0.000 C 
ENDROOT
BRANCH   8  20
ATOM     20  C   UNL     1      -0.136  11.042  19.746  0.00  0.00    +0.000 A 
ATOM     21  C   UNL     1      -0.009  10.556  21.059  0.00  0.00    +0.000 A 
ATOM     22  C   UNL     1       0.713   9.391  21.324  0.00  0.00    +0.000 A 
ATOM     23  C   UNL     1       1.335   8.721  20.276  0.00  0.00    +0.000 A 
ATOM     24  C   UNL     1       1.215   9.174  18.970  0.00  0.00    +0.000 A 
ATOM     25  C   UNL     1       0.474  10.325  18.703  0.00  0.00    +0.000 A 
BRANCH  23  26
ATOM     26  O   UNL     1       2.090   7.607  20.497  0.00  0.00    +0.000 OA
ATOM     27  H   UNL     1       2.451   7.656  21.396  0.00  0.00    +0.000 HD
ENDBRANCH  23  26
ENDBRANCH   8  20
BRANCH   1  28
ATOM     28  O   UNL     1      -6.971  13.266  20.695  0.00  0.00    +0.000 OA
BRANCH  28  30
ATOM     29  C   UNL     1      -7.578  10.972  20.653  0.00  0.00    +0.000 C 
ATOM     30  C   UNL     1      -7.068  12.139  21.458  0.00  0.00    +0.000 C 
ATOM     31  O   UNL     1      -6.823  12.071  22.652  0.00  0.00    +0.000 OA
ENDBRANCH  28  30
ENDBRANCH   1  28
BRANCH  13  32
ATOM     32  O   UNL     1       3.842  16.354  20.342  0.00  0.00    +0.000 OA
BRANCH  32  33
ATOM     33  C   UNL     1       4.843  16.956  19.637  0.00  0.00    +0.000 C 
ATOM     34  C   UNL     1       6.087  17.110  20.468  0.00  0.00    +0.000 C 
ATOM     35  O   UNL     1       4.768  17.294  18.463  0.00  0.00    +0.000 OA
ENDBRANCH  32  33
ENDBRANCH  13  32
TORSDOF 6
ENDMDL
MODEL 6
REMARK VINA RESULT:      -6.2      0.830      1.222
REMARK  Name = 
REMARK  10 active torsions:
REMARK  status: ('A' for Active; 'I' for Inactive)
REMARK    1  A    between atoms: C_1  and  C_2
REMARK    2  A    between atoms: C_2  and  O_4
REMARK    3  A    between atoms: O_4  and  C_5
REMARK    4  A    between atoms: C_8  and  C_9
REMARK    5  A    between atoms: C_12  and  C_13
REMARK    6  A    between atoms: C_16  and  O_17
REMARK    7  A    between atoms: C_24  and  O_25
REMARK    8  A    between atoms: O_25  and  C_26
REMARK    9  A    between atoms: C_26  and  C_27
REMARK   10  A    between atoms: C_29  and  C_30
REMARK                            x       y       z     vdW  Elec       q    Type
REMARK                         _______ _______ _______ _____ _____    ______ ____
ROOT
ATOM      1  C   UNL     1       2.044   7.597  19.533  0.00  0.00    +0.000 C 
ATOM      2  C   UNL     1       2.389   8.289  18.213  0.00  0.00    +0.000 C 
ATOM      3  C   UNL     1       2.425   9.805  18.388  0.00  0.00    +0.000 C 
ATOM      4  C   UNL     1       1.098  10.431  18.911  0.00  0.00    +0.000 C 
ATOM      5  C   UNL     1       0.017  10.342  17.809  0.00  0.00    +0.000 C 
ATOM      6  C   UNL     1       0.620   9.636  20.127  0.00  0.00    +0.000 C 
ATOM      7  C   UNL     1       0.155  10.242  21.236  0.00  0.00    +0.000 C 
ATOM      8  C   UNL     1      -0.024  11.740  21.428  0.00  0.00    +0.000 C 
ATOM      9  C   UNL     1       0.262  12.588  20.150  0.00  0.00    +0.000 C 
ATOM     10  C   UNL     1       0.695  14.045  20.474  0.00  0.00    +0.000 C 
ATOM     11  C   UNL     1      -0.206  14.954  21.304  0.00  0.00    +0.000 C 
ATOM     12  C   UNL     1       0.316  16.375  21.037  0.00  0.00    +0.000 C 
ATOM     13  C   UNL     1       1.289  16.277  19.845  0.00  0.00    +0.000 C 
ATOM     14  C   UNL     1       0.951  14.903  19.211  0.00  0.00    +0.000 C 
ATOM     15  C   UNL     1      -0.281  15.048  18.284  0.00  0.00    +0.000 C 
ATOM     16  C   UNL     1       2.106  14.260  18.437  0.00  0.00    +0.000 C 
ATOM     17  C   UNL     1       1.802  12.798  18.088  0.00  0.00    +0.000 C 
ATOM     18  C   UNL     1       1.401  11.929  19.308  0.00  0.00    +0.000 C 
ATOM     19  C   UNL     1       0.683   8.118  20.028  0.00  0.00    +0.000 C 
ENDROOT
BRANCH   8  20
ATOM     20  C   UNL     1      -1.421  12.009  21.987  0.00  0.00    +0.000 A 
ATOM     21  C   UNL     1      -2.466  12.402  21.134  0.00  0.00    +0.000 A 
ATOM     22  C   UNL     1      -3.733  12.694  21.642  0.00  0.00    +0.000 A 
ATOM     23  C   UNL     1      -3.952  12.619  23.013  0.00  0.00    +0.000 A 
ATOM     24  C   UNL     1      -2.939  12.222  23.875  0.00  0.00    +0.000 A 
ATOM     25  C   UNL     1      -1.680  11.908  23.364  0.00  0.00    +0.000 A 
BRANCH  23  26
ATOM     26  O   UNL     1      -5.160  12.942  23.556  0.00  0.00    +0.000 OA
ATOM     27  H   UNL     1      -5.040  13.078  24.510  0.00  0.00    +0.000 HD
ENDBRANCH  23  26
ENDBRANCH   8  20
BRANCH   1  28
ATOM     28  O   UNL     1       1.955   6.160  19.351  0.00  0.00    +0.000 OA
BRANCH  28  30
ATOM     29  C   UNL     1       2.303   4.559  21.068  0.00  0.00    +0.000 C 
ATOM     30  C   UNL     1       2.906   5.413  19.984  0.00  0.00    +0.000 C 
ATOM     31  O   UNL     1       4.103   5.451  19.749  0.00  0.00    +0.000 OA
ENDBRANCH  28  30
ENDBRANCH   1  28
BRANCH  13  32
ATOM     32  O   UNL     1       1.090  17.369  18.925  0.00  0.00    +0.000 OA
BRANCH  32  33
ATOM     33  C   UNL     1       2.064  17.582  17.994  0.00  0.00    +0.000 C 
ATOM     34  C   UNL     1       1.483  18.047  16.686  0.00  0.00    +0.000 C 
ATOM     35  O   UNL     1       3.265  17.457  18.194  0.00  0.00    +0.000 OA
ENDBRANCH  32  33
ENDBRANCH  13  32
TORSDOF 6
ENDMDL
MODEL 7
REMARK VINA RESULT:      -6.2      3.177      6.829
REMARK  Name = 
REMARK  10 active torsions:
REMARK  status: ('A' for Active; 'I' for Inactive)
REMARK    1  A    between atoms: C_1  and  C_2
REMARK    2  A    between atoms: C_2  and  O_4
REMARK    3  A    between atoms: O_4  and  C_5
REMARK    4  A    between atoms: C_8  and  C_9
REMARK    5  A    between atoms: C_12  and  C_13
REMARK    6  A    between atoms: C_16  and  O_17
REMARK    7  A    between atoms: C_24  and  O_25
REMARK    8  A    between atoms: O_25  and  C_26
REMARK    9  A    between atoms: C_26  and  C_27
REMARK   10  A    between atoms: C_29  and  C_30
REMARK                            x       y       z     vdW  Elec       q    Type
REMARK                         _______ _______ _______ _____ _____    ______ ____
ROOT
ATOM      1  C   UNL     1       5.334  15.197  18.772  0.00  0.00    +0.000 C 
ATOM      2  C   UNL     1       4.830  16.611  19.068  0.00  0.00    +0.000 C 
ATOM      3  C   UNL     1       3.652  16.574  20.038  0.00  0.00    +0.000 C 
ATOM      4  C   UNL     1       2.433  15.735  19.550  0.00  0.00    +0.000 C 
ATOM      5  C   UNL     1       1.749  16.461  18.368  0.00  0.00    +0.000 C 
ATOM      6  C   UNL     1       2.932  14.374  19.064  0.00  0.00    +0.000 C 
ATOM      7  C   UNL     1       2.299  13.229  19.382  0.00  0.00    +0.000 C 
ATOM      8  C   UNL     1       1.012  13.112  20.183  0.00  0.00    +0.000 C 
ATOM      9  C   UNL     1       0.352  14.480  20.539  0.00  0.00    +0.000 C 
ATOM     10  C   UNL     1      -0.531  14.414  21.816  0.00  0.00    +0.000 C 
ATOM     11  C   UNL     1      -1.693  13.431  21.904  0.00  0.00    +0.000 C 
ATOM     12  C   UNL     1      -2.562  13.951  23.061  0.00  0.00    +0.000 C 
ATOM     13  C   UNL     1      -2.050  15.364  23.403  0.00  0.00    +0.000 C 
ATOM     14  C   UNL     1      -1.214  15.760  22.159  0.00  0.00    +0.000 C 
ATOM     15  C   UNL     1      -2.155  16.293  21.050  0.00  0.00    +0.000 C 
ATOM     16  C   UNL     1      -0.110  16.787  22.436  0.00  0.00    +0.000 C 
ATOM     17  C   UNL     1       0.848  16.914  21.246  0.00  0.00    +0.000 C 
ATOM     18  C   UNL     1       1.451  15.565  20.775  0.00  0.00    +0.000 C 
ATOM     19  C   UNL     1       4.178  14.366  18.188  0.00  0.00    +0.000 C 
ENDROOT
BRANCH   8  20
ATOM     20  C   UNL     1       0.043  12.190  19.442  0.00  0.00    +0.000 A 
ATOM     21  C   UNL     1      -0.763  12.689  18.404  0.00  0.00    +0.000 A 
ATOM     22  C   UNL     1      -1.682  11.865  17.753  0.00  0.00    +0.000 A 
ATOM     23  C   UNL     1      -1.819  10.542  18.157  0.00  0.00    +0.000 A 
ATOM     24  C   UNL     1      -1.027  10.022  19.172  0.00  0.00    +0.000 A 
ATOM     25  C   UNL     1      -0.092  10.840  19.807  0.00  0.00    +0.000 A 
BRANCH  23  26
ATOM     26  O   UNL     1      -2.738   9.716  17.582  0.00  0.00    +0.000 OA
ATOM     27  H   UNL     1      -2.276   9.130  16.961  0.00  0.00    +0.000 HD
ENDBRANCH  23  26
ENDBRANCH   8  20
BRANCH   1  28
ATOM     28  O   UNL     1       6.418  15.231  17.806  0.00  0.00    +0.000 OA
BRANCH  28  30
ATOM     29  C   UNL     1       8.318  14.625  19.094  0.00  0.00    +0.000 C 
ATOM     30  C   UNL     1       7.389  14.284  17.959  0.00  0.00    +0.000 C 
ATOM     31  O   UNL     1       7.533  13.301  17.249  0.00  0.00    +0.000 OA
ENDBRANCH  28  30
ENDBRANCH   1  28
BRANCH  13  32
ATOM     32  O   UNL     1      -3.148  16.268  23.636  0.00  0.00    +0.000 OA
BRANCH  32  33
ATOM     33  C   UNL     1      -3.317  16.726  24.910  0.00  0.00    +0.000 C 
ATOM     34  C   UNL     1      -2.009  16.793  25.650  0.00  0.00    +0.000 C 
ATOM     35  O   UNL     1      -4.385  17.082  25.392  0.00  0.00    +0.000 OA
ENDBRANCH  32  33
ENDBRANCH  13  32
TORSDOF 6
ENDMDL
MODEL 8
REMARK VINA RESULT:      -6.1      3.002      7.578
REMARK  Name = 
REMARK  10 active torsions:
REMARK  status: ('A' for Active; 'I' for Inactive)
REMARK    1  A    between atoms: C_1  and  C_2
REMARK    2  A    between atoms: C_2  and  O_4
REMARK    3  A    between atoms: O_4  and  C_5
REMARK    4  A    between atoms: C_8  and  C_9
REMARK    5  A    between atoms: C_12  and  C_13
REMARK    6  A    between atoms: C_16  and  O_17
REMARK    7  A    between atoms: C_24  and  O_25
REMARK    8  A    between atoms: O_25  and  C_26
REMARK    9  A    between atoms: C_26  and  C_27
REMARK   10  A    between atoms: C_29  and  C_30
REMARK                            x       y       z     vdW  Elec       q    Type
REMARK                         _______ _______ _______ _____ _____    ______ ____
ROOT
ATOM      1  C   UNL     1       4.284  16.133  19.179  0.00  0.00    +0.000 C 
ATOM      2  C   UNL     1       3.525  17.260  19.882  0.00  0.00    +0.000 C 
ATOM      3  C   UNL     1       2.469  16.693  20.829  0.00  0.00    +0.000 C 
ATOM      4  C   UNL     1       1.414  15.771  20.149  0.00  0.00    +0.000 C 
ATOM      5  C   UNL     1       0.493  16.622  19.244  0.00  0.00    +0.000 C 
ATOM      6  C   UNL     1       2.139  14.745  19.279  0.00  0.00    +0.000 C 
ATOM      7  C   UNL     1       1.789  13.445  19.268  0.00  0.00    +0.000 C 
ATOM      8  C   UNL     1       0.629  12.826  20.033  0.00  0.00    +0.000 C 
ATOM      9  C   UNL     1      -0.267  13.859  20.784  0.00  0.00    +0.000 C 
ATOM     10  C   UNL     1      -1.002  13.247  22.009  0.00  0.00    +0.000 C 
ATOM     11  C   UNL     1      -1.923  12.044  21.837  0.00  0.00    +0.000 C 
ATOM     12  C   UNL     1      -2.776  12.016  23.116  0.00  0.00    +0.000 C 
ATOM     13  C   UNL     1      -2.541  13.357  23.839  0.00  0.00    +0.000 C 
ATOM     14  C   UNL     1      -1.918  14.258  22.742  0.00  0.00    +0.000 C 
ATOM     15  C   UNL     1      -3.042  14.851  21.857  0.00  0.00    +0.000 C 
ATOM     16  C   UNL     1      -1.031  15.388  23.276  0.00  0.00    +0.000 C 
ATOM     17  C   UNL     1      -0.228  16.050  22.150  0.00  0.00    +0.000 C 
ATOM     18  C   UNL     1       0.598  15.054  21.296  0.00  0.00    +0.000 C 
ATOM     19  C   UNL     1       3.279  15.258  18.409  0.00  0.00    +0.000 C 
ENDROOT
BRANCH   8  20
ATOM     20  C   UNL     1      -0.188  11.952  19.081  0.00  0.00    +0.000 A 
ATOM     21  C   UNL     1       0.186  10.620  18.837  0.00  0.00    +0.000 A 
ATOM     22  C   UNL     1      -0.528   9.830  17.935  0.00  0.00    +0.000 A 
ATOM     23  C   UNL     1      -1.607  10.380  17.251  0.00  0.00    +0.000 A 
ATOM     24  C   UNL     1      -2.003  11.690  17.483  0.00  0.00    +0.000 A 
ATOM     25  C   UNL     1      -1.303  12.472  18.402  0.00  0.00    +0.000 A 
BRANCH  23  26
ATOM     26  O   UNL     1      -2.301   9.659  16.326  0.00  0.00    +0.000 OA
ATOM     27  H   UNL     1      -2.944  10.248  15.900  0.00  0.00    +0.000 HD
ENDBRANCH  23  26
ENDBRANCH   8  20
BRANCH   1  28
ATOM     28  O   UNL     1       5.248  16.673  18.237  0.00  0.00    +0.000 OA
BRANCH  28  30
ATOM     29  C   UNL     1       7.044  15.487  19.237  0.00  0.00    +0.000 C 
ATOM     30  C   UNL     1       6.530  16.793  18.691  0.00  0.00    +0.000 C 
ATOM     31  O   UNL     1       7.180  17.826  18.705  0.00  0.00    +0.000 OA
ENDBRANCH  28  30
ENDBRANCH   1  28
BRANCH  13  32
ATOM     32  O   UNL     1      -3.778  13.892  24.349  0.00  0.00    +0.000 OA
BRANCH  32  33
ATOM     33  C   UNL     1      -4.827  13.027  24.469  0.00  0.00    +0.000 C 
ATOM     34  C   UNL     1      -6.001  13.464  23.635  0.00  0.00    +0.000 C 
ATOM     35  O   UNL     1      -4.815  11.998  25.132  0.00  0.00    +0.000 OA
ENDBRANCH  32  33
ENDBRANCH  13  32
TORSDOF 6
ENDMDL
MODEL 9
REMARK VINA RESULT:      -6.1      2.483      8.179
REMARK  Name = 
REMARK  10 active torsions:
REMARK  status: ('A' for Active; 'I' for Inactive)
REMARK    1  A    between atoms: C_1  and  C_2
REMARK    2  A    between atoms: C_2  and  O_4
REMARK    3  A    between atoms: O_4  and  C_5
REMARK    4  A    between atoms: C_8  and  C_9
REMARK    5  A    between atoms: C_12  and  C_13
REMARK    6  A    between atoms: C_16  and  O_17
REMARK    7  A    between atoms: C_24  and  O_25
REMARK    8  A    between atoms: O_25  and  C_26
REMARK    9  A    between atoms: C_26  and  C_27
REMARK   10  A    between atoms: C_29  and  C_30
REMARK                            x       y       z     vdW  Elec       q    Type
REMARK                         _______ _______ _______ _____ _____    ______ ____
ROOT
ATOM      1  C   UNL     1      -2.962  15.535  24.708  0.00  0.00    +0.000 C 
ATOM      2  C   UNL     1      -3.587  14.175  24.391  0.00  0.00    +0.000 C 
ATOM      3  C   UNL     1      -2.661  13.345  23.505  0.00  0.00    +0.000 C 
ATOM      4  C   UNL     1      -2.287  14.015  22.149  0.00  0.00    +0.000 C 
ATOM      5  C   UNL     1      -3.530  14.049  21.231  0.00  0.00    +0.000 C 
ATOM      6  C   UNL     1      -1.836  15.451  22.414  0.00  0.00    +0.000 C 
ATOM      7  C   UNL     1      -0.754  15.980  21.812  0.00  0.00    +0.000 C 
ATOM      8  C   UNL     1       0.116  15.293  20.772  0.00  0.00    +0.000 C 
ATOM      9  C   UNL     1      -0.411  13.896  20.318  0.00  0.00    +0.000 C 
ATOM     10  C   UNL     1       0.716  12.963  19.794  0.00  0.00    +0.000 C 
ATOM     11  C   UNL     1       1.603  13.397  18.632  0.00  0.00    +0.000 C 
ATOM     12  C   UNL     1       2.256  12.099  18.130  0.00  0.00    +0.000 C 
ATOM     13  C   UNL     1       1.508  10.932  18.805  0.00  0.00    +0.000 C 
ATOM     14  C   UNL     1       0.197  11.586  19.313  0.00  0.00    +0.000 C 
ATOM     15  C   UNL     1      -0.827  11.665  18.154  0.00  0.00    +0.000 C 
ATOM     16  C   UNL     1      -0.439  10.881  20.516  0.00  0.00    +0.000 C 
ATOM     17  C   UNL     1      -1.553  11.730  21.139  0.00  0.00    +0.000 C 
ATOM     18  C   UNL     1      -1.115  13.171  21.509  0.00  0.00    +0.000 C 
ATOM     19  C   UNL     1      -2.673  16.271  23.388  0.00  0.00    +0.000 C 
ENDROOT
BRANCH   8  20
ATOM     20  C   UNL     1       0.319  16.235  19.586  0.00  0.00    +0.000 A 
ATOM     21  C   UNL     1      -0.772  16.623  18.789  0.00  0.00    +0.000 A 
ATOM     22  C   UNL     1      -0.588  17.447  17.677  0.00  0.00    +0.000 A 
ATOM     23  C   UNL     1       0.694  17.866  17.342  0.00  0.00    +0.000 A 
ATOM     24  C   UNL     1       1.787  17.505  18.120  0.00  0.00    +0.000 A 
ATOM     25  C   UNL     1       1.599  16.701  19.244  0.00  0.00    +0.000 A 
BRANCH  23  26
ATOM     26  O   UNL     1       0.924  18.631  16.238  0.00  0.00    +0.000 OA
ATOM     27  H   UNL     1       0.204  19.276  16.158  0.00  0.00    +0.000 HD
ENDBRANCH  23  26
ENDBRANCH   8  20
BRANCH   1  28
ATOM     28  O   UNL     1      -3.868  16.343  25.503  0.00  0.00    +0.000 OA
BRANCH  28  30
ATOM     29  C   UNL     1      -4.808  18.449  24.940  0.00  0.00    +0.000 C 
ATOM     30  C   UNL     1      -4.886  16.949  24.825  0.00  0.00    +0.000 C 
ATOM     31  O   UNL     1      -5.782  16.370  24.233  0.00  0.00    +0.000 OA
ENDBRANCH  28  30
ENDBRANCH   1  28
BRANCH  13  32
ATOM     32  O   UNL     1       1.260   9.867  17.866  0.00  0.00    +0.000 OA
BRANCH  32  33
ATOM     33  C   UNL     1       2.062   8.766  17.950  0.00  0.00    +0.000 C 
ATOM     34  C   UNL     1       1.939   8.096  19.293  0.00  0.00    +0.000 C 
ATOM     35  O   UNL     1       2.764   8.339  17.044  0.00  0.00    +0.000 OA
ENDBRANCH  32  33
ENDBRANCH  13  32
TORSDOF 6
ENDMDL
