MODEL 1
REMARK VINA RESULT:      -7.1      0.000      0.000
REMARK  Name = 
REMARK  13 active torsions:
REMARK  status: ('A' for Active; 'I' for Inactive)
REMARK    1  A    between atoms: C_1  and  O_2
REMARK    2  A    between atoms: O_2  and  C_3
REMARK    3  A    between atoms: C_7  and  C_8
REMARK    4  A    between atoms: C_11  and  N_12
REMARK    5  A    between atoms: N_12  and  C_13
REMARK    6  A    between atoms: N_12  and  C_14
REMARK    7  A    between atoms: C_18  and  C_19
REMARK    8  A    between atoms: C_21  and  O_22
REMARK    9  A    between atoms: O_22  and  C_23
REMARK   10  A    between atoms: C_24  and  O_25
REMARK   11  A    between atoms: O_25  and  C_26
REMARK   12  A    between atoms: C_27  and  O_28
REMARK   13  A    between atoms: O_28  and  C_29
REMARK                            x       y       z     vdW  Elec       q    Type
REMARK                         _______ _______ _______ _____ _____    ______ ____
ROOT
ATOM      1  C   UNL     1       1.592  12.699  18.718  0.00  0.00    +0.000 C 
ATOM      2  O   UNL     1       0.957  13.439  19.464  0.00  0.00    +0.000 OA
ATOM      3  N   UNL     1       1.455  11.330  18.706  0.00  0.00    +0.000 N 
ATOM      4  N   UNL     1       2.319  10.469  18.090  0.00  0.00    +0.000 NA
ATOM      5  C   UNL     1       1.935   9.309  18.502  0.00  0.00    +0.000 C 
ATOM      6  O   UNL     1       0.879   9.254  19.361  0.00  0.00    +0.000 OA
ATOM      7  C   UNL     1       0.489  10.619  19.502  0.00  0.00    +0.000 C 
ENDROOT
BRANCH   5   8
ATOM      8  C   UNL     1       2.524   8.005  18.161  0.00  0.00    +0.000 A 
ATOM      9  C   UNL     1       1.913   6.840  18.619  0.00  0.00    +0.000 A 
ATOM     10  C   UNL     1       2.467   5.588  18.313  0.00  0.00    +0.000 A 
ATOM     11  C   UNL     1       3.633   5.448  17.538  0.00  0.00    +0.000 A 
ATOM     12  C   UNL     1       4.223   6.643  17.094  0.00  0.00    +0.000 A 
ATOM     13  C   UNL     1       3.687   7.903  17.400  0.00  0.00    +0.000 A 
BRANCH  11  14
ATOM     14  N   UNL     1       4.187   4.200  17.289  0.00  0.00    +0.000 N 
ATOM     15  C   UNL     1       3.510   2.977  17.721  0.00  0.00    +0.000 C 
ATOM     16  C   UNL     1       5.203   3.993  16.259  0.00  0.00    +0.000 C 
ENDBRANCH  11  14
ENDBRANCH   5   8
BRANCH   7  17
ATOM     17  C   UNL     1      -0.927  10.826  18.997  0.00  0.00    +0.000 A 
ATOM     18  C   UNL     1      -1.772  11.711  19.676  0.00  0.00    +0.000 A 
ATOM     19  C   UNL     1      -3.048  12.007  19.187  0.00  0.00    +0.000 A 
ATOM     20  C   UNL     1      -3.518  11.378  18.013  0.00  0.00    +0.000 A 
ATOM     21  C   UNL     1      -2.687  10.467  17.332  0.00  0.00    +0.000 A 
ATOM     22  C   UNL     1      -1.393  10.222  17.821  0.00  0.00    +0.000 A 
BRANCH  19  23
ATOM     23  O   UNL     1      -3.894  12.895  19.812  0.00  0.00    +0.000 OA
ATOM     24  C   UNL     1      -4.200  12.614  21.175  0.00  0.00    +0.000 C 
ENDBRANCH  19  23
BRANCH  20  25
ATOM     25  O   UNL     1      -4.815  11.688  17.664  0.00  0.00    +0.000 OA
ATOM     26  C   UNL     1      -5.842  10.861  18.196  0.00  0.00    +0.000 C 
ENDBRANCH  20  25
BRANCH  21  27
ATOM     27  O   UNL     1      -3.188   9.837  16.222  0.00  0.00    +0.000 OA
ATOM     28  C   UNL     1      -2.973  10.436  14.950  0.00  0.00    +0.000 C 
ENDBRANCH  21  27
ENDBRANCH   7  17
BRANCH   1  30
ATOM     29  C   UNL     1       3.343  14.204  18.235  0.00  0.00    +0.000 C 
ATOM     30  O   UNL     1       2.501  13.136  17.803  0.00  0.00    +0.000 OA
ENDBRANCH   1  30
TORSDOF 7
ENDMDL
MODEL 2
REMARK VINA RESULT:      -7.1      0.857      1.231
REMARK  Name = 
REMARK  13 active torsions:
REMARK  status: ('A' for Active; 'I' for Inactive)
REMARK    1  A    between atoms: C_1  and  O_2
REMARK    2  A    between atoms: O_2  and  C_3
REMARK    3  A    between atoms: C_7  and  C_8
REMARK    4  A    between atoms: C_11  and  N_12
REMARK    5  A    between atoms: N_12  and  C_13
REMARK    6  A    between atoms: N_12  and  C_14
REMARK    7  A    between atoms: C_18  and  C_19
REMARK    8  A    between atoms: C_21  and  O_22
REMARK    9  A    between atoms: O_22  and  C_23
REMARK   10  A    between atoms: C_24  and  O_25
REMARK   11  A    between atoms: O_25  and  C_26
REMARK   12  A    between atoms: C_27  and  O_28
REMARK   13  A    between atoms: O_28  and  C_29
REMARK                            x       y       z     vdW  Elec       q    Type
REMARK                         _______ _______ _______ _____ _____    ______ ____
ROOT
ATOM      1  C   UNL     1       1.206  12.950  18.752  0.00  0.00    +0.000 C 
ATOM      2  O   UNL     1       0.571  13.809  19.357  0.00  0.00    +0.000 OA
ATOM      3  N   UNL     1       1.049  11.599  18.960  0.00  0.00    +0.000 N 
ATOM      4  N   UNL     1       1.910  10.639  18.507  0.00  0.00    +0.000 NA
ATOM      5  C   UNL     1       1.503   9.566  19.096  0.00  0.00    +0.000 C 
ATOM      6  O   UNL     1       0.435   9.664  19.935  0.00  0.00    +0.000 OA
ATOM      7  C   UNL     1       0.062  11.038  19.846  0.00  0.00    +0.000 C 
ENDROOT
BRANCH   5   8
ATOM      8  C   UNL     1       2.079   8.217  18.981  0.00  0.00    +0.000 A 
ATOM      9  C   UNL     1       2.807   7.883  17.841  0.00  0.00    +0.000 A 
ATOM     10  C   UNL     1       3.353   6.598  17.709  0.00  0.00    +0.000 A 
ATOM     11  C   UNL     1       3.207   5.609  18.699  0.00  0.00    +0.000 A 
ATOM     12  C   UNL     1       2.467   5.981  19.834  0.00  0.00    +0.000 A 
ATOM     13  C   UNL     1       1.905   7.259  19.978  0.00  0.00    +0.000 A 
BRANCH  11  14
ATOM     14  N   UNL     1       3.718   4.331  18.523  0.00  0.00    +0.000 N 
ATOM     15  C   UNL     1       3.879   3.422  19.658  0.00  0.00    +0.000 C 
ATOM     16  C   UNL     1       3.725   3.671  17.219  0.00  0.00    +0.000 C 
ENDBRANCH  11  14
ENDBRANCH   5   8
BRANCH   7  17
ATOM     17  C   UNL     1      -1.343  11.177  19.291  0.00  0.00    +0.000 A 
ATOM     18  C   UNL     1      -2.259  12.007  19.948  0.00  0.00    +0.000 A 
ATOM     19  C   UNL     1      -3.530  12.242  19.416  0.00  0.00    +0.000 A 
ATOM     20  C   UNL     1      -3.923  11.605  18.217  0.00  0.00    +0.000 A 
ATOM     21  C   UNL     1      -3.020  10.748  17.557  0.00  0.00    +0.000 A 
ATOM     22  C   UNL     1      -1.734  10.565  18.091  0.00  0.00    +0.000 A 
BRANCH  19  23
ATOM     23  O   UNL     1      -4.445  13.075  20.018  0.00  0.00    +0.000 OA
ATOM     24  C   UNL     1      -3.927  13.961  21.007  0.00  0.00    +0.000 C 
ENDBRANCH  19  23
BRANCH  20  25
ATOM     25  O   UNL     1      -5.221  11.850  17.824  0.00  0.00    +0.000 OA
ATOM     26  C   UNL     1      -6.215  10.936  18.270  0.00  0.00    +0.000 C 
ENDBRANCH  20  25
BRANCH  21  27
ATOM     27  O   UNL     1      -3.445  10.106  16.423  0.00  0.00    +0.000 OA
ATOM     28  C   UNL     1      -2.930  10.537  15.169  0.00  0.00    +0.000 C 
ENDBRANCH  21  27
ENDBRANCH   7  17
BRANCH   1  30
ATOM     29  C   UNL     1       3.127  14.180  18.152  0.00  0.00    +0.000 C 
ATOM     30  O   UNL     1       2.133  13.222  17.792  0.00  0.00    +0.000 OA
ENDBRANCH   1  30
TORSDOF 7
ENDMDL
MODEL 3
REMARK VINA RESULT:      -7.0      1.063      2.618
REMARK  Name = 
REMARK  13 active torsions:
REMARK  status: ('A' for Active; 'I' for Inactive)
REMARK    1  A    between atoms: C_1  and  O_2
REMARK    2  A    between atoms: O_2  and  C_3
REMARK    3  A    between atoms: C_7  and  C_8
REMARK    4  A    between atoms: C_11  and  N_12
REMARK    5  A    between atoms: N_12  and  C_13
REMARK    6  A    between atoms: N_12  and  C_14
REMARK    7  A    between atoms: C_18  and  C_19
REMARK    8  A    between atoms: C_21  and  O_22
REMARK    9  A    between atoms: O_22  and  C_23
REMARK   10  A    between atoms: C_24  and  O_25
REMARK   11  A    between atoms: O_25  and  C_26
REMARK   12  A    between atoms: C_27  and  O_28
REMARK   13  A    between atoms: O_28  and  C_29
REMARK                            x       y       z     vdW  Elec       q    Type
REMARK                         _______ _______ _______ _____ _____    ______ ____
ROOT
ATOM      1  C   UNL     1       0.948  13.315  18.991  0.00  0.00    +0.000 C 
ATOM      2  O   UNL     1       0.296  14.143  19.621  0.00  0.00    +0.000 OA
ATOM      3  N   UNL     1       0.795  11.955  19.134  0.00  0.00    +0.000 N 
ATOM      4  N   UNL     1       1.670  11.022  18.656  0.00  0.00    +0.000 NA
ATOM      5  C   UNL     1       1.258   9.921  19.187  0.00  0.00    +0.000 C 
ATOM      6  O   UNL     1       0.172   9.975  20.007  0.00  0.00    +0.000 OA
ATOM      7  C   UNL     1      -0.207  11.350  19.973  0.00  0.00    +0.000 C 
ENDROOT
BRANCH   5   8
ATOM      8  C   UNL     1       1.844   8.581  19.022  0.00  0.00    +0.000 A 
ATOM      9  C   UNL     1       1.770   7.671  20.075  0.00  0.00    +0.000 A 
ATOM     10  C   UNL     1       2.333   6.394  19.940  0.00  0.00    +0.000 A 
ATOM     11  C   UNL     1       2.975   5.972  18.761  0.00  0.00    +0.000 A 
ATOM     12  C   UNL     1       3.032   6.915  17.722  0.00  0.00    +0.000 A 
ATOM     13  C   UNL     1       2.483   8.201  17.844  0.00  0.00    +0.000 A 
BRANCH  11  14
ATOM     14  N   UNL     1       3.565   4.720  18.670  0.00  0.00    +0.000 N 
ATOM     15  C   UNL     1       3.062   3.718  17.729  0.00  0.00    +0.000 C 
ATOM     16  C   UNL     1       4.919   4.462  19.156  0.00  0.00    +0.000 C 
ENDBRANCH  11  14
ENDBRANCH   5   8
BRANCH   7  17
ATOM     17  C   UNL     1      -1.601  11.507  19.397  0.00  0.00    +0.000 A 
ATOM     18  C   UNL     1      -1.935  10.831  18.218  0.00  0.00    +0.000 A 
ATOM     19  C   UNL     1      -3.236  10.869  17.708  0.00  0.00    +0.000 A 
ATOM     20  C   UNL     1      -4.230  11.630  18.363  0.00  0.00    +0.000 A 
ATOM     21  C   UNL     1      -3.902  12.335  19.539  0.00  0.00    +0.000 A 
ATOM     22  C   UNL     1      -2.598  12.244  20.052  0.00  0.00    +0.000 A 
BRANCH  19  23
ATOM     23  O   UNL     1      -3.607  10.192  16.569  0.00  0.00    +0.000 OA
ATOM     24  C   UNL     1      -2.833  10.461  15.402  0.00  0.00    +0.000 C 
ENDBRANCH  19  23
BRANCH  20  25
ATOM     25  O   UNL     1      -5.455  11.655  17.734  0.00  0.00    +0.000 OA
ATOM     26  C   UNL     1      -6.492  10.868  18.307  0.00  0.00    +0.000 C 
ENDBRANCH  20  25
BRANCH  21  27
ATOM     27  O   UNL     1      -4.874  13.104  20.125  0.00  0.00    +0.000 OA
ATOM     28  C   UNL     1      -4.877  13.224  21.543  0.00  0.00    +0.000 C 
ENDBRANCH  21  27
ENDBRANCH   7  17
BRANCH   1  30
ATOM     29  C   UNL     1       2.693  14.775  18.371  0.00  0.00    +0.000 C 
ATOM     30  O   UNL     1       1.893  13.635  18.064  0.00  0.00    +0.000 OA
ENDBRANCH   1  30
TORSDOF 7
ENDMDL
MODEL 4
REMARK VINA RESULT:      -7.0      1.552      2.116
REMARK  Name = 
REMARK  13 active torsions:
REMARK  status: ('A' for Active; 'I' for Inactive)
REMARK    1  A    between atoms: C_1  and  O_2
REMARK    2  A    between atoms: O_2  and  C_3
REMARK    3  A    between atoms: C_7  and  C_8
REMARK    4  A    between atoms: C_11  and  N_12
REMARK    5  A    between atoms: N_12  and  C_13
REMARK    6  A    between atoms: N_12  and  C_14
REMARK    7  A    between atoms: C_18  and  C_19
REMARK    8  A    between atoms: C_21  and  O_22
REMARK    9  A    between atoms: O_22  and  C_23
REMARK   10  A    between atoms: C_24  and  O_25
REMARK   11  A    between atoms: O_25  and  C_26
REMARK   12  A    between atoms: C_27  and  O_28
REMARK   13  A    between atoms: O_28  and  C_29
REMARK                            x       y       z     vdW  Elec       q    Type
REMARK                         _______ _______ _______ _____ _____    ______ ____
ROOT
ATOM      1  C   UNL     1       0.041  13.777  19.096  0.00  0.00    +0.000 C 
ATOM      2  O   UNL     1      -0.735  14.548  19.654  0.00  0.00    +0.000 OA
ATOM      3  N   UNL     1      -0.005  12.410  19.245  0.00  0.00    +0.000 N 
ATOM      4  N   UNL     1       0.988  11.554  18.859  0.00  0.00    +0.000 NA
ATOM      5  C   UNL     1       0.627  10.425  19.367  0.00  0.00    +0.000 C 
ATOM      6  O   UNL     1      -0.529  10.388  20.086  0.00  0.00    +0.000 OA
ATOM      7  C   UNL     1      -1.022  11.724  19.999  0.00  0.00    +0.000 C 
ENDROOT
BRANCH   5   8
ATOM      8  C   UNL     1       1.340   9.141  19.274  0.00  0.00    +0.000 A 
ATOM      9  C   UNL     1       1.970   8.797  18.081  0.00  0.00    +0.000 A 
ATOM     10  C   UNL     1       2.645   7.572  17.970  0.00  0.00    +0.000 A 
ATOM     11  C   UNL     1       2.727   6.656  19.035  0.00  0.00    +0.000 A 
ATOM     12  C   UNL     1       2.079   7.036  20.222  0.00  0.00    +0.000 A 
ATOM     13  C   UNL     1       1.391   8.253  20.347  0.00  0.00    +0.000 A 
BRANCH  11  14
ATOM     14  N   UNL     1       3.360   5.431  18.885  0.00  0.00    +0.000 N 
ATOM     15  C   UNL     1       2.788   4.388  18.032  0.00  0.00    +0.000 C 
ATOM     16  C   UNL     1       4.776   5.246  19.192  0.00  0.00    +0.000 C 
ENDBRANCH  11  14
ENDBRANCH   5   8
BRANCH   7  17
ATOM     17  C   UNL     1      -2.367  11.754  19.298  0.00  0.00    +0.000 A 
ATOM     18  C   UNL     1      -3.484  12.245  19.982  0.00  0.00    +0.000 A 
ATOM     19  C   UNL     1      -4.720  12.383  19.342  0.00  0.00    +0.000 A 
ATOM     20  C   UNL     1      -4.864  11.987  17.993  0.00  0.00    +0.000 A 
ATOM     21  C   UNL     1      -3.753  11.470  17.298  0.00  0.00    +0.000 A 
ATOM     22  C   UNL     1      -2.514  11.383  17.953  0.00  0.00    +0.000 A 
BRANCH  19  23
ATOM     23  O   UNL     1      -5.831  12.889  19.975  0.00  0.00    +0.000 OA
ATOM     24  C   UNL     1      -6.454  12.031  20.928  0.00  0.00    +0.000 C 
ENDBRANCH  19  23
BRANCH  20  25
ATOM     25  O   UNL     1      -6.140  12.099  17.486  0.00  0.00    +0.000 OA
ATOM     26  C   UNL     1      -6.473  13.320  16.837  0.00  0.00    +0.000 C 
ENDBRANCH  20  25
BRANCH  21  27
ATOM     27  O   UNL     1      -3.935  11.050  16.005  0.00  0.00    +0.000 OA
ATOM     28  C   UNL     1      -2.873  10.351  15.366  0.00  0.00    +0.000 C 
ENDBRANCH  21  27
ENDBRANCH   7  17
BRANCH   1  30
ATOM     29  C   UNL     1       1.822  15.273  18.706  0.00  0.00    +0.000 C 
ATOM     30  O   UNL     1       1.034  14.173  18.253  0.00  0.00    +0.000 OA
ENDBRANCH   1  30
TORSDOF 7
ENDMDL
MODEL 5
REMARK VINA RESULT:      -6.9      0.441      2.514
REMARK  Name = 
REMARK  13 active torsions:
REMARK  status: ('A' for Active; 'I' for Inactive)
REMARK    1  A    between atoms: C_1  and  O_2
REMARK    2  A    between atoms: O_2  and  C_3
REMARK    3  A    between atoms: C_7  and  C_8
REMARK    4  A    between atoms: C_11  and  N_12
REMARK    5  A    between atoms: N_12  and  C_13
REMARK    6  A    between atoms: N_12  and  C_14
REMARK    7  A    between atoms: C_18  and  C_19
REMARK    8  A    between atoms: C_21  and  O_22
REMARK    9  A    between atoms: O_22  and  C_23
REMARK   10  A    between atoms: C_24  and  O_25
REMARK   11  A    between atoms: O_25  and  C_26
REMARK   12  A    between atoms: C_27  and  O_28
REMARK   13  A    between atoms: O_28  and  C_29
REMARK                            x       y       z     vdW  Elec       q    Type
REMARK                         _______ _______ _______ _____ _____    ______ ____
ROOT
ATOM      1  C   UNL     1       1.466  12.722  18.683  0.00  0.00    +0.000 C 
ATOM      2  O   UNL     1       0.819  13.470  19.411  0.00  0.00    +0.000 OA
ATOM      3  N   UNL     1       1.340  11.352  18.695  0.00  0.00    +0.000 N 
ATOM      4  N   UNL     1       2.215  10.487  18.101  0.00  0.00    +0.000 NA
ATOM      5  C   UNL     1       1.838   9.332  18.532  0.00  0.00    +0.000 C 
ATOM      6  O   UNL     1       0.777   9.283  19.384  0.00  0.00    +0.000 OA
ATOM      7  C   UNL     1       0.374  10.647  19.497  0.00  0.00    +0.000 C 
ENDROOT
BRANCH   5   8
ATOM      8  C   UNL     1       2.440   8.027  18.218  0.00  0.00    +0.000 A 
ATOM      9  C   UNL     1       3.600   7.980  17.447  0.00  0.00    +0.000 A 
ATOM     10  C   UNL     1       4.182   6.744  17.128  0.00  0.00    +0.000 A 
ATOM     11  C   UNL     1       3.645   5.520  17.567  0.00  0.00    +0.000 A 
ATOM     12  C   UNL     1       2.476   5.606  18.341  0.00  0.00    +0.000 A 
ATOM     13  C   UNL     1       1.875   6.833  18.661  0.00  0.00    +0.000 A 
BRANCH  11  14
ATOM     14  N   UNL     1       4.213   4.310  17.199  0.00  0.00    +0.000 N 
ATOM     15  C   UNL     1       3.633   3.040  17.640  0.00  0.00    +0.000 C 
ATOM     16  C   UNL     1       5.117   4.192  16.056  0.00  0.00    +0.000 C 
ENDBRANCH  11  14
ENDBRANCH   5   8
BRANCH   7  17
ATOM     17  C   UNL     1      -1.039  10.833  18.980  0.00  0.00    +0.000 A 
ATOM     18  C   UNL     1      -1.441  10.152  17.826  0.00  0.00    +0.000 A 
ATOM     19  C   UNL     1      -2.762  10.216  17.372  0.00  0.00    +0.000 A 
ATOM     20  C   UNL     1      -3.706  11.012  18.059  0.00  0.00    +0.000 A 
ATOM     21  C   UNL     1      -3.310  11.723  19.210  0.00  0.00    +0.000 A 
ATOM     22  C   UNL     1      -1.988  11.604  19.668  0.00  0.00    +0.000 A 
BRANCH  19  23
ATOM     23  O   UNL     1      -3.199   9.536  16.260  0.00  0.00    +0.000 OA
ATOM     24  C   UNL     1      -2.857  10.110  15.000  0.00  0.00    +0.000 C 
ENDBRANCH  19  23
BRANCH  20  25
ATOM     25  O   UNL     1      -4.957  11.061  17.484  0.00  0.00    +0.000 OA
ATOM     26  C   UNL     1      -5.329  12.276  16.847  0.00  0.00    +0.000 C 
ENDBRANCH  20  25
BRANCH  21  27
ATOM     27  O   UNL     1      -4.236  12.524  19.828  0.00  0.00    +0.000 OA
ATOM     28  C   UNL     1      -4.085  12.782  21.219  0.00  0.00    +0.000 C 
ENDBRANCH  21  27
ENDBRANCH   7  17
BRANCH   1  30
ATOM     29  C   UNL     1       3.205  14.234  18.183  0.00  0.00    +0.000 C 
ATOM     30  O   UNL     1       2.376  13.150  17.766  0.00  0.00    +0.000 OA
ENDBRANCH   1  30
TORSDOF 7
ENDMDL
MODEL 6
REMARK VINA RESULT:      -6.9      1.782      2.392
REMARK  Name = 
REMARK  13 active torsions:
REMARK  status: ('A' for Active; 'I' for Inactive)
REMARK    1  A    between atoms: C_1  and  O_2
REMARK    2  A    between atoms: O_2  and  C_3
REMARK    3  A    between atoms: C_7  and  C_8
REMARK    4  A    between atoms: C_11  and  N_12
REMARK    5  A    between atoms: N_12  and  C_13
REMARK    6  A    between atoms: N_12  and  C_14
REMARK    7  A    between atoms: C_18  and  C_19
REMARK    8  A    between atoms: C_21  and  O_22
REMARK    9  A    between atoms: O_22  and  C_23
REMARK   10  A    between atoms: C_24  and  O_25
REMARK   11  A    between atoms: O_25  and  C_26
REMARK   12  A    between atoms: C_27  and  O_28
REMARK   13  A    between atoms: O_28  and  C_29
REMARK                            x       y       z     vdW  Elec       q    Type
REMARK                         _______ _______ _______ _____ _____    ______ ____
ROOT
ATOM      1  C   UNL     1      -0.485  14.130  19.335  0.00  0.00    +0.000 C 
ATOM      2  O   UNL     1      -1.302  14.814  19.945  0.00  0.00    +0.000 OA
ATOM      3  N   UNL     1      -0.452  12.756  19.387  0.00  0.00    +0.000 N 
ATOM      4  N   UNL     1       0.588  11.988  18.943  0.00  0.00    +0.000 NA
ATOM      5  C   UNL     1       0.295  10.806  19.370  0.00  0.00    +0.000 C 
ATOM      6  O   UNL     1      -0.854  10.653  20.085  0.00  0.00    +0.000 OA
ATOM      7  C   UNL     1      -1.424  11.961  20.091  0.00  0.00    +0.000 C 
ENDROOT
BRANCH   5   8
ATOM      8  C   UNL     1       1.080   9.576  19.188  0.00  0.00    +0.000 A 
ATOM      9  C   UNL     1       1.230   8.698  20.259  0.00  0.00    +0.000 A 
ATOM     10  C   UNL     1       1.986   7.527  20.107  0.00  0.00    +0.000 A 
ATOM     11  C   UNL     1       2.606   7.180  18.893  0.00  0.00    +0.000 A 
ATOM     12  C   UNL     1       2.434   8.088  17.835  0.00  0.00    +0.000 A 
ATOM     13  C   UNL     1       1.690   9.270  17.973  0.00  0.00    +0.000 A 
BRANCH  11  14
ATOM     14  N   UNL     1       3.386   6.038  18.782  0.00  0.00    +0.000 N 
ATOM     15  C   UNL     1       3.307   4.972  19.782  0.00  0.00    +0.000 C 
ATOM     16  C   UNL     1       3.988   5.629  17.515  0.00  0.00    +0.000 C 
ENDBRANCH  11  14
ENDBRANCH   5   8
BRANCH   7  17
ATOM     17  C   UNL     1      -2.771  11.962  19.394  0.00  0.00    +0.000 A 
ATOM     18  C   UNL     1      -3.883  12.496  20.054  0.00  0.00    +0.000 A 
ATOM     19  C   UNL     1      -5.119  12.608  19.411  0.00  0.00    +0.000 A 
ATOM     20  C   UNL     1      -5.271  12.141  18.086  0.00  0.00    +0.000 A 
ATOM     21  C   UNL     1      -4.165  11.580  17.416  0.00  0.00    +0.000 A 
ATOM     22  C   UNL     1      -2.925  11.520  18.071  0.00  0.00    +0.000 A 
BRANCH  19  23
ATOM     23  O   UNL     1      -6.225  13.154  20.020  0.00  0.00    +0.000 OA
ATOM     24  C   UNL     1      -6.101  14.511  20.442  0.00  0.00    +0.000 C 
ENDBRANCH  19  23
BRANCH  20  25
ATOM     25  O   UNL     1      -6.548  12.234  17.577  0.00  0.00    +0.000 OA
ATOM     26  C   UNL     1      -6.868  13.410  16.844  0.00  0.00    +0.000 C 
ENDBRANCH  20  25
BRANCH  21  27
ATOM     27  O   UNL     1      -4.355  11.092  16.149  0.00  0.00    +0.000 OA
ATOM     28  C   UNL     1      -3.214  10.672  15.409  0.00  0.00    +0.000 C 
ENDBRANCH  21  27
ENDBRANCH   7  17
BRANCH   1  30
ATOM     29  C   UNL     1       0.986  15.921  18.899  0.00  0.00    +0.000 C 
ATOM     30  O   UNL     1       0.480  14.641  18.522  0.00  0.00    +0.000 OA
ENDBRANCH   1  30
TORSDOF 7
ENDMDL
MODEL 7
REMARK VINA RESULT:      -6.9      1.063      2.665
REMARK  Name = 
REMARK  13 active torsions:
REMARK  status: ('A' for Active; 'I' for Inactive)
REMARK    1  A    between atoms: C_1  and  O_2
REMARK    2  A    between atoms: O_2  and  C_3
REMARK    3  A    between atoms: C_7  and  C_8
REMARK    4  A    between atoms: C_11  and  N_12
REMARK    5  A    between atoms: N_12  and  C_13
REMARK    6  A    between atoms: N_12  and  C_14
REMARK    7  A    between atoms: C_18  and  C_19
REMARK    8  A    between atoms: C_21  and  O_22
REMARK    9  A    between atoms: O_22  and  C_23
REMARK   10  A    between atoms: C_24  and  O_25
REMARK   11  A    between atoms: O_25  and  C_26
REMARK   12  A    between atoms: C_27  and  O_28
REMARK   13  A    between atoms: O_28  and  C_29
REMARK                            x       y       z     vdW  Elec       q    Type
REMARK                         _______ _______ _______ _____ _____    ______ ____
ROOT
ATOM      1  C   UNL     1       0.961  13.200  18.759  0.00  0.00    +0.000 C 
ATOM      2  O   UNL     1       0.294  14.043  19.353  0.00  0.00    +0.000 OA
ATOM      3  N   UNL     1       0.834  11.845  18.966  0.00  0.00    +0.000 N 
ATOM      4  N   UNL     1       1.727  10.908  18.528  0.00  0.00    +0.000 NA
ATOM      5  C   UNL     1       1.337   9.825  19.110  0.00  0.00    +0.000 C 
ATOM      6  O   UNL     1       0.252   9.896  19.930  0.00  0.00    +0.000 OA
ATOM      7  C   UNL     1      -0.153  11.260  19.834  0.00  0.00    +0.000 C 
ENDROOT
BRANCH   5   8
ATOM      8  C   UNL     1       1.948   8.491  19.006  0.00  0.00    +0.000 A 
ATOM      9  C   UNL     1       2.637   8.146  17.845  0.00  0.00    +0.000 A 
ATOM     10  C   UNL     1       3.216   6.875  17.722  0.00  0.00    +0.000 A 
ATOM     11  C   UNL     1       3.143   5.910  18.744  0.00  0.00    +0.000 A 
ATOM     12  C   UNL     1       2.441   6.291  19.899  0.00  0.00    +0.000 A 
ATOM     13  C   UNL     1       1.847   7.555  20.034  0.00  0.00    +0.000 A 
BRANCH  11  14
ATOM     14  N   UNL     1       3.684   4.643  18.579  0.00  0.00    +0.000 N 
ATOM     15  C   UNL     1       3.629   3.655  19.658  0.00  0.00    +0.000 C 
ATOM     16  C   UNL     1       3.946   4.076  17.258  0.00  0.00    +0.000 C 
ENDBRANCH  11  14
ENDBRANCH   5   8
BRANCH   7  17
ATOM     17  C   UNL     1      -1.552  11.364  19.255  0.00  0.00    +0.000 A 
ATOM     18  C   UNL     1      -1.850  10.695  18.063  0.00  0.00    +0.000 A 
ATOM     19  C   UNL     1      -3.150  10.682  17.549  0.00  0.00    +0.000 A 
ATOM     20  C   UNL     1      -4.180  11.385  18.214  0.00  0.00    +0.000 A 
ATOM     21  C   UNL     1      -3.889  12.083  19.403  0.00  0.00    +0.000 A 
ATOM     22  C   UNL     1      -2.584  12.042  19.920  0.00  0.00    +0.000 A 
BRANCH  19  23
ATOM     23  O   UNL     1      -3.486  10.010  16.396  0.00  0.00    +0.000 OA
ATOM     24  C   UNL     1      -2.967  10.550  15.183  0.00  0.00    +0.000 C 
ENDBRANCH  19  23
BRANCH  20  25
ATOM     25  O   UNL     1      -5.403  11.365  17.581  0.00  0.00    +0.000 OA
ATOM     26  C   UNL     1      -5.824  12.567  16.947  0.00  0.00    +0.000 C 
ENDBRANCH  20  25
BRANCH  21  27
ATOM     27  O   UNL     1      -4.897  12.795  20.000  0.00  0.00    +0.000 OA
ATOM     28  C   UNL     1      -4.570  14.026  20.635  0.00  0.00    +0.000 C 
ENDBRANCH  21  27
ENDBRANCH   7  17
BRANCH   1  30
ATOM     29  C   UNL     1       2.911  14.413  18.222  0.00  0.00    +0.000 C 
ATOM     30  O   UNL     1       1.897  13.495  17.816  0.00  0.00    +0.000 OA
ENDBRANCH   1  30
TORSDOF 7
ENDMDL
MODEL 8
REMARK VINA RESULT:      -6.8      1.432      1.816
REMARK  Name = 
REMARK  13 active torsions:
REMARK  status: ('A' for Active; 'I' for Inactive)
REMARK    1  A    between atoms: C_1  and  O_2
REMARK    2  A    between atoms: O_2  and  C_3
REMARK    3  A    between atoms: C_7  and  C_8
REMARK    4  A    between atoms: C_11  and  N_12
REMARK    5  A    between atoms: N_12  and  C_13
REMARK    6  A    between atoms: N_12  and  C_14
REMARK    7  A    between atoms: C_18  and  C_19
REMARK    8  A    between atoms: C_21  and  O_22
REMARK    9  A    between atoms: O_22  and  C_23
REMARK   10  A    between atoms: C_24  and  O_25
REMARK   11  A    between atoms: O_25  and  C_26
REMARK   12  A    between atoms: C_27  and  O_28
REMARK   13  A    between atoms: O_28  and  C_29
REMARK                            x       y       z     vdW  Elec       q    Type
REMARK                         _______ _______ _______ _____ _____    ______ ____
ROOT
ATOM      1  C   UNL     1       0.285  13.818  19.292  0.00  0.00    +0.000 C 
ATOM      2  O   UNL     1      -0.427  14.585  19.934  0.00  0.00    +0.000 OA
ATOM      3  N   UNL     1       0.217  12.448  19.397  0.00  0.00    +0.000 N 
ATOM      4  N   UNL     1       1.157  11.585  18.908  0.00  0.00    +0.000 NA
ATOM      5  C   UNL     1       0.809  10.446  19.403  0.00  0.00    +0.000 C 
ATOM      6  O   UNL     1      -0.289  10.409  20.208  0.00  0.00    +0.000 OA
ATOM      7  C   UNL     1      -0.755  11.757  20.204  0.00  0.00    +0.000 C 
ENDROOT
BRANCH   5   8
ATOM      8  C   UNL     1       1.482   9.152  19.212  0.00  0.00    +0.000 A 
ATOM      9  C   UNL     1       1.486   8.226  20.254  0.00  0.00    +0.000 A 
ATOM     10  C   UNL     1       2.133   6.992  20.094  0.00  0.00    +0.000 A 
ATOM     11  C   UNL     1       2.783   6.629  18.900  0.00  0.00    +0.000 A 
ATOM     12  C   UNL     1       2.759   7.586  17.872  0.00  0.00    +0.000 A 
ATOM     13  C   UNL     1       2.126   8.830  18.019  0.00  0.00    +0.000 A 
BRANCH  11  14
ATOM     14  N   UNL     1       3.455   5.421  18.784  0.00  0.00    +0.000 N 
ATOM     15  C   UNL     1       2.977   4.378  17.875  0.00  0.00    +0.000 C 
ATOM     16  C   UNL     1       4.847   5.263  19.200  0.00  0.00    +0.000 C 
ENDBRANCH  11  14
ENDBRANCH   5   8
BRANCH   7  17
ATOM     17  C   UNL     1      -2.148  11.841  19.610  0.00  0.00    +0.000 A 
ATOM     18  C   UNL     1      -3.180  12.411  20.365  0.00  0.00    +0.000 A 
ATOM     19  C   UNL     1      -4.454  12.599  19.819  0.00  0.00    +0.000 A 
ATOM     20  C   UNL     1      -4.727  12.174  18.500  0.00  0.00    +0.000 A 
ATOM     21  C   UNL     1      -3.703  11.577  17.736  0.00  0.00    +0.000 A 
ATOM     22  C   UNL     1      -2.422  11.441  18.294  0.00  0.00    +0.000 A 
BRANCH  19  23
ATOM     23  O   UNL     1      -5.483  13.183  20.521  0.00  0.00    +0.000 OA
ATOM     24  C   UNL     1      -5.560  12.855  21.906  0.00  0.00    +0.000 C 
ENDBRANCH  19  23
BRANCH  20  25
ATOM     25  O   UNL     1      -6.031  12.341  18.091  0.00  0.00    +0.000 OA
ATOM     26  C   UNL     1      -6.908  11.234  18.257  0.00  0.00    +0.000 C 
ENDBRANCH  20  25
BRANCH  21  27
ATOM     27  O   UNL     1      -4.010  11.131  16.476  0.00  0.00    +0.000 OA
ATOM     28  C   UNL     1      -2.943  10.767  15.609  0.00  0.00    +0.000 C 
ENDBRANCH  21  27
ENDBRANCH   7  17
BRANCH   1  30
ATOM     29  C   UNL     1       2.191  15.146  18.880  0.00  0.00    +0.000 C 
ATOM     30  O   UNL     1       1.220  14.223  18.389  0.00  0.00    +0.000 OA
ENDBRANCH   1  30
TORSDOF 7
ENDMDL
MODEL 9
REMARK VINA RESULT:      -6.8      1.571      2.981
REMARK  Name = 
REMARK  13 active torsions:
REMARK  status: ('A' for Active; 'I' for Inactive)
REMARK    1  A    between atoms: C_1  and  O_2
REMARK    2  A    between atoms: O_2  and  C_3
REMARK    3  A    between atoms: C_7  and  C_8
REMARK    4  A    between atoms: C_11  and  N_12
REMARK    5  A    between atoms: N_12  and  C_13
REMARK    6  A    between atoms: N_12  and  C_14
REMARK    7  A    between atoms: C_18  and  C_19
REMARK    8  A    between atoms: C_21  and  O_22
REMARK    9  A    between atoms: O_22  and  C_23
REMARK   10  A    between atoms: C_24  and  O_25
REMARK   11  A    between atoms: O_25  and  C_26
REMARK   12  A    between atoms: C_27  and  O_28
REMARK   13  A    between atoms: O_28  and  C_29
REMARK                            x       y       z     vdW  Elec       q    Type
REMARK                         _______ _______ _______ _____ _____    ______ ____
ROOT
ATOM      1  C   UNL     1       0.172  13.952  19.085  0.00  0.00    +0.000 C 
ATOM      2  O   UNL     1      -0.572  14.742  19.659  0.00  0.00    +0.000 OA
ATOM      3  N   UNL     1       0.089  12.586  19.227  0.00  0.00    +0.000 N 
ATOM      4  N   UNL     1       1.051  11.704  18.821  0.00  0.00    +0.000 NA
ATOM      5  C   UNL     1       0.665  10.583  19.330  0.00  0.00    +0.000 C 
ATOM      6  O   UNL     1      -0.479  10.576  20.067  0.00  0.00    +0.000 OA
ATOM      7  C   UNL     1      -0.934  11.926  19.994  0.00  0.00    +0.000 C 
ENDROOT
BRANCH   5   8
ATOM      8  C   UNL     1       1.339   9.280  19.219  0.00  0.00    +0.000 A 
ATOM      9  C   UNL     1       1.334   8.416  20.312  0.00  0.00    +0.000 A 
ATOM     10  C   UNL     1       1.981   7.174  20.229  0.00  0.00    +0.000 A 
ATOM     11  C   UNL     1       2.642   6.743  19.063  0.00  0.00    +0.000 A 
ATOM     12  C   UNL     1       2.627   7.640  17.982  0.00  0.00    +0.000 A 
ATOM     13  C   UNL     1       1.994   8.890  18.052  0.00  0.00    +0.000 A 
BRANCH  11  14
ATOM     14  N   UNL     1       3.315   5.531  19.023  0.00  0.00    +0.000 N 
ATOM     15  C   UNL     1       2.731   4.369  18.351  0.00  0.00    +0.000 C 
ATOM     16  C   UNL     1       4.755   5.433  19.247  0.00  0.00    +0.000 C 
ENDBRANCH  11  14
ENDBRANCH   5   8
BRANCH   7  17
ATOM     17  C   UNL     1      -2.289  11.999  19.316  0.00  0.00    +0.000 A 
ATOM     18  C   UNL     1      -2.403  11.622  17.973  0.00  0.00    +0.000 A 
ATOM     19  C   UNL     1      -3.649  11.579  17.339  0.00  0.00    +0.000 A 
ATOM     20  C   UNL     1      -4.813  11.958  18.043  0.00  0.00    +0.000 A 
ATOM     21  C   UNL     1      -4.711  12.362  19.390  0.00  0.00    +0.000 A 
ATOM     22  C   UNL     1      -3.453  12.354  20.014  0.00  0.00    +0.000 A 
BRANCH  19  23
ATOM     23  O   UNL     1      -3.802  11.184  16.030  0.00  0.00    +0.000 OA
ATOM     24  C   UNL     1      -3.124   9.988  15.654  0.00  0.00    +0.000 C 
ENDBRANCH  19  23
BRANCH  20  25
ATOM     25  O   UNL     1      -5.974  11.947  17.301  0.00  0.00    +0.000 OA
ATOM     26  C   UNL     1      -6.537  13.209  16.964  0.00  0.00    +0.000 C 
ENDBRANCH  20  25
BRANCH  21  27
ATOM     27  O   UNL     1      -5.851  12.770  20.033  0.00  0.00    +0.000 OA
ATOM     28  C   UNL     1      -6.549  11.825  20.835  0.00  0.00    +0.000 C 
ENDBRANCH  21  27
ENDBRANCH   7  17
BRANCH   1  30
ATOM     29  C   UNL     1       1.891  15.494  18.599  0.00  0.00    +0.000 C 
ATOM     30  O   UNL     1       1.163  14.324  18.227  0.00  0.00    +0.000 OA
ENDBRANCH   1  30
TORSDOF 7
ENDMDL
