MODEL 1
REMARK VINA RESULT:      -7.8      0.000      0.000
REMARK  Name = 
REMARK  8 active torsions:
REMARK  status: ('A' for Active; 'I' for Inactive)
REMARK    1  A    between atoms: C_1  and  C_2
REMARK    2  A    between atoms: C_2  and  O_3
REMARK    3  A    between atoms: C_2  and  C_20
REMARK    4  A    between atoms: O_3  and  C_4
REMARK    5  A    between atoms: N_10  and  C_11
REMARK    6  A    between atoms: C_11  and  C_12
REMARK    7  A    between atoms: C_12  and  C_13
REMARK    8  A    between atoms: C_13  and  O_15
REMARK                            x       y       z     vdW  Elec       q    Type
REMARK                         _______ _______ _______ _____ _____    ______ ____
ROOT
ATOM      1  C   UNL     1       2.351   7.386  19.384  0.00  0.00    +0.000 A 
ATOM      2  C   UNL     1       2.832   7.765  18.144  0.00  0.00    +0.000 A 
ATOM      3  C   UNL     1       3.821   6.969  17.556  0.00  0.00    +0.000 A 
ATOM      4  O   UNL     1       4.348   7.170  16.289  0.00  0.00    +0.000 OA
ATOM      5  C   UNL     1       5.328   6.169  16.196  0.00  0.00    +0.000 A 
ATOM      6  O   UNL     1       6.047   6.012  15.229  0.00  0.00    +0.000 OA
ATOM      7  N   UNL     1       5.392   5.417  17.345  0.00  0.00    +0.000 N 
ATOM      8  C   UNL     1       4.407   5.880  18.170  0.00  0.00    +0.000 A 
ATOM      9  C   UNL     1       3.932   5.399  19.338  0.00  0.00    +0.000 A 
ATOM     10  C   UNL     1       2.812   6.062  19.854  0.00  0.00    +0.000 A 
ATOM     11 CL   UNL     1       2.039   4.926  20.922  0.00  0.00    +0.000 Cl
ENDROOT
BRANCH   1  12
ATOM     12  O   UNL     1       1.556   8.224  20.138  0.00  0.00    +0.000 OA
BRANCH  12  14
ATOM     13  C   UNL     1       1.159  10.427  18.838  0.00  0.00    +0.000 C 
ATOM     14  C   UNL     1       0.704   9.444  19.911  0.00  0.00    +0.000 C 
BRANCH  14  15
ATOM     15  C   UNL     1      -0.229  10.189  20.962  0.00  0.00    +0.000 A 
ATOM     16  C   UNL     1      -0.349   9.846  22.308  0.00  0.00    +0.000 A 
ATOM     17  C   UNL     1      -1.112  10.650  23.187  0.00  0.00    +0.000 A 
ATOM     18  C   UNL     1      -1.735  11.805  22.732  0.00  0.00    +0.000 A 
ATOM     19  C   UNL     1      -1.573  12.103  21.395  0.00  0.00    +0.000 A 
ATOM     20  N   UNL     1      -0.851  11.337  20.519  0.00  0.00    +0.000 NA
ENDBRANCH  14  15
ENDBRANCH  12  14
ENDBRANCH   1  12
BRANCH   7  21
ATOM     21  C   UNL     1       6.325   4.321  17.631  0.00  0.00    +0.000 C 
BRANCH  21  22
ATOM     22  C   UNL     1       7.732   4.860  17.886  0.00  0.00    +0.000 C 
BRANCH  22  23
ATOM     23  C   UNL     1       7.803   5.717  19.123  0.00  0.00    +0.000 C 
ATOM     24  O   UNL     1       7.461   5.369  20.239  0.00  0.00    +0.000 OA
BRANCH  23  25
ATOM     25  O   UNL     1       8.279   6.957  18.855  0.00  0.00    +0.000 OA
ATOM     26  H   UNL     1       8.997   6.978  18.191  0.00  0.00    +0.000 HD
ENDBRANCH  23  25
ENDBRANCH  22  23
ENDBRANCH  21  22
ENDBRANCH   7  21
TORSDOF 7
ENDMDL
MODEL 2
REMARK VINA RESULT:      -7.8      1.725      2.240
REMARK  Name = 
REMARK  8 active torsions:
REMARK  status: ('A' for Active; 'I' for Inactive)
REMARK    1  A    between atoms: C_1  and  C_2
REMARK    2  A    between atoms: C_2  and  O_3
REMARK    3  A    between atoms: C_2  and  C_20
REMARK    4  A    between atoms: O_3  and  C_4
REMARK    5  A    between atoms: N_10  and  C_11
REMARK    6  A    between atoms: C_11  and  C_12
REMARK    7  A    between atoms: C_12  and  C_13
REMARK    8  A    between atoms: C_13  and  O_15
REMARK                            x       y       z     vdW  Elec       q    Type
REMARK                         _______ _______ _______ _____ _____    ______ ____
ROOT
ATOM      1  C   UNL     1       2.233   7.921  18.780  0.00  0.00    +0.000 A 
ATOM      2  C   UNL     1       2.872   8.056  17.562  0.00  0.00    +0.000 A 
ATOM      3  C   UNL     1       3.862   7.121  17.237  0.00  0.00    +0.000 A 
ATOM      4  O   UNL     1       4.538   7.074  16.027  0.00  0.00    +0.000 OA
ATOM      5  C   UNL     1       5.450   6.024  16.220  0.00  0.00    +0.000 A 
ATOM      6  O   UNL     1       6.259   5.667  15.386  0.00  0.00    +0.000 OA
ATOM      7  N   UNL     1       5.334   5.480  17.477  0.00  0.00    +0.000 N 
ATOM      8  C   UNL     1       4.299   6.127  18.089  0.00  0.00    +0.000 A 
ATOM      9  C   UNL     1       3.666   5.880  19.255  0.00  0.00    +0.000 A 
ATOM     10  C   UNL     1       2.545   6.677  19.515  0.00  0.00    +0.000 A 
ATOM     11 CL   UNL     1       1.581   5.783  20.655  0.00  0.00    +0.000 Cl
ENDROOT
BRANCH   1  12
ATOM     12  O   UNL     1       1.419   8.916  19.284  0.00  0.00    +0.000 OA
BRANCH  12  14
ATOM     13  C   UNL     1       1.488  11.504  19.292  0.00  0.00    +0.000 C 
ATOM     14  C   UNL     1       0.833  10.216  18.804  0.00  0.00    +0.000 C 
BRANCH  14  15
ATOM     15  C   UNL     1      -0.672  10.507  18.378  0.00  0.00    +0.000 A 
ATOM     16  C   UNL     1      -1.388   9.779  17.429  0.00  0.00    +0.000 A 
ATOM     17  C   UNL     1      -2.762  10.040  17.212  0.00  0.00    +0.000 A 
ATOM     18  C   UNL     1      -3.425  11.009  17.954  0.00  0.00    +0.000 A 
ATOM     19  C   UNL     1      -2.671  11.691  18.886  0.00  0.00    +0.000 A 
ATOM     20  N   UNL     1      -1.339  11.467  19.109  0.00  0.00    +0.000 NA
ENDBRANCH  14  15
ENDBRANCH  12  14
ENDBRANCH   1  12
BRANCH   7  21
ATOM     21  C   UNL     1       6.152   4.405  18.052  0.00  0.00    +0.000 C 
BRANCH  21  22
ATOM     22  C   UNL     1       7.627   4.801  18.079  0.00  0.00    +0.000 C 
BRANCH  22  23
ATOM     23  C   UNL     1       7.898   5.937  19.030  0.00  0.00    +0.000 C 
ATOM     24  O   UNL     1       8.165   7.080  18.702  0.00  0.00    +0.000 OA
BRANCH  23  25
ATOM     25  O   UNL     1       7.835   5.542  20.326  0.00  0.00    +0.000 OA
ATOM     26  H   UNL     1       8.705   5.460  20.765  0.00  0.00    +0.000 HD
ENDBRANCH  23  25
ENDBRANCH  22  23
ENDBRANCH  21  22
ENDBRANCH   7  21
TORSDOF 7
ENDMDL
MODEL 3
REMARK VINA RESULT:      -7.8      0.975      1.829
REMARK  Name = 
REMARK  8 active torsions:
REMARK  status: ('A' for Active; 'I' for Inactive)
REMARK    1  A    between atoms: C_1  and  C_2
REMARK    2  A    between atoms: C_2  and  O_3
REMARK    3  A    between atoms: C_2  and  C_20
REMARK    4  A    between atoms: O_3  and  C_4
REMARK    5  A    between atoms: N_10  and  C_11
REMARK    6  A    between atoms: C_11  and  C_12
REMARK    7  A    between atoms: C_12  and  C_13
REMARK    8  A    between atoms: C_13  and  O_15
REMARK                            x       y       z     vdW  Elec       q    Type
REMARK                         _______ _______ _______ _____ _____    ______ ____
ROOT
ATOM      1  C   UNL     1       2.061   6.876  19.916  0.00  0.00    +0.000 A 
ATOM      2  C   UNL     1       2.522   7.441  18.741  0.00  0.00    +0.000 A 
ATOM      3  C   UNL     1       3.568   6.795  18.073  0.00  0.00    +0.000 A 
ATOM      4  O   UNL     1       4.088   7.191  16.850  0.00  0.00    +0.000 OA
ATOM      5  C   UNL     1       5.137   6.279  16.647  0.00  0.00    +0.000 A 
ATOM      6  O   UNL     1       5.871   6.296  15.679  0.00  0.00    +0.000 OA
ATOM      7  N   UNL     1       5.245   5.394  17.693  0.00  0.00    +0.000 N 
ATOM      8  C   UNL     1       4.225   5.680  18.554  0.00  0.00    +0.000 A 
ATOM      9  C   UNL     1       3.777   5.025  19.646  0.00  0.00    +0.000 A 
ATOM     10  C   UNL     1       2.610   5.538  20.223  0.00  0.00    +0.000 A 
ATOM     11 CL   UNL     1       1.911   4.226  21.128  0.00  0.00    +0.000 Cl
ENDROOT
BRANCH   1  12
ATOM     12  O   UNL     1       1.204   7.556  20.757  0.00  0.00    +0.000 OA
BRANCH  12  14
ATOM     13  C   UNL     1       0.876   9.343  22.601  0.00  0.00    +0.000 C 
ATOM     14  C   UNL     1       0.910   8.987  21.119  0.00  0.00    +0.000 C 
BRANCH  14  15
ATOM     15  C   UNL     1       0.055  10.044  20.292  0.00  0.00    +0.000 A 
ATOM     16  C   UNL     1      -0.174   9.986  18.919  0.00  0.00    +0.000 A 
ATOM     17  C   UNL     1      -1.052  10.908  18.300  0.00  0.00    +0.000 A 
ATOM     18  C   UNL     1      -1.715  11.870  19.051  0.00  0.00    +0.000 A 
ATOM     19  C   UNL     1      -1.460  11.874  20.406  0.00  0.00    +0.000 A 
ATOM     20  N   UNL     1      -0.607  11.003  21.030  0.00  0.00    +0.000 NA
ENDBRANCH  14  15
ENDBRANCH  12  14
ENDBRANCH   1  12
BRANCH   7  21
ATOM     21  C   UNL     1       6.251   4.338  17.854  0.00  0.00    +0.000 C 
BRANCH  21  22
ATOM     22  C   UNL     1       7.661   4.926  17.847  0.00  0.00    +0.000 C 
BRANCH  22  23
ATOM     23  C   UNL     1       7.853   5.970  18.917  0.00  0.00    +0.000 C 
ATOM     24  O   UNL     1       8.160   7.131  18.718  0.00  0.00    +0.000 OA
BRANCH  23  25
ATOM     25  O   UNL     1       7.664   5.463  20.160  0.00  0.00    +0.000 OA
ATOM     26  H   UNL     1       8.176   5.915  20.861  0.00  0.00    +0.000 HD
ENDBRANCH  23  25
ENDBRANCH  22  23
ENDBRANCH  21  22
ENDBRANCH   7  21
TORSDOF 7
ENDMDL
MODEL 4
REMARK VINA RESULT:      -7.7      2.761      3.905
REMARK  Name = 
REMARK  8 active torsions:
REMARK  status: ('A' for Active; 'I' for Inactive)
REMARK    1  A    between atoms: C_1  and  C_2
REMARK    2  A    between atoms: C_2  and  O_3
REMARK    3  A    between atoms: C_2  and  C_20
REMARK    4  A    between atoms: O_3  and  C_4
REMARK    5  A    between atoms: N_10  and  C_11
REMARK    6  A    between atoms: C_11  and  C_12
REMARK    7  A    between atoms: C_12  and  C_13
REMARK    8  A    between atoms: C_13  and  O_15
REMARK                            x       y       z     vdW  Elec       q    Type
REMARK                         _______ _______ _______ _____ _____    ______ ____
ROOT
ATOM      1  C   UNL     1       1.135   8.785  19.747  0.00  0.00    +0.000 A 
ATOM      2  C   UNL     1       1.554   7.634  20.389  0.00  0.00    +0.000 A 
ATOM      3  C   UNL     1       2.478   6.818  19.728  0.00  0.00    +0.000 A 
ATOM      4  O   UNL     1       3.052   5.676  20.267  0.00  0.00    +0.000 OA
ATOM      5  C   UNL     1       3.840   5.193  19.210  0.00  0.00    +0.000 A 
ATOM      6  O   UNL     1       4.503   4.177  19.268  0.00  0.00    +0.000 OA
ATOM      7  N   UNL     1       3.737   5.994  18.097  0.00  0.00    +0.000 N 
ATOM      8  C   UNL     1       2.933   7.043  18.444  0.00  0.00    +0.000 A 
ATOM      9  C   UNL     1       2.636   8.185  17.789  0.00  0.00    +0.000 A 
ATOM     10  C   UNL     1       1.870   9.112  18.507  0.00  0.00    +0.000 A 
ATOM     11 CL   UNL     1       2.174  10.656  17.764  0.00  0.00    +0.000 Cl
ENDROOT
BRANCH   1  12
ATOM     12  O   UNL     1       0.064   9.522  20.210  0.00  0.00    +0.000 OA
BRANCH  12  14
ATOM     13  C   UNL     1      -1.229  11.691  20.781  0.00  0.00    +0.000 C 
ATOM     14  C   UNL     1      -0.773  10.679  19.735  0.00  0.00    +0.000 C 
BRANCH  14  15
ATOM     15  C   UNL     1      -1.753  10.722  18.482  0.00  0.00    +0.000 A 
ATOM     16  C   UNL     1      -1.621   9.936  17.339  0.00  0.00    +0.000 A 
ATOM     17  C   UNL     1      -2.617   9.962  16.333  0.00  0.00    +0.000 A 
ATOM     18  C   UNL     1      -3.749  10.752  16.477  0.00  0.00    +0.000 A 
ATOM     19  C   UNL     1      -3.833  11.501  17.632  0.00  0.00    +0.000 A 
ATOM     20  N   UNL     1      -2.880  11.504  18.616  0.00  0.00    +0.000 NA
ENDBRANCH  14  15
ENDBRANCH  12  14
ENDBRANCH   1  12
BRANCH   7  21
ATOM     21  C   UNL     1       4.372   5.777  16.792  0.00  0.00    +0.000 C 
BRANCH  21  22
ATOM     22  C   UNL     1       5.815   6.276  16.801  0.00  0.00    +0.000 C 
BRANCH  22  23
ATOM     23  C   UNL     1       6.783   5.243  16.286  0.00  0.00    +0.000 C 
ATOM     24  O   UNL     1       7.671   5.453  15.479  0.00  0.00    +0.000 OA
BRANCH  23  25
ATOM     25  O   UNL     1       6.543   4.016  16.811  0.00  0.00    +0.000 OA
ATOM     26  H   UNL     1       7.229   3.350  16.607  0.00  0.00    +0.000 HD
ENDBRANCH  23  25
ENDBRANCH  22  23
ENDBRANCH  21  22
ENDBRANCH   7  21
TORSDOF 7
ENDMDL
MODEL 5
REMARK VINA RESULT:      -7.6      2.974      4.728
REMARK  Name = 
REMARK  8 active torsions:
REMARK  status: ('A' for Active; 'I' for Inactive)
REMARK    1  A    between atoms: C_1  and  C_2
REMARK    2  A    between atoms: C_2  and  O_3
REMARK    3  A    between atoms: C_2  and  C_20
REMARK    4  A    between atoms: O_3  and  C_4
REMARK    5  A    between atoms: N_10  and  C_11
REMARK    6  A    between atoms: C_11  and  C_12
REMARK    7  A    between atoms: C_12  and  C_13
REMARK    8  A    between atoms: C_13  and  O_15
REMARK                            x       y       z     vdW  Elec       q    Type
REMARK                         _______ _______ _______ _____ _____    ______ ____
ROOT
ATOM      1  C   UNL     1       4.291   5.396  18.334  0.00  0.00    +0.000 A 
ATOM      2  C   UNL     1       5.390   6.079  17.846  0.00  0.00    +0.000 A 
ATOM      3  C   UNL     1       5.934   5.653  16.629  0.00  0.00    +0.000 A 
ATOM      4  O   UNL     1       6.983   6.277  15.971  0.00  0.00    +0.000 OA
ATOM      5  C   UNL     1       7.192   5.447  14.858  0.00  0.00    +0.000 A 
ATOM      6  O   UNL     1       8.054   5.638  14.023  0.00  0.00    +0.000 OA
ATOM      7  N   UNL     1       6.325   4.381  14.854  0.00  0.00    +0.000 N 
ATOM      8  C   UNL     1       5.499   4.545  15.929  0.00  0.00    +0.000 A 
ATOM      9  C   UNL     1       4.382   3.883  16.297  0.00  0.00    +0.000 A 
ATOM     10  C   UNL     1       3.703   4.409  17.403  0.00  0.00    +0.000 A 
ATOM     11 CL   UNL     1       2.066   3.837  17.271  0.00  0.00    +0.000 Cl
ENDROOT
BRANCH   1  12
ATOM     12  O   UNL     1       3.834   5.589  19.622  0.00  0.00    +0.000 OA
BRANCH  12  14
ATOM     13  C   UNL     1       1.569   5.047  20.753  0.00  0.00    +0.000 C 
ATOM     14  C   UNL     1       2.581   6.089  20.290  0.00  0.00    +0.000 C 
BRANCH  14  15
ATOM     15  C   UNL     1       1.852   7.486  20.071  0.00  0.00    +0.000 A 
ATOM     16  C   UNL     1       1.178   8.198  21.061  0.00  0.00    +0.000 A 
ATOM     17  C   UNL     1       0.669   9.491  20.793  0.00  0.00    +0.000 A 
ATOM     18  C   UNL     1       0.852  10.081  19.549  0.00  0.00    +0.000 A 
ATOM     19  C   UNL     1       1.536   9.337  18.611  0.00  0.00    +0.000 A 
ATOM     20  N   UNL     1       2.028   8.080  18.838  0.00  0.00    +0.000 NA
ENDBRANCH  14  15
ENDBRANCH  12  14
ENDBRANCH   1  12
BRANCH   7  21
ATOM     21  C   UNL     1       6.282   3.283  13.882  0.00  0.00    +0.000 C 
BRANCH  21  22
ATOM     22  C   UNL     1       5.891   3.798  12.498  0.00  0.00    +0.000 C 
BRANCH  22  23
ATOM     23  C   UNL     1       5.128   2.773  11.699  0.00  0.00    +0.000 C 
ATOM     24  O   UNL     1       4.031   2.947  11.199  0.00  0.00    +0.000 OA
BRANCH  23  25
ATOM     25  O   UNL     1       5.798   1.598  11.609  0.00  0.00    +0.000 OA
ATOM     26  H   UNL     1       5.474   0.903  12.216  0.00  0.00    +0.000 HD
ENDBRANCH  23  25
ENDBRANCH  22  23
ENDBRANCH  21  22
ENDBRANCH   7  21
TORSDOF 7
ENDMDL
MODEL 6
REMARK VINA RESULT:      -7.6      1.265      1.959
REMARK  Name = 
REMARK  8 active torsions:
REMARK  status: ('A' for Active; 'I' for Inactive)
REMARK    1  A    between atoms: C_1  and  C_2
REMARK    2  A    between atoms: C_2  and  O_3
REMARK    3  A    between atoms: C_2  and  C_20
REMARK    4  A    between atoms: O_3  and  C_4
REMARK    5  A    between atoms: N_10  and  C_11
REMARK    6  A    between atoms: C_11  and  C_12
REMARK    7  A    between atoms: C_12  and  C_13
REMARK    8  A    between atoms: C_13  and  O_15
REMARK                            x       y       z     vdW  Elec       q    Type
REMARK                         _______ _______ _______ _____ _____    ______ ____
ROOT
ATOM      1  C   UNL     1       1.945   6.964  20.163  0.00  0.00    +0.000 A 
ATOM      2  C   UNL     1       2.371   7.640  19.034  0.00  0.00    +0.000 A 
ATOM      3  C   UNL     1       3.315   7.011  18.215  0.00  0.00    +0.000 A 
ATOM      4  O   UNL     1       3.783   7.521  17.013  0.00  0.00    +0.000 OA
ATOM      5  C   UNL     1       4.739   6.569  16.622  0.00  0.00    +0.000 A 
ATOM      6  O   UNL     1       5.407   6.656  15.610  0.00  0.00    +0.000 OA
ATOM      7  N   UNL     1       4.845   5.552  17.541  0.00  0.00    +0.000 N 
ATOM      8  C   UNL     1       3.910   5.799  18.505  0.00  0.00    +0.000 A 
ATOM      9  C   UNL     1       3.484   5.044  19.539  0.00  0.00    +0.000 A 
ATOM     10  C   UNL     1       2.403   5.562  20.262  0.00  0.00    +0.000 A 
ATOM     11 CL   UNL     1       1.661   4.199  21.050  0.00  0.00    +0.000 Cl
ENDROOT
BRANCH   1  12
ATOM     12  O   UNL     1       1.203   7.591  21.144  0.00  0.00    +0.000 OA
BRANCH  12  14
ATOM     13  C   UNL     1      -0.515   9.024  22.446  0.00  0.00    +0.000 C 
ATOM     14  C   UNL     1       0.536   8.925  21.345  0.00  0.00    +0.000 C 
BRANCH  14  15
ATOM     15  C   UNL     1       0.290  10.065  20.263  0.00  0.00    +0.000 A 
ATOM     16  C   UNL     1      -0.795  10.114  19.389  0.00  0.00    +0.000 A 
ATOM     17  C   UNL     1      -0.987  11.236  18.549  0.00  0.00    +0.000 A 
ATOM     18  C   UNL     1      -0.114  12.315  18.595  0.00  0.00    +0.000 A 
ATOM     19  C   UNL     1       0.935  12.218  19.486  0.00  0.00    +0.000 A 
ATOM     20  N   UNL     1       1.152  11.140  20.302  0.00  0.00    +0.000 NA
ENDBRANCH  14  15
ENDBRANCH  12  14
ENDBRANCH   1  12
BRANCH   7  21
ATOM     21  C   UNL     1       5.771   4.415  17.495  0.00  0.00    +0.000 C 
BRANCH  21  22
ATOM     22  C   UNL     1       7.218   4.888  17.615  0.00  0.00    +0.000 C 
BRANCH  22  23
ATOM     23  C   UNL     1       7.457   5.692  18.866  0.00  0.00    +0.000 C 
ATOM     24  O   UNL     1       7.191   5.326  19.997  0.00  0.00    +0.000 OA
BRANCH  23  25
ATOM     25  O   UNL     1       7.993   6.907  18.595  0.00  0.00    +0.000 OA
ATOM     26  H   UNL     1       8.921   7.012  18.887  0.00  0.00    +0.000 HD
ENDBRANCH  23  25
ENDBRANCH  22  23
ENDBRANCH  21  22
ENDBRANCH   7  21
TORSDOF 7
ENDMDL
MODEL 7
REMARK VINA RESULT:      -7.6      1.264      1.969
REMARK  Name = 
REMARK  8 active torsions:
REMARK  status: ('A' for Active; 'I' for Inactive)
REMARK    1  A    between atoms: C_1  and  C_2
REMARK    2  A    between atoms: C_2  and  O_3
REMARK    3  A    between atoms: C_2  and  C_20
REMARK    4  A    between atoms: O_3  and  C_4
REMARK    5  A    between atoms: N_10  and  C_11
REMARK    6  A    between atoms: C_11  and  C_12
REMARK    7  A    between atoms: C_12  and  C_13
REMARK    8  A    between atoms: C_13  and  O_15
REMARK                            x       y       z     vdW  Elec       q    Type
REMARK                         _______ _______ _______ _____ _____    ______ ____
ROOT
ATOM      1  C   UNL     1       2.030   7.003  20.034  0.00  0.00    +0.000 A 
ATOM      2  C   UNL     1       2.456   7.615  18.870  0.00  0.00    +0.000 A 
ATOM      3  C   UNL     1       3.435   6.962  18.111  0.00  0.00    +0.000 A 
ATOM      4  O   UNL     1       3.910   7.405  16.885  0.00  0.00    +0.000 OA
ATOM      5  C   UNL     1       4.901   6.461  16.575  0.00  0.00    +0.000 A 
ATOM      6  O   UNL     1       5.585   6.501  15.571  0.00  0.00    +0.000 OA
ATOM      7  N   UNL     1       5.021   5.512  17.562  0.00  0.00    +0.000 N 
ATOM      8  C   UNL     1       4.061   5.793  18.492  0.00  0.00    +0.000 A 
ATOM      9  C   UNL     1       3.640   5.095  19.568  0.00  0.00    +0.000 A 
ATOM     10  C   UNL     1       2.529   5.626  20.236  0.00  0.00    +0.000 A 
ATOM     11 CL   UNL     1       1.816   4.296  21.101  0.00  0.00    +0.000 Cl
ENDROOT
BRANCH   1  12
ATOM     12  O   UNL     1       1.251   7.670  20.958  0.00  0.00    +0.000 OA
BRANCH  12  14
ATOM     13  C   UNL     1       0.621   9.342  22.831  0.00  0.00    +0.000 C 
ATOM     14  C   UNL     1       1.003   9.094  21.375  0.00  0.00    +0.000 C 
BRANCH  14  15
ATOM     15  C   UNL     1       0.489  10.299  20.472  0.00  0.00    +0.000 A 
ATOM     16  C   UNL     1       0.996  11.596  20.508  0.00  0.00    +0.000 A 
ATOM     17  C   UNL     1       0.553  12.565  19.576  0.00  0.00    +0.000 A 
ATOM     18  C   UNL     1      -0.374  12.234  18.596  0.00  0.00    +0.000 A 
ATOM     19  C   UNL     1      -0.833  10.934  18.599  0.00  0.00    +0.000 A 
ATOM     20  N   UNL     1      -0.432   9.980  19.496  0.00  0.00    +0.000 NA
ENDBRANCH  14  15
ENDBRANCH  12  14
ENDBRANCH   1  12
BRANCH   7  21
ATOM     21  C   UNL     1       5.982   4.404  17.609  0.00  0.00    +0.000 C 
BRANCH  21  22
ATOM     22  C   UNL     1       7.415   4.930  17.649  0.00  0.00    +0.000 C 
BRANCH  22  23
ATOM     23  C   UNL     1       7.641   5.896  18.783  0.00  0.00    +0.000 C 
ATOM     24  O   UNL     1       8.050   7.037  18.664  0.00  0.00    +0.000 OA
BRANCH  23  25
ATOM     25  O   UNL     1       7.355   5.341  19.987  0.00  0.00    +0.000 OA
ATOM     26  H   UNL     1       6.477   4.913  20.035  0.00  0.00    +0.000 HD
ENDBRANCH  23  25
ENDBRANCH  22  23
ENDBRANCH  21  22
ENDBRANCH   7  21
TORSDOF 7
ENDMDL
MODEL 8
REMARK VINA RESULT:      -7.5      2.915      4.722
REMARK  Name = 
REMARK  8 active torsions:
REMARK  status: ('A' for Active; 'I' for Inactive)
REMARK    1  A    between atoms: C_1  and  C_2
REMARK    2  A    between atoms: C_2  and  O_3
REMARK    3  A    between atoms: C_2  and  C_20
REMARK    4  A    between atoms: O_3  and  C_4
REMARK    5  A    between atoms: N_10  and  C_11
REMARK    6  A    between atoms: C_11  and  C_12
REMARK    7  A    between atoms: C_12  and  C_13
REMARK    8  A    between atoms: C_13  and  O_15
REMARK                            x       y       z     vdW  Elec       q    Type
REMARK                         _______ _______ _______ _____ _____    ______ ____
ROOT
ATOM      1  C   UNL     1       4.267   5.486  18.333  0.00  0.00    +0.000 A 
ATOM      2  C   UNL     1       5.364   6.151  17.818  0.00  0.00    +0.000 A 
ATOM      3  C   UNL     1       5.892   5.696  16.604  0.00  0.00    +0.000 A 
ATOM      4  O   UNL     1       6.937   6.300  15.921  0.00  0.00    +0.000 OA
ATOM      5  C   UNL     1       7.128   5.445  14.824  0.00  0.00    +0.000 A 
ATOM      6  O   UNL     1       7.981   5.612  13.975  0.00  0.00    +0.000 OA
ATOM      7  N   UNL     1       6.254   4.384  14.853  0.00  0.00    +0.000 N 
ATOM      8  C   UNL     1       5.442   4.576  15.934  0.00  0.00    +0.000 A 
ATOM      9  C   UNL     1       4.325   3.929  16.329  0.00  0.00    +0.000 A 
ATOM     10  C   UNL     1       3.663   4.484  17.431  0.00  0.00    +0.000 A 
ATOM     11 CL   UNL     1       2.020   3.919  17.329  0.00  0.00    +0.000 Cl
ENDROOT
BRANCH   1  12
ATOM     12  O   UNL     1       3.826   5.710  19.622  0.00  0.00    +0.000 OA
BRANCH  12  14
ATOM     13  C   UNL     1       1.558   5.214  20.767  0.00  0.00    +0.000 C 
ATOM     14  C   UNL     1       2.586   6.236  20.293  0.00  0.00    +0.000 C 
BRANCH  14  15
ATOM     15  C   UNL     1       1.880   7.644  20.069  0.00  0.00    +0.000 A 
ATOM     16  C   UNL     1       1.867   8.347  18.867  0.00  0.00    +0.000 A 
ATOM     17  C   UNL     1       1.105   9.533  18.739  0.00  0.00    +0.000 A 
ATOM     18  C   UNL     1       0.341  10.003  19.799  0.00  0.00    +0.000 A 
ATOM     19  C   UNL     1       0.382   9.262  20.961  0.00  0.00    +0.000 A 
ATOM     20  N   UNL     1       1.119   8.118  21.117  0.00  0.00    +0.000 NA
ENDBRANCH  14  15
ENDBRANCH  12  14
ENDBRANCH   1  12
BRANCH   7  21
ATOM     21  C   UNL     1       6.193   3.266  13.905  0.00  0.00    +0.000 C 
BRANCH  21  22
ATOM     22  C   UNL     1       5.856   3.762  12.500  0.00  0.00    +0.000 C 
BRANCH  22  23
ATOM     23  C   UNL     1       5.199   2.700  11.658  0.00  0.00    +0.000 C 
ATOM     24  O   UNL     1       5.682   1.614  11.395  0.00  0.00    +0.000 OA
BRANCH  23  25
ATOM     25  O   UNL     1       3.989   3.097  11.194  0.00  0.00    +0.000 OA
ATOM     26  H   UNL     1       3.249   2.504  11.436  0.00  0.00    +0.000 HD
ENDBRANCH  23  25
ENDBRANCH  22  23
ENDBRANCH  21  22
ENDBRANCH   7  21
TORSDOF 7
ENDMDL
MODEL 9
REMARK VINA RESULT:      -7.4      2.652      3.673
REMARK  Name = 
REMARK  8 active torsions:
REMARK  status: ('A' for Active; 'I' for Inactive)
REMARK    1  A    between atoms: C_1  and  C_2
REMARK    2  A    between atoms: C_2  and  O_3
REMARK    3  A    between atoms: C_2  and  C_20
REMARK    4  A    between atoms: O_3  and  C_4
REMARK    5  A    between atoms: N_10  and  C_11
REMARK    6  A    between atoms: C_11  and  C_12
REMARK    7  A    between atoms: C_12  and  C_13
REMARK    8  A    between atoms: C_13  and  O_15
REMARK                            x       y       z     vdW  Elec       q    Type
REMARK                         _______ _______ _______ _____ _____    ______ ____
ROOT
ATOM      1  C   UNL     1       1.378   8.310  19.817  0.00  0.00    +0.000 A 
ATOM      2  C   UNL     1       1.757   7.157  20.479  0.00  0.00    +0.000 A 
ATOM      3  C   UNL     1       2.637   6.288  19.823  0.00  0.00    +0.000 A 
ATOM      4  O   UNL     1       3.171   5.135  20.380  0.00  0.00    +0.000 OA
ATOM      5  C   UNL     1       3.922   4.596  19.323  0.00  0.00    +0.000 A 
ATOM      6  O   UNL     1       4.543   3.555  19.396  0.00  0.00    +0.000 OA
ATOM      7  N   UNL     1       3.836   5.376  18.195  0.00  0.00    +0.000 N 
ATOM      8  C   UNL     1       3.082   6.465  18.529  0.00  0.00    +0.000 A 
ATOM      9  C   UNL     1       2.824   7.604  17.853  0.00  0.00    +0.000 A 
ATOM     10  C   UNL     1       2.108   8.578  18.560  0.00  0.00    +0.000 A 
ATOM     11 CL   UNL     1       2.466  10.091  17.778  0.00  0.00    +0.000 Cl
ENDROOT
BRANCH   1  12
ATOM     12  O   UNL     1       0.345   9.101  20.278  0.00  0.00    +0.000 OA
BRANCH  12  14
ATOM     13  C   UNL     1      -0.444  11.478  20.933  0.00  0.00    +0.000 C 
ATOM     14  C   UNL     1      -0.331  10.384  19.876  0.00  0.00    +0.000 C 
BRANCH  14  15
ATOM     15  C   UNL     1      -1.458  10.587  18.771  0.00  0.00    +0.000 A 
ATOM     16  C   UNL     1      -2.485  11.525  18.842  0.00  0.00    +0.000 A 
ATOM     17  C   UNL     1      -3.364  11.709  17.748  0.00  0.00    +0.000 A 
ATOM     18  C   UNL     1      -3.204  10.977  16.579  0.00  0.00    +0.000 A 
ATOM     19  C   UNL     1      -2.164  10.071  16.559  0.00  0.00    +0.000 A 
ATOM     20  N   UNL     1      -1.307   9.864  17.607  0.00  0.00    +0.000 NA
ENDBRANCH  14  15
ENDBRANCH  12  14
ENDBRANCH   1  12
BRANCH   7  21
ATOM     21  C   UNL     1       4.442   5.104  16.886  0.00  0.00    +0.000 C 
BRANCH  21  22
ATOM     22  C   UNL     1       5.800   5.793  16.763  0.00  0.00    +0.000 C 
BRANCH  22  23
ATOM     23  C   UNL     1       6.946   4.816  16.824  0.00  0.00    +0.000 C 
ATOM     24  O   UNL     1       7.741   4.610  15.924  0.00  0.00    +0.000 OA
BRANCH  23  25
ATOM     25  O   UNL     1       6.989   4.156  18.007  0.00  0.00    +0.000 OA
ATOM     26  H   UNL     1       6.133   3.775  18.287  0.00  0.00    +0.000 HD
ENDBRANCH  23  25
ENDBRANCH  22  23
ENDBRANCH  21  22
ENDBRANCH   7  21
TORSDOF 7
ENDMDL
