MODEL 1
REMARK VINA RESULT:      -9.7      0.000      0.000
REMARK  Name = 
REMARK  7 active torsions:
REMARK  status: ('A' for Active; 'I' for Inactive)
REMARK    1  A    between atoms: C_1  and  O_2
REMARK    2  A    between atoms: O_2  and  C_3
REMARK    3  A    between atoms: C_6  and  C_7
REMARK    4  A    between atoms: C_12  and  O_13
REMARK    5  A    between atoms: C_12  and  C_14
REMARK    6  A    between atoms: C_18  and  C_19
REMARK    7  A    between atoms: C_19  and  C_21
REMARK                            x       y       z     vdW  Elec       q    Type
REMARK                         _______ _______ _______ _____ _____    ______ ____
ROOT
ATOM      1  C   UNL     1       4.078   6.544  17.315  0.00  0.00    +0.000 C 
ATOM      2  N   UNL     1       5.213   7.414  17.038  0.00  0.00    +0.000 N 
ATOM      3  C   UNL     1       6.515   7.146  17.256  0.00  0.00    +0.000 C 
ATOM      4  O   UNL     1       7.401   7.956  17.015  0.00  0.00    +0.000 OA
ATOM      5  N   UNL     1       6.804   5.939  17.806  0.00  0.00    +0.000 N 
ATOM      6  C   UNL     1       5.878   4.825  17.658  0.00  0.00    +0.000 C 
ATOM      7  C   UNL     1       4.483   5.288  18.107  0.00  0.00    +0.000 C 
ATOM      8  H   UNL     1       5.036   8.315  16.609  0.00  0.00    +0.000 HD
ATOM      9  H   UNL     1       7.796   5.729  17.745  0.00  0.00    +0.000 HD
ENDROOT
BRANCH   1  13
ATOM     10  C   UNL     1       1.390   8.929  19.725  0.00  0.00    +0.000 A 
ATOM     11  C   UNL     1       1.923   7.744  20.230  0.00  0.00    +0.000 A 
ATOM     12  C   UNL     1       2.731   6.935  19.427  0.00  0.00    +0.000 A 
ATOM     13  C   UNL     1       3.010   7.299  18.102  0.00  0.00    +0.000 A 
ATOM     14  C   UNL     1       2.390   8.446  17.578  0.00  0.00    +0.000 A 
ATOM     15  C   UNL     1       1.580   9.250  18.383  0.00  0.00    +0.000 A 
BRANCH  10  17
ATOM     16  C   UNL     1       0.968   9.423  21.981  0.00  0.00    +0.000 C 
ATOM     17  O   UNL     1       0.682   9.695  20.610  0.00  0.00    +0.000 OA
ENDBRANCH  10  17
ENDBRANCH   1  13
BRANCH   6  18
ATOM     18  C   UNL     1       5.913   4.177  16.220  0.00  0.00    +0.000 C 
ATOM     19  F   UNL     1       7.167   4.249  15.690  0.00  0.00    +0.000 F 
ATOM     20  F   UNL     1       5.593   2.863  16.267  0.00  0.00    +0.000 F 
ATOM     21  F   UNL     1       5.086   4.766  15.334  0.00  0.00    +0.000 F 
ENDBRANCH   6  18
BRANCH   6  22
ATOM     22  O   UNL     1       6.368   3.923  18.657  0.00  0.00    +0.000 OA
ATOM     23  H   UNL     1       6.265   4.388  19.504  0.00  0.00    +0.000 HD
ENDBRANCH   6  22
BRANCH   7  24
ATOM     24  C   UNL     1       3.453   4.171  17.963  0.00  0.00    +0.000 C 
ATOM     25  O   UNL     1       3.175   3.688  16.866  0.00  0.00    +0.000 OA
BRANCH  24  26
ATOM     26  C   UNL     1       2.771   3.607  19.166  0.00  0.00    +0.000 A 
ATOM     27  C   UNL     1       3.472   3.042  20.239  0.00  0.00    +0.000 A 
ATOM     28  C   UNL     1       2.772   2.556  21.347  0.00  0.00    +0.000 A 
ATOM     29  C   UNL     1       1.385   2.646  21.385  0.00  0.00    +0.000 A 
ATOM     30  F   UNL     1       0.725   2.192  22.458  0.00  0.00    +0.000 F 
ATOM     31  C   UNL     1       0.678   3.213  20.332  0.00  0.00    +0.000 A 
ATOM     32  C   UNL     1       1.371   3.697  19.222  0.00  0.00    +0.000 A 
ENDBRANCH  24  26
ENDBRANCH   7  24
TORSDOF 6
ENDMDL
MODEL 2
REMARK VINA RESULT:      -9.6      2.737      5.686
REMARK  Name = 
REMARK  7 active torsions:
REMARK  status: ('A' for Active; 'I' for Inactive)
REMARK    1  A    between atoms: C_1  and  O_2
REMARK    2  A    between atoms: O_2  and  C_3
REMARK    3  A    between atoms: C_6  and  C_7
REMARK    4  A    between atoms: C_12  and  O_13
REMARK    5  A    between atoms: C_12  and  C_14
REMARK    6  A    between atoms: C_18  and  C_19
REMARK    7  A    between atoms: C_19  and  C_21
REMARK                            x       y       z     vdW  Elec       q    Type
REMARK                         _______ _______ _______ _____ _____    ______ ____
ROOT
ATOM      1  C   UNL     1       4.390   3.833  18.471  0.00  0.00    +0.000 C 
ATOM      2  N   UNL     1       5.023   2.705  19.141  0.00  0.00    +0.000 N 
ATOM      3  C   UNL     1       4.690   2.176  20.333  0.00  0.00    +0.000 C 
ATOM      4  O   UNL     1       5.303   1.239  20.830  0.00  0.00    +0.000 OA
ATOM      5  N   UNL     1       3.659   2.762  20.993  0.00  0.00    +0.000 N 
ATOM      6  C   UNL     1       2.652   3.515  20.258  0.00  0.00    +0.000 C 
ATOM      7  C   UNL     1       3.366   4.547  19.371  0.00  0.00    +0.000 C 
ATOM      8  H   UNL     1       5.784   2.230  18.668  0.00  0.00    +0.000 HD
ATOM      9  H   UNL     1       3.335   2.189  21.766  0.00  0.00    +0.000 HD
ENDROOT
BRANCH   1  13
ATOM     10  C   UNL     1       7.114   7.018  17.395  0.00  0.00    +0.000 A 
ATOM     11  C   UNL     1       6.083   6.653  16.531  0.00  0.00    +0.000 A 
ATOM     12  C   UNL     1       5.248   5.576  16.842  0.00  0.00    +0.000 A 
ATOM     13  C   UNL     1       5.442   4.844  18.023  0.00  0.00    +0.000 A 
ATOM     14  C   UNL     1       6.543   5.163  18.836  0.00  0.00    +0.000 A 
ATOM     15  C   UNL     1       7.375   6.238  18.520  0.00  0.00    +0.000 A 
BRANCH  10  17
ATOM     16  C   UNL     1       8.259   8.922  18.154  0.00  0.00    +0.000 C 
ATOM     17  O   UNL     1       7.823   8.134  17.047  0.00  0.00    +0.000 OA
ENDBRANCH  10  17
ENDBRANCH   1  13
BRANCH   6  18
ATOM     18  C   UNL     1       1.632   2.593  19.484  0.00  0.00    +0.000 C 
ATOM     19  F   UNL     1       1.512   1.384  20.100  0.00  0.00    +0.000 F 
ATOM     20  F   UNL     1       0.393   3.138  19.469  0.00  0.00    +0.000 F 
ATOM     21  F   UNL     1       1.981   2.342  18.206  0.00  0.00    +0.000 F 
ENDBRANCH   6  18
BRANCH   6  22
ATOM     22  O   UNL     1       2.015   4.235  21.319  0.00  0.00    +0.000 OA
ATOM     23  H   UNL     1       1.792   3.570  21.991  0.00  0.00    +0.000 HD
ENDBRANCH   6  22
BRANCH   7  24
ATOM     24  C   UNL     1       2.369   5.365  18.556  0.00  0.00    +0.000 C 
ATOM     25  O   UNL     1       1.793   4.891  17.577  0.00  0.00    +0.000 OA
BRANCH  24  26
ATOM     26  C   UNL     1       2.037   6.768  18.947  0.00  0.00    +0.000 A 
ATOM     27  C   UNL     1       1.695   7.129  20.256  0.00  0.00    +0.000 A 
ATOM     28  C   UNL     1       1.423   8.466  20.560  0.00  0.00    +0.000 A 
ATOM     29  C   UNL     1       1.502   9.433  19.564  0.00  0.00    +0.000 A 
ATOM     30  F   UNL     1       1.254  10.713  19.869  0.00  0.00    +0.000 F 
ATOM     31  C   UNL     1       1.849   9.091  18.264  0.00  0.00    +0.000 A 
ATOM     32  C   UNL     1       2.120   7.757  17.954  0.00  0.00    +0.000 A 
ENDBRANCH  24  26
ENDBRANCH   7  24
TORSDOF 6
ENDMDL
MODEL 3
REMARK VINA RESULT:      -9.3      2.886      6.250
REMARK  Name = 
REMARK  7 active torsions:
REMARK  status: ('A' for Active; 'I' for Inactive)
REMARK    1  A    between atoms: C_1  and  O_2
REMARK    2  A    between atoms: O_2  and  C_3
REMARK    3  A    between atoms: C_6  and  C_7
REMARK    4  A    between atoms: C_12  and  O_13
REMARK    5  A    between atoms: C_12  and  C_14
REMARK    6  A    between atoms: C_18  and  C_19
REMARK    7  A    between atoms: C_19  and  C_21
REMARK                            x       y       z     vdW  Elec       q    Type
REMARK                         _______ _______ _______ _____ _____    ______ ____
ROOT
ATOM      1  C   UNL     1       3.947   3.472  18.099  0.00  0.00    +0.000 C 
ATOM      2  N   UNL     1       4.629   2.409  18.827  0.00  0.00    +0.000 N 
ATOM      3  C   UNL     1       4.620   2.199  20.157  0.00  0.00    +0.000 C 
ATOM      4  O   UNL     1       5.250   1.290  20.682  0.00  0.00    +0.000 OA
ATOM      5  N   UNL     1       3.908   3.078  20.907  0.00  0.00    +0.000 N 
ATOM      6  C   UNL     1       2.813   3.831  20.312  0.00  0.00    +0.000 C 
ATOM      7  C   UNL     1       3.330   4.521  19.040  0.00  0.00    +0.000 C 
ATOM      8  H   UNL     1       5.154   1.723  18.297  0.00  0.00    +0.000 HD
ATOM      9  H   UNL     1       3.776   2.739  21.855  0.00  0.00    +0.000 HD
ENDROOT
BRANCH   1  13
ATOM     10  C   UNL     1       6.893   5.049  15.350  0.00  0.00    +0.000 A 
ATOM     11  C   UNL     1       7.147   5.034  16.721  0.00  0.00    +0.000 A 
ATOM     12  C   UNL     1       6.168   4.595  17.616  0.00  0.00    +0.000 A 
ATOM     13  C   UNL     1       4.916   4.171  17.148  0.00  0.00    +0.000 A 
ATOM     14  C   UNL     1       4.641   4.280  15.775  0.00  0.00    +0.000 A 
ATOM     15  C   UNL     1       5.622   4.723  14.885  0.00  0.00    +0.000 A 
BRANCH  10  17
ATOM     16  C   UNL     1       7.744   5.134  13.164  0.00  0.00    +0.000 C 
ATOM     17  O   UNL     1       7.939   5.415  14.549  0.00  0.00    +0.000 OA
ENDBRANCH  10  17
ENDBRANCH   1  13
BRANCH   6  18
ATOM     18  C   UNL     1       1.512   2.965  20.095  0.00  0.00    +0.000 C 
ATOM     19  F   UNL     1       1.378   2.040  21.087  0.00  0.00    +0.000 F 
ATOM     20  F   UNL     1       0.399   3.734  20.137  0.00  0.00    +0.000 F 
ATOM     21  F   UNL     1       1.494   2.286  18.930  0.00  0.00    +0.000 F 
ENDBRANCH   6  18
BRANCH   6  22
ATOM     22  O   UNL     1       2.611   4.851  21.297  0.00  0.00    +0.000 OA
ATOM     23  H   UNL     1       3.087   4.550  22.089  0.00  0.00    +0.000 HD
ENDBRANCH   6  22
BRANCH   7  24
ATOM     24  C   UNL     1       2.226   5.319  18.352  0.00  0.00    +0.000 C 
ATOM     25  O   UNL     1       1.437   4.787  17.572  0.00  0.00    +0.000 OA
BRANCH  24  26
ATOM     26  C   UNL     1       2.053   6.776  18.634  0.00  0.00    +0.000 A 
ATOM     27  C   UNL     1       2.230   7.762  17.656  0.00  0.00    +0.000 A 
ATOM     28  C   UNL     1       2.027   9.107  17.981  0.00  0.00    +0.000 A 
ATOM     29  C   UNL     1       1.640   9.457  19.269  0.00  0.00    +0.000 A 
ATOM     30  F   UNL     1       1.432  10.747  19.567  0.00  0.00    +0.000 F 
ATOM     31  C   UNL     1       1.452   8.489  20.246  0.00  0.00    +0.000 A 
ATOM     32  C   UNL     1       1.656   7.145  19.929  0.00  0.00    +0.000 A 
ENDBRANCH  24  26
ENDBRANCH   7  24
TORSDOF 6
ENDMDL
MODEL 4
REMARK VINA RESULT:      -9.3      0.349      1.315
REMARK  Name = 
REMARK  7 active torsions:
REMARK  status: ('A' for Active; 'I' for Inactive)
REMARK    1  A    between atoms: C_1  and  O_2
REMARK    2  A    between atoms: O_2  and  C_3
REMARK    3  A    between atoms: C_6  and  C_7
REMARK    4  A    between atoms: C_12  and  O_13
REMARK    5  A    between atoms: C_12  and  C_14
REMARK    6  A    between atoms: C_18  and  C_19
REMARK    7  A    between atoms: C_19  and  C_21
REMARK                            x       y       z     vdW  Elec       q    Type
REMARK                         _______ _______ _______ _____ _____    ______ ____
ROOT
ATOM      1  C   UNL     1       4.248   6.648  17.333  0.00  0.00    +0.000 C 
ATOM      2  N   UNL     1       5.462   7.407  17.065  0.00  0.00    +0.000 N 
ATOM      3  C   UNL     1       6.732   7.003  17.255  0.00  0.00    +0.000 C 
ATOM      4  O   UNL     1       7.692   7.728  17.024  0.00  0.00    +0.000 OA
ATOM      5  N   UNL     1       6.905   5.757  17.763  0.00  0.00    +0.000 N 
ATOM      6  C   UNL     1       5.870   4.747  17.596  0.00  0.00    +0.000 C 
ATOM      7  C   UNL     1       4.534   5.333  18.079  0.00  0.00    +0.000 C 
ATOM      8  H   UNL     1       5.371   8.335  16.666  0.00  0.00    +0.000 HD
ATOM      9  H   UNL     1       7.869   5.450  17.680  0.00  0.00    +0.000 HD
ENDROOT
BRANCH   1  13
ATOM     10  C   UNL     1       1.148   8.758  19.492  0.00  0.00    +0.000 A 
ATOM     11  C   UNL     1       1.555   9.201  18.234  0.00  0.00    +0.000 A 
ATOM     12  C   UNL     1       2.607   8.566  17.568  0.00  0.00    +0.000 A 
ATOM     13  C   UNL     1       3.271   7.481  18.159  0.00  0.00    +0.000 A 
ATOM     14  C   UNL     1       2.913   7.107  19.465  0.00  0.00    +0.000 A 
ATOM     15  C   UNL     1       1.864   7.747  20.128  0.00  0.00    +0.000 A 
BRANCH  10  17
ATOM     16  C   UNL     1      -0.104   9.189  21.430  0.00  0.00    +0.000 C 
ATOM     17  O   UNL     1       0.059   9.388  20.026  0.00  0.00    +0.000 OA
ENDBRANCH  10  17
ENDBRANCH   1  13
BRANCH   6  18
ATOM     18  C   UNL     1       5.822   4.145  16.138  0.00  0.00    +0.000 C 
ATOM     19  F   UNL     1       7.060   4.162  15.569  0.00  0.00    +0.000 F 
ATOM     20  F   UNL     1       5.428   2.849  16.156  0.00  0.00    +0.000 F 
ATOM     21  F   UNL     1       5.002   4.807  15.298  0.00  0.00    +0.000 F 
ENDBRANCH   6  18
BRANCH   6  22
ATOM     22  O   UNL     1       6.278   3.769  18.559  0.00  0.00    +0.000 OA
ATOM     23  H   UNL     1       7.202   3.559  18.345  0.00  0.00    +0.000 HD
ENDBRANCH   6  22
BRANCH   7  24
ATOM     24  C   UNL     1       3.395   4.330  17.918  0.00  0.00    +0.000 C 
ATOM     25  O   UNL     1       3.058   3.910  16.811  0.00  0.00    +0.000 OA
BRANCH  24  26
ATOM     26  C   UNL     1       2.672   3.803  19.113  0.00  0.00    +0.000 A 
ATOM     27  C   UNL     1       1.276   3.818  19.222  0.00  0.00    +0.000 A 
ATOM     28  C   UNL     1       0.662   3.283  20.359  0.00  0.00    +0.000 A 
ATOM     29  C   UNL     1       1.438   2.730  21.370  0.00  0.00    +0.000 A 
ATOM     30  F   UNL     1       0.839   2.206  22.448  0.00  0.00    +0.000 F 
ATOM     31  C   UNL     1       2.822   2.700  21.272  0.00  0.00    +0.000 A 
ATOM     32  C   UNL     1       3.442   3.234  20.141  0.00  0.00    +0.000 A 
ENDBRANCH  24  26
ENDBRANCH   7  24
TORSDOF 6
ENDMDL
MODEL 5
REMARK VINA RESULT:      -9.2      0.552      1.335
REMARK  Name = 
REMARK  7 active torsions:
REMARK  status: ('A' for Active; 'I' for Inactive)
REMARK    1  A    between atoms: C_1  and  O_2
REMARK    2  A    between atoms: O_2  and  C_3
REMARK    3  A    between atoms: C_6  and  C_7
REMARK    4  A    between atoms: C_12  and  O_13
REMARK    5  A    between atoms: C_12  and  C_14
REMARK    6  A    between atoms: C_18  and  C_19
REMARK    7  A    between atoms: C_19  and  C_21
REMARK                            x       y       z     vdW  Elec       q    Type
REMARK                         _______ _______ _______ _____ _____    ______ ____
ROOT
ATOM      1  C   UNL     1       4.214   6.660  17.340  0.00  0.00    +0.000 C 
ATOM      2  N   UNL     1       5.428   7.414  17.056  0.00  0.00    +0.000 N 
ATOM      3  C   UNL     1       6.698   7.013  17.249  0.00  0.00    +0.000 C 
ATOM      4  O   UNL     1       7.658   7.734  17.003  0.00  0.00    +0.000 OA
ATOM      5  N   UNL     1       6.873   5.776  17.777  0.00  0.00    +0.000 N 
ATOM      6  C   UNL     1       5.837   4.764  17.630  0.00  0.00    +0.000 C 
ATOM      7  C   UNL     1       4.503   5.358  18.108  0.00  0.00    +0.000 C 
ATOM      8  H   UNL     1       5.336   8.335  16.642  0.00  0.00    +0.000 HD
ATOM      9  H   UNL     1       7.837   5.467  17.696  0.00  0.00    +0.000 HD
ENDROOT
BRANCH   1  13
ATOM     10  C   UNL     1       1.122   8.807  19.472  0.00  0.00    +0.000 A 
ATOM     11  C   UNL     1       1.528   9.230  18.207  0.00  0.00    +0.000 A 
ATOM     12  C   UNL     1       2.577   8.584  17.549  0.00  0.00    +0.000 A 
ATOM     13  C   UNL     1       3.241   7.507  18.155  0.00  0.00    +0.000 A 
ATOM     14  C   UNL     1       2.884   7.153  19.467  0.00  0.00    +0.000 A 
ATOM     15  C   UNL     1       1.837   7.804  20.122  0.00  0.00    +0.000 A 
BRANCH  10  17
ATOM     16  C   UNL     1      -0.581  10.384  19.116  0.00  0.00    +0.000 C 
ATOM     17  O   UNL     1       0.034   9.447  19.999  0.00  0.00    +0.000 OA
ENDBRANCH  10  17
ENDBRANCH   1  13
BRANCH   6  18
ATOM     18  C   UNL     1       5.784   4.137  16.183  0.00  0.00    +0.000 C 
ATOM     19  F   UNL     1       5.286   2.869  16.225  0.00  0.00    +0.000 F 
ATOM     20  F   UNL     1       4.962   4.844  15.373  0.00  0.00    +0.000 F 
ATOM     21  F   UNL     1       6.985   4.059  15.576  0.00  0.00    +0.000 F 
ENDBRANCH   6  18
BRANCH   6  22
ATOM     22  O   UNL     1       6.249   3.802  18.609  0.00  0.00    +0.000 OA
ATOM     23  H   UNL     1       6.649   4.315  19.330  0.00  0.00    +0.000 HD
ENDBRANCH   6  22
BRANCH   7  24
ATOM     24  C   UNL     1       3.363   4.352  17.967  0.00  0.00    +0.000 C 
ATOM     25  O   UNL     1       2.955   3.992  16.863  0.00  0.00    +0.000 OA
BRANCH  24  26
ATOM     26  C   UNL     1       2.728   3.750  19.177  0.00  0.00    +0.000 A 
ATOM     27  C   UNL     1       3.466   3.123  20.188  0.00  0.00    +0.000 A 
ATOM     28  C   UNL     1       2.810   2.603  21.307  0.00  0.00    +0.000 A 
ATOM     29  C   UNL     1       1.429   2.720  21.417  0.00  0.00    +0.000 A 
ATOM     30  F   UNL     1       0.811   2.233  22.501  0.00  0.00    +0.000 F 
ATOM     31  C   UNL     1       0.685   3.347  20.427  0.00  0.00    +0.000 A 
ATOM     32  C   UNL     1       1.334   3.866  19.305  0.00  0.00    +0.000 A 
ENDBRANCH  24  26
ENDBRANCH   7  24
TORSDOF 6
ENDMDL
MODEL 6
REMARK VINA RESULT:      -9.2      2.803      5.579
REMARK  Name = 
REMARK  7 active torsions:
REMARK  status: ('A' for Active; 'I' for Inactive)
REMARK    1  A    between atoms: C_1  and  O_2
REMARK    2  A    between atoms: O_2  and  C_3
REMARK    3  A    between atoms: C_6  and  C_7
REMARK    4  A    between atoms: C_12  and  O_13
REMARK    5  A    between atoms: C_12  and  C_14
REMARK    6  A    between atoms: C_18  and  C_19
REMARK    7  A    between atoms: C_19  and  C_21
REMARK                            x       y       z     vdW  Elec       q    Type
REMARK                         _______ _______ _______ _____ _____    ______ ____
ROOT
ATOM      1  C   UNL     1       4.420   4.117  18.558  0.00  0.00    +0.000 C 
ATOM      2  N   UNL     1       5.103   2.970  19.142  0.00  0.00    +0.000 N 
ATOM      3  C   UNL     1       4.704   2.239  20.200  0.00  0.00    +0.000 C 
ATOM      4  O   UNL     1       5.364   1.304  20.638  0.00  0.00    +0.000 OA
ATOM      5  N   UNL     1       3.546   2.615  20.799  0.00  0.00    +0.000 N 
ATOM      6  C   UNL     1       2.546   3.365  20.053  0.00  0.00    +0.000 C 
ATOM      7  C   UNL     1       3.228   4.584  19.412  0.00  0.00    +0.000 C 
ATOM      8  H   UNL     1       5.961   2.648  18.709  0.00  0.00    +0.000 HD
ATOM      9  H   UNL     1       3.209   1.904  21.441  0.00  0.00    +0.000 HD
ENDROOT
BRANCH   1  13
ATOM     10  C   UNL     1       7.397   7.159  17.778  0.00  0.00    +0.000 A 
ATOM     11  C   UNL     1       7.589   6.234  18.803  0.00  0.00    +0.000 A 
ATOM     12  C   UNL     1       6.596   5.298  19.106  0.00  0.00    +0.000 A 
ATOM     13  C   UNL     1       5.391   5.283  18.387  0.00  0.00    +0.000 A 
ATOM     14  C   UNL     1       5.174   6.280  17.422  0.00  0.00    +0.000 A 
ATOM     15  C   UNL     1       6.167   7.215  17.126  0.00  0.00    +0.000 A 
BRANCH  10  17
ATOM     16  C   UNL     1       8.379   9.264  18.116  0.00  0.00    +0.000 C 
ATOM     17  O   UNL     1       8.456   7.978  17.502  0.00  0.00    +0.000 OA
ENDBRANCH  10  17
ENDBRANCH   1  13
BRANCH   6  18
ATOM     18  C   UNL     1       1.731   2.472  19.039  0.00  0.00    +0.000 C 
ATOM     19  F   UNL     1       1.685   1.179  19.466  0.00  0.00    +0.000 F 
ATOM     20  F   UNL     1       0.446   2.888  18.944  0.00  0.00    +0.000 F 
ATOM     21  F   UNL     1       2.245   2.450  17.794  0.00  0.00    +0.000 F 
ENDBRANCH   6  18
BRANCH   6  22
ATOM     22  O   UNL     1       1.717   3.852  21.115  0.00  0.00    +0.000 OA
ATOM     23  H   UNL     1       0.840   3.992  20.720  0.00  0.00    +0.000 HD
ENDBRANCH   6  22
BRANCH   7  24
ATOM     24  C   UNL     1       2.238   5.411  18.597  0.00  0.00    +0.000 C 
ATOM     25  O   UNL     1       1.647   4.937  17.627  0.00  0.00    +0.000 OA
BRANCH  24  26
ATOM     26  C   UNL     1       1.934   6.823  18.978  0.00  0.00    +0.000 A 
ATOM     27  C   UNL     1       1.891   7.867  18.045  0.00  0.00    +0.000 A 
ATOM     28  C   UNL     1       1.574   9.162  18.466  0.00  0.00    +0.000 A 
ATOM     29  C   UNL     1       1.292   9.406  19.805  0.00  0.00    +0.000 A 
ATOM     30  F   UNL     1       0.974  10.647  20.195  0.00  0.00    +0.000 F 
ATOM     31  C   UNL     1       1.321   8.379  20.739  0.00  0.00    +0.000 A 
ATOM     32  C   UNL     1       1.640   7.084  20.326  0.00  0.00    +0.000 A 
ENDBRANCH  24  26
ENDBRANCH   7  24
TORSDOF 6
ENDMDL
MODEL 7
REMARK VINA RESULT:      -8.7      2.423      5.226
REMARK  Name = 
REMARK  7 active torsions:
REMARK  status: ('A' for Active; 'I' for Inactive)
REMARK    1  A    between atoms: C_1  and  O_2
REMARK    2  A    between atoms: O_2  and  C_3
REMARK    3  A    between atoms: C_6  and  C_7
REMARK    4  A    between atoms: C_12  and  O_13
REMARK    5  A    between atoms: C_12  and  C_14
REMARK    6  A    between atoms: C_18  and  C_19
REMARK    7  A    between atoms: C_19  and  C_21
REMARK                            x       y       z     vdW  Elec       q    Type
REMARK                         _______ _______ _______ _____ _____    ______ ____
ROOT
ATOM      1  C   UNL     1       2.598   5.305  19.907  0.00  0.00    +0.000 C 
ATOM      2  N   UNL     1       1.393   4.545  20.208  0.00  0.00    +0.000 N 
ATOM      3  C   UNL     1       0.984   3.403  19.621  0.00  0.00    +0.000 C 
ATOM      4  O   UNL     1      -0.065   2.849  19.924  0.00  0.00    +0.000 OA
ATOM      5  N   UNL     1       1.773   2.910  18.634  0.00  0.00    +0.000 N 
ATOM      6  C   UNL     1       3.188   3.251  18.587  0.00  0.00    +0.000 C 
ATOM      7  C   UNL     1       3.324   4.780  18.657  0.00  0.00    +0.000 C 
ATOM      8  H   UNL     1       0.789   4.873  20.953  0.00  0.00    +0.000 HD
ATOM      9  H   UNL     1       1.518   1.957  18.391  0.00  0.00    +0.000 HD
ENDROOT
BRANCH   1  13
ATOM     10  C   UNL     1       1.236   9.341  19.148  0.00  0.00    +0.000 A 
ATOM     11  C   UNL     1       1.935   8.639  18.168  0.00  0.00    +0.000 A 
ATOM     12  C   UNL     1       2.441   7.364  18.437  0.00  0.00    +0.000 A 
ATOM     13  C   UNL     1       2.258   6.779  19.698  0.00  0.00    +0.000 A 
ATOM     14  C   UNL     1       1.635   7.536  20.704  0.00  0.00    +0.000 A 
ATOM     15  C   UNL     1       1.134   8.810  20.431  0.00  0.00    +0.000 A 
BRANCH  10  17
ATOM     16  C   UNL     1      -0.714  10.616  18.855  0.00  0.00    +0.000 C 
ATOM     17  O   UNL     1       0.708  10.543  18.765  0.00  0.00    +0.000 OA
ENDBRANCH  10  17
ENDBRANCH   1  13
BRANCH   6  18
ATOM     18  C   UNL     1       4.048   2.476  19.659  0.00  0.00    +0.000 C 
ATOM     19  F   UNL     1       4.089   1.144  19.373  0.00  0.00    +0.000 F 
ATOM     20  F   UNL     1       5.332   2.905  19.662  0.00  0.00    +0.000 F 
ATOM     21  F   UNL     1       3.580   2.585  20.919  0.00  0.00    +0.000 F 
ENDBRANCH   6  18
BRANCH   6  22
ATOM     22  O   UNL     1       3.525   2.855  17.252  0.00  0.00    +0.000 OA
ATOM     23  H   UNL     1       3.146   3.536  16.673  0.00  0.00    +0.000 HD
ENDBRANCH   6  22
BRANCH   7  24
ATOM     24  C   UNL     1       4.788   5.210  18.629  0.00  0.00    +0.000 C 
ATOM     25  O   UNL     1       5.372   5.576  19.648  0.00  0.00    +0.000 OA
BRANCH  24  26
ATOM     26  C   UNL     1       5.568   5.169  17.355  0.00  0.00    +0.000 A 
ATOM     27  C   UNL     1       6.836   4.584  17.262  0.00  0.00    +0.000 A 
ATOM     28  C   UNL     1       7.500   4.556  16.032  0.00  0.00    +0.000 A 
ATOM     29  C   UNL     1       6.894   5.100  14.905  0.00  0.00    +0.000 A 
ATOM     30  F   UNL     1       7.532   5.055  13.728  0.00  0.00    +0.000 F 
ATOM     31  C   UNL     1       5.633   5.676  14.981  0.00  0.00    +0.000 A 
ATOM     32  C   UNL     1       4.967   5.709  16.207  0.00  0.00    +0.000 A 
ENDBRANCH  24  26
ENDBRANCH   7  24
TORSDOF 6
ENDMDL
MODEL 8
REMARK VINA RESULT:      -8.6      2.934      6.294
REMARK  Name = 
REMARK  7 active torsions:
REMARK  status: ('A' for Active; 'I' for Inactive)
REMARK    1  A    between atoms: C_1  and  O_2
REMARK    2  A    between atoms: O_2  and  C_3
REMARK    3  A    between atoms: C_6  and  C_7
REMARK    4  A    between atoms: C_12  and  O_13
REMARK    5  A    between atoms: C_12  and  C_14
REMARK    6  A    between atoms: C_18  and  C_19
REMARK    7  A    between atoms: C_19  and  C_21
REMARK                            x       y       z     vdW  Elec       q    Type
REMARK                         _______ _______ _______ _____ _____    ______ ____
ROOT
ATOM      1  C   UNL     1       4.072   3.201  18.456  0.00  0.00    +0.000 C 
ATOM      2  N   UNL     1       4.637   2.197  19.348  0.00  0.00    +0.000 N 
ATOM      3  C   UNL     1       4.511   2.137  20.688  0.00  0.00    +0.000 C 
ATOM      4  O   UNL     1       5.049   1.265  21.359  0.00  0.00    +0.000 OA
ATOM      5  N   UNL     1       3.790   3.124  21.277  0.00  0.00    +0.000 N 
ATOM      6  C   UNL     1       2.787   3.854  20.514  0.00  0.00    +0.000 C 
ATOM      7  C   UNL     1       3.439   4.375  19.223  0.00  0.00    +0.000 C 
ATOM      8  H   UNL     1       5.165   1.433  18.941  0.00  0.00    +0.000 HD
ATOM      9  H   UNL     1       3.566   2.899  22.241  0.00  0.00    +0.000 HD
ENDROOT
BRANCH   1  13
ATOM     10  C   UNL     1       6.837   5.087  15.713  0.00  0.00    +0.000 A 
ATOM     11  C   UNL     1       5.926   4.138  15.252  0.00  0.00    +0.000 A 
ATOM     12  C   UNL     1       5.084   3.473  16.147  0.00  0.00    +0.000 A 
ATOM     13  C   UNL     1       5.149   3.746  17.521  0.00  0.00    +0.000 A 
ATOM     14  C   UNL     1       6.136   4.635  17.982  0.00  0.00    +0.000 A 
ATOM     15  C   UNL     1       6.977   5.294  17.083  0.00  0.00    +0.000 A 
BRANCH  10  17
ATOM     16  C   UNL     1       7.538   5.115  13.473  0.00  0.00    +0.000 C 
ATOM     17  O   UNL     1       7.558   5.743  14.754  0.00  0.00    +0.000 OA
ENDBRANCH  10  17
ENDBRANCH   1  13
BRANCH   6  18
ATOM     18  C   UNL     1       1.464   3.027  20.282  0.00  0.00    +0.000 C 
ATOM     19  F   UNL     1       1.186   2.248  21.365  0.00  0.00    +0.000 F 
ATOM     20  F   UNL     1       0.397   3.845  20.117  0.00  0.00    +0.000 F 
ATOM     21  F   UNL     1       1.512   2.203  19.216  0.00  0.00    +0.000 F 
ENDBRANCH   6  18
BRANCH   6  22
ATOM     22  O   UNL     1       2.563   4.985  21.363  0.00  0.00    +0.000 OA
ATOM     23  H   UNL     1       2.927   4.740  22.230  0.00  0.00    +0.000 HD
ENDBRANCH   6  22
BRANCH   7  24
ATOM     24  C   UNL     1       2.437   5.139  18.363  0.00  0.00    +0.000 C 
ATOM     25  O   UNL     1       1.796   4.583  17.472  0.00  0.00    +0.000 OA
BRANCH  24  26
ATOM     26  C   UNL     1       2.183   6.591  18.603  0.00  0.00    +0.000 A 
ATOM     27  C   UNL     1       1.767   7.093  19.842  0.00  0.00    +0.000 A 
ATOM     28  C   UNL     1       1.572   8.468  20.005  0.00  0.00    +0.000 A 
ATOM     29  C   UNL     1       1.802   9.331  18.941  0.00  0.00    +0.000 A 
ATOM     30  F   UNL     1       1.628  10.649  19.111  0.00  0.00    +0.000 F 
ATOM     31  C   UNL     1       2.223   8.849  17.709  0.00  0.00    +0.000 A 
ATOM     32  C   UNL     1       2.417   7.477  17.539  0.00  0.00    +0.000 A 
ENDBRANCH  24  26
ENDBRANCH   7  24
TORSDOF 6
ENDMDL
MODEL 9
REMARK VINA RESULT:      -8.1      2.579      4.906
REMARK  Name = 
REMARK  7 active torsions:
REMARK  status: ('A' for Active; 'I' for Inactive)
REMARK    1  A    between atoms: C_1  and  O_2
REMARK    2  A    between atoms: O_2  and  C_3
REMARK    3  A    between atoms: C_6  and  C_7
REMARK    4  A    between atoms: C_12  and  O_13
REMARK    5  A    between atoms: C_12  and  C_14
REMARK    6  A    between atoms: C_18  and  C_19
REMARK    7  A    between atoms: C_19  and  C_21
REMARK                            x       y       z     vdW  Elec       q    Type
REMARK                         _______ _______ _______ _____ _____    ______ ____
ROOT
ATOM      1  C   UNL     1       2.997   5.008  19.582  0.00  0.00    +0.000 C 
ATOM      2  N   UNL     1       2.238   4.398  20.666  0.00  0.00    +0.000 N 
ATOM      3  C   UNL     1       1.556   3.238  20.628  0.00  0.00    +0.000 C 
ATOM      4  O   UNL     1       0.921   2.817  21.587  0.00  0.00    +0.000 OA
ATOM      5  N   UNL     1       1.563   2.565  19.449  0.00  0.00    +0.000 N 
ATOM      6  C   UNL     1       2.644   2.771  18.495  0.00  0.00    +0.000 C 
ATOM      7  C   UNL     1       2.791   4.280  18.243  0.00  0.00    +0.000 C 
ATOM      8  H   UNL     1       2.227   4.862  21.567  0.00  0.00    +0.000 HD
ATOM      9  H   UNL     1       1.214   1.618  19.556  0.00  0.00    +0.000 HD
ENDROOT
BRANCH   1  13
ATOM     10  C   UNL     1       1.453   9.007  18.991  0.00  0.00    +0.000 A 
ATOM     11  C   UNL     1       2.040   8.316  17.932  0.00  0.00    +0.000 A 
ATOM     12  C   UNL     1       2.606   7.055  18.138  0.00  0.00    +0.000 A 
ATOM     13  C   UNL     1       2.598   6.472  19.414  0.00  0.00    +0.000 A 
ATOM     14  C   UNL     1       2.089   7.220  20.489  0.00  0.00    +0.000 A 
ATOM     15  C   UNL     1       1.527   8.481  20.278  0.00  0.00    +0.000 A 
BRANCH  10  17
ATOM     16  C   UNL     1      -0.481  10.327  19.165  0.00  0.00    +0.000 C 
ATOM     17  O   UNL     1       0.853  10.194  18.674  0.00  0.00    +0.000 OA
ENDBRANCH  10  17
ENDBRANCH   1  13
BRANCH   6  18
ATOM     18  C   UNL     1       3.984   2.051  18.913  0.00  0.00    +0.000 C 
ATOM     19  F   UNL     1       3.761   0.733  19.178  0.00  0.00    +0.000 F 
ATOM     20  F   UNL     1       4.894   2.090  17.911  0.00  0.00    +0.000 F 
ATOM     21  F   UNL     1       4.566   2.572  20.011  0.00  0.00    +0.000 F 
ENDBRANCH   6  18
BRANCH   6  22
ATOM     22  O   UNL     1       2.081   2.195  17.310  0.00  0.00    +0.000 OA
ATOM     23  H   UNL     1       1.649   1.374  17.597  0.00  0.00    +0.000 HD
ENDBRANCH   6  22
BRANCH   7  24
ATOM     24  C   UNL     1       3.922   4.572  17.260  0.00  0.00    +0.000 C 
ATOM     25  O   UNL     1       3.843   4.254  16.074  0.00  0.00    +0.000 OA
BRANCH  24  26
ATOM     26  C   UNL     1       5.154   5.287  17.710  0.00  0.00    +0.000 A 
ATOM     27  C   UNL     1       5.871   4.914  18.854  0.00  0.00    +0.000 A 
ATOM     28  C   UNL     1       7.032   5.610  19.204  0.00  0.00    +0.000 A 
ATOM     29  C   UNL     1       7.474   6.662  18.410  0.00  0.00    +0.000 A 
ATOM     30  F   UNL     1       8.596   7.314  18.746  0.00  0.00    +0.000 F 
ATOM     31  C   UNL     1       6.778   7.037  17.269  0.00  0.00    +0.000 A 
ATOM     32  C   UNL     1       5.617   6.348  16.916  0.00  0.00    +0.000 A 
ENDBRANCH  24  26
ENDBRANCH   7  24
TORSDOF 6
ENDMDL
