MODEL 1
REMARK VINA RESULT:      -7.5      0.000      0.000
REMARK  Name = 
REMARK  8 active torsions:
REMARK  status: ('A' for Active; 'I' for Inactive)
REMARK    1  A    between atoms: C_1  and  C_2
REMARK    2  A    between atoms: C_2  and  C_3
REMARK    3  A    between atoms: C_2  and  C_4
REMARK    4  A    between atoms: C_7  and  C_8
REMARK    5  A    between atoms: N_10  and  C_11
REMARK    6  A    between atoms: N_15  and  C_16
REMARK    7  A    between atoms: C_16  and  C_17
REMARK    8  A    between atoms: C_16  and  C_18
REMARK                            x       y       z     vdW  Elec       q    Type
REMARK                         _______ _______ _______ _____ _____    ______ ____
ROOT
ATOM      1  C   UNL     1       5.576   4.072  16.345  0.00  0.00    +0.000 C 
ATOM      2  O   UNL     1       6.681   4.371  16.776  0.00  0.00    +0.000 OA
ATOM      3  N   UNL     1       5.348   3.908  14.943  0.00  0.00    +0.000 N 
ATOM      4  H   UNL     1       4.453   3.543  14.649  0.00  0.00    +0.000 HD
ENDROOT
BRANCH   1   8
ATOM      5  C   UNL     1       2.736   3.831  18.634  0.00  0.00    +0.000 A 
ATOM      6  N   UNL     1       3.035   2.546  18.397  0.00  0.00    +0.000 NA
ATOM      7  N   UNL     1       4.050   2.590  17.524  0.00  0.00    +0.000 N 
ATOM      8  C   UNL     1       4.437   3.860  17.184  0.00  0.00    +0.000 A 
ATOM      9  C   UNL     1       3.552   4.681  17.847  0.00  0.00    +0.000 A 
ATOM     10 BR   UNL     1       3.457   6.554  17.836  0.00  0.00    +0.000 Br
ATOM     11  H   UNL     1       4.463   1.711  17.221  0.00  0.00    +0.000 HD
BRANCH   5  13
ATOM     12  C   UNL     1       0.804   3.023  20.058  0.00  0.00    +0.000 C 
ATOM     13  C   UNL     1       1.726   4.187  19.694  0.00  0.00    +0.000 C 
ATOM     14  C   UNL     1       2.435   4.725  20.942  0.00  0.00    +0.000 C 
ENDBRANCH   5  13
ENDBRANCH   1   8
BRANCH   3  15
ATOM     15  C   UNL     1       6.281   4.228  13.962  0.00  0.00    +0.000 A 
ATOM     16  C   UNL     1       7.312   5.139  14.033  0.00  0.00    +0.000 A 
ATOM     17  C   UNL     1       7.913   5.118  12.761  0.00  0.00    +0.000 A 
ATOM     18  N   UNL     1       7.310   4.269  11.930  0.00  0.00    +0.000 NA
ATOM     19  N   UNL     1       6.335   3.717  12.679  0.00  0.00    +0.000 N 
BRANCH  19  20
ATOM     20  C   UNL     1       5.487   2.671  12.111  0.00  0.00    +0.000 C 
ATOM     21  C   UNL     1       4.304   3.277  11.360  0.00  0.00    +0.000 C 
ATOM     22  C   UNL     1       6.254   1.689  11.221  0.00  0.00    +0.000 C 
ENDBRANCH  19  20
ENDBRANCH   3  15
TORSDOF 4
ENDMDL
MODEL 2
REMARK VINA RESULT:      -7.3      4.892      7.522
REMARK  Name = 
REMARK  8 active torsions:
REMARK  status: ('A' for Active; 'I' for Inactive)
REMARK    1  A    between atoms: C_1  and  C_2
REMARK    2  A    between atoms: C_2  and  C_3
REMARK    3  A    between atoms: C_2  and  C_4
REMARK    4  A    between atoms: C_7  and  C_8
REMARK    5  A    between atoms: N_10  and  C_11
REMARK    6  A    between atoms: N_15  and  C_16
REMARK    7  A    between atoms: C_16  and  C_17
REMARK    8  A    between atoms: C_16  and  C_18
REMARK                            x       y       z     vdW  Elec       q    Type
REMARK                         _______ _______ _______ _____ _____    ______ ____
ROOT
ATOM      1  C   UNL     1       2.239   7.541  19.694  0.00  0.00    +0.000 C 
ATOM      2  O   UNL     1       2.541   7.713  18.522  0.00  0.00    +0.000 OA
ATOM      3  N   UNL     1       2.665   6.376  20.405  0.00  0.00    +0.000 N 
ATOM      4  H   UNL     1       2.494   6.340  21.401  0.00  0.00    +0.000 HD
ENDROOT
BRANCH   1   8
ATOM      5  C   UNL     1       0.250  10.123  21.349  0.00  0.00    +0.000 A 
ATOM      6  N   UNL     1       0.837   9.498  22.378  0.00  0.00    +0.000 NA
ATOM      7  N   UNL     1       1.546   8.511  21.814  0.00  0.00    +0.000 N 
ATOM      8  C   UNL     1       1.455   8.470  20.448  0.00  0.00    +0.000 A 
ATOM      9  C   UNL     1       0.565   9.472  20.130  0.00  0.00    +0.000 A 
ATOM     10 BR   UNL     1      -0.063   9.990  18.440  0.00  0.00    +0.000 Br
ATOM     11  H   UNL     1       2.105   7.914  22.419  0.00  0.00    +0.000 HD
BRANCH   5  13
ATOM     12  C   UNL     1      -1.151  11.470  22.973  0.00  0.00    +0.000 C 
ATOM     13  C   UNL     1      -0.523  11.396  21.582  0.00  0.00    +0.000 C 
ATOM     14  C   UNL     1       0.372  12.614  21.328  0.00  0.00    +0.000 C 
ENDBRANCH   5  13
ENDBRANCH   1   8
BRANCH   3  15
ATOM     15  C   UNL     1       3.292   5.287  19.807  0.00  0.00    +0.000 A 
ATOM     16  C   UNL     1       4.571   5.214  19.301  0.00  0.00    +0.000 A 
ATOM     17  C   UNL     1       4.683   3.920  18.762  0.00  0.00    +0.000 A 
ATOM     18  N   UNL     1       3.560   3.216  18.899  0.00  0.00    +0.000 NA
ATOM     19  N   UNL     1       2.730   4.050  19.556  0.00  0.00    +0.000 N 
BRANCH  19  20
ATOM     20  C   UNL     1       1.399   3.592  19.945  0.00  0.00    +0.000 C 
ATOM     21  C   UNL     1       0.818   2.647  18.895  0.00  0.00    +0.000 C 
ATOM     22  C   UNL     1       1.363   2.951  21.336  0.00  0.00    +0.000 C 
ENDBRANCH  19  20
ENDBRANCH   3  15
TORSDOF 4
ENDMDL
MODEL 3
REMARK VINA RESULT:      -7.1      3.770      5.112
REMARK  Name = 
REMARK  8 active torsions:
REMARK  status: ('A' for Active; 'I' for Inactive)
REMARK    1  A    between atoms: C_1  and  C_2
REMARK    2  A    between atoms: C_2  and  C_3
REMARK    3  A    between atoms: C_2  and  C_4
REMARK    4  A    between atoms: C_7  and  C_8
REMARK    5  A    between atoms: N_10  and  C_11
REMARK    6  A    between atoms: N_15  and  C_16
REMARK    7  A    between atoms: C_16  and  C_17
REMARK    8  A    between atoms: C_16  and  C_18
REMARK                            x       y       z     vdW  Elec       q    Type
REMARK                         _______ _______ _______ _____ _____    ______ ____
ROOT
ATOM      1  C   UNL     1       3.623   6.167  17.608  0.00  0.00    +0.000 C 
ATOM      2  O   UNL     1       3.344   4.979  17.531  0.00  0.00    +0.000 OA
ATOM      3  N   UNL     1       4.729   6.715  16.885  0.00  0.00    +0.000 N 
ATOM      4  H   UNL     1       4.844   7.719  16.886  0.00  0.00    +0.000 HD
ENDROOT
BRANCH   1   8
ATOM      5  C   UNL     1       1.558   8.279  19.760  0.00  0.00    +0.000 A 
ATOM      6  N   UNL     1       1.898   9.112  18.767  0.00  0.00    +0.000 NA
ATOM      7  N   UNL     1       2.695   8.384  17.974  0.00  0.00    +0.000 N 
ATOM      8  C   UNL     1       2.885   7.098  18.404  0.00  0.00    +0.000 A 
ATOM      9  C   UNL     1       2.205   7.028  19.599  0.00  0.00    +0.000 A 
ATOM     10 BR   UNL     1       2.040   5.574  20.772  0.00  0.00    +0.000 Br
ATOM     11  H   UNL     1       3.054   8.817  17.126  0.00  0.00    +0.000 HD
BRANCH   5  13
ATOM     12  C   UNL     1       1.153   9.045  22.140  0.00  0.00    +0.000 C 
ATOM     13  C   UNL     1       0.536   8.703  20.784  0.00  0.00    +0.000 C 
ATOM     14  C   UNL     1      -0.288   9.881  20.253  0.00  0.00    +0.000 C 
ENDBRANCH   5  13
ENDBRANCH   1   8
BRANCH   3  15
ATOM     15  C   UNL     1       5.660   5.948  16.191  0.00  0.00    +0.000 A 
ATOM     16  C   UNL     1       5.512   5.332  14.968  0.00  0.00    +0.000 A 
ATOM     17  C   UNL     1       6.720   4.645  14.751  0.00  0.00    +0.000 A 
ATOM     18  N   UNL     1       7.576   4.795  15.760  0.00  0.00    +0.000 NA
ATOM     19  N   UNL     1       6.930   5.608  16.618  0.00  0.00    +0.000 N 
BRANCH  19  20
ATOM     20  C   UNL     1       7.597   6.054  17.839  0.00  0.00    +0.000 C 
ATOM     21  C   UNL     1       7.756   7.573  17.851  0.00  0.00    +0.000 C 
ATOM     22  C   UNL     1       6.906   5.567  19.117  0.00  0.00    +0.000 C 
ENDBRANCH  19  20
ENDBRANCH   3  15
TORSDOF 4
ENDMDL
MODEL 4
REMARK VINA RESULT:      -7.1      3.874      5.335
REMARK  Name = 
REMARK  8 active torsions:
REMARK  status: ('A' for Active; 'I' for Inactive)
REMARK    1  A    between atoms: C_1  and  C_2
REMARK    2  A    between atoms: C_2  and  C_3
REMARK    3  A    between atoms: C_2  and  C_4
REMARK    4  A    between atoms: C_7  and  C_8
REMARK    5  A    between atoms: N_10  and  C_11
REMARK    6  A    between atoms: N_15  and  C_16
REMARK    7  A    between atoms: C_16  and  C_17
REMARK    8  A    between atoms: C_16  and  C_18
REMARK                            x       y       z     vdW  Elec       q    Type
REMARK                         _______ _______ _______ _____ _____    ______ ____
ROOT
ATOM      1  C   UNL     1       3.524   6.030  18.515  0.00  0.00    +0.000 C 
ATOM      2  O   UNL     1       3.726   4.835  18.677  0.00  0.00    +0.000 OA
ATOM      3  N   UNL     1       4.194   6.759  17.483  0.00  0.00    +0.000 N 
ATOM      4  H   UNL     1       3.903   7.712  17.312  0.00  0.00    +0.000 HD
ENDROOT
BRANCH   1   8
ATOM      5  C   UNL     1       1.347   8.256  20.429  0.00  0.00    +0.000 A 
ATOM      6  N   UNL     1       1.436   7.178  21.220  0.00  0.00    +0.000 NA
ATOM      7  N   UNL     1       2.195   6.315  20.531  0.00  0.00    +0.000 N 
ATOM      8  C   UNL     1       2.619   6.791  19.318  0.00  0.00    +0.000 A 
ATOM      9  C   UNL     1       2.025   8.028  19.206  0.00  0.00    +0.000 A 
ATOM     10 BR   UNL     1       2.134   9.257  17.792  0.00  0.00    +0.000 Br
ATOM     11  H   UNL     1       2.420   5.422  20.963  0.00  0.00    +0.000 HD
BRANCH   5  13
ATOM     12  C   UNL     1      -0.594   9.863  20.174  0.00  0.00    +0.000 C 
ATOM     13  C   UNL     1       0.683   9.510  20.937  0.00  0.00    +0.000 C 
ATOM     14  C   UNL     1       0.399   9.388  22.438  0.00  0.00    +0.000 C 
ENDBRANCH   5  13
ENDBRANCH   1   8
BRANCH   3  15
ATOM     15  C   UNL     1       5.226   6.238  16.708  0.00  0.00    +0.000 A 
ATOM     16  C   UNL     1       5.132   5.537  15.526  0.00  0.00    +0.000 A 
ATOM     17  C   UNL     1       6.455   5.195  15.193  0.00  0.00    +0.000 A 
ATOM     18  N   UNL     1       7.333   5.631  16.095  0.00  0.00    +0.000 NA
ATOM     19  N   UNL     1       6.576   6.283  16.999  0.00  0.00    +0.000 N 
BRANCH  19  20
ATOM     20  C   UNL     1       7.213   6.962  18.125  0.00  0.00    +0.000 C 
ATOM     21  C   UNL     1       8.048   5.985  18.950  0.00  0.00    +0.000 C 
ATOM     22  C   UNL     1       8.048   8.175  17.705  0.00  0.00    +0.000 C 
ENDBRANCH  19  20
ENDBRANCH   3  15
TORSDOF 4
ENDMDL
MODEL 5
REMARK VINA RESULT:      -6.9      4.394      5.706
REMARK  Name = 
REMARK  8 active torsions:
REMARK  status: ('A' for Active; 'I' for Inactive)
REMARK    1  A    between atoms: C_1  and  C_2
REMARK    2  A    between atoms: C_2  and  C_3
REMARK    3  A    between atoms: C_2  and  C_4
REMARK    4  A    between atoms: C_7  and  C_8
REMARK    5  A    between atoms: N_10  and  C_11
REMARK    6  A    between atoms: N_15  and  C_16
REMARK    7  A    between atoms: C_16  and  C_17
REMARK    8  A    between atoms: C_16  and  C_18
REMARK                            x       y       z     vdW  Elec       q    Type
REMARK                         _______ _______ _______ _____ _____    ______ ____
ROOT
ATOM      1  C   UNL     1       3.507   6.662  17.838  0.00  0.00    +0.000 C 
ATOM      2  O   UNL     1       3.413   5.527  18.282  0.00  0.00    +0.000 OA
ATOM      3  N   UNL     1       4.480   6.989  16.841  0.00  0.00    +0.000 N 
ATOM      4  H   UNL     1       4.436   7.907  16.420  0.00  0.00    +0.000 HD
ENDROOT
BRANCH   1   8
ATOM      5  C   UNL     1       1.186   9.193  19.090  0.00  0.00    +0.000 A 
ATOM      6  N   UNL     1       1.596   9.717  17.927  0.00  0.00    +0.000 NA
ATOM      7  N   UNL     1       2.486   8.835  17.453  0.00  0.00    +0.000 N 
ATOM      8  C   UNL     1       2.670   7.743  18.258  0.00  0.00    +0.000 A 
ATOM      9  C   UNL     1       1.880   7.987  19.359  0.00  0.00    +0.000 A 
ATOM     10 BR   UNL     1       1.644   6.930  20.892  0.00  0.00    +0.000 Br
ATOM     11  H   UNL     1       2.913   9.022  16.549  0.00  0.00    +0.000 HD
BRANCH   5  13
ATOM     12  C   UNL     1       0.544  10.785  20.951  0.00  0.00    +0.000 C 
ATOM     13  C   UNL     1       0.059   9.839  19.853  0.00  0.00    +0.000 C 
ATOM     14  C   UNL     1      -0.884  10.569  18.889  0.00  0.00    +0.000 C 
ENDBRANCH   5  13
ENDBRANCH   1   8
BRANCH   3  15
ATOM     15  C   UNL     1       5.486   6.122  16.425  0.00  0.00    +0.000 A 
ATOM     16  C   UNL     1       5.478   5.263  15.348  0.00  0.00    +0.000 A 
ATOM     17  C   UNL     1       6.706   4.581  15.410  0.00  0.00    +0.000 A 
ATOM     18  N   UNL     1       7.445   4.961  16.451  0.00  0.00    +0.000 NA
ATOM     19  N   UNL     1       6.703   5.915  17.047  0.00  0.00    +0.000 N 
BRANCH  19  20
ATOM     20  C   UNL     1       7.228   6.622  18.213  0.00  0.00    +0.000 C 
ATOM     21  C   UNL     1       8.043   5.682  19.098  0.00  0.00    +0.000 C 
ATOM     22  C   UNL     1       8.039   7.869  17.848  0.00  0.00    +0.000 C 
ENDBRANCH  19  20
ENDBRANCH   3  15
TORSDOF 4
ENDMDL
MODEL 6
REMARK VINA RESULT:      -6.9      4.436      6.284
REMARK  Name = 
REMARK  8 active torsions:
REMARK  status: ('A' for Active; 'I' for Inactive)
REMARK    1  A    between atoms: C_1  and  C_2
REMARK    2  A    between atoms: C_2  and  C_3
REMARK    3  A    between atoms: C_2  and  C_4
REMARK    4  A    between atoms: C_7  and  C_8
REMARK    5  A    between atoms: N_10  and  C_11
REMARK    6  A    between atoms: N_15  and  C_16
REMARK    7  A    between atoms: C_16  and  C_17
REMARK    8  A    between atoms: C_16  and  C_18
REMARK                            x       y       z     vdW  Elec       q    Type
REMARK                         _______ _______ _______ _____ _____    ______ ____
ROOT
ATOM      1  C   UNL     1       2.545   6.397  19.034  0.00  0.00    +0.000 C 
ATOM      2  O   UNL     1       3.134   5.971  20.018  0.00  0.00    +0.000 OA
ATOM      3  N   UNL     1       2.159   5.525  17.968  0.00  0.00    +0.000 N 
ATOM      4  H   UNL     1       1.570   5.902  17.238  0.00  0.00    +0.000 HD
ENDROOT
BRANCH   1   8
ATOM      5  C   UNL     1       1.386   9.857  18.824  0.00  0.00    +0.000 A 
ATOM      6  N   UNL     1       1.952   9.661  17.625  0.00  0.00    +0.000 NA
ATOM      7  N   UNL     1       2.430   8.411  17.677  0.00  0.00    +0.000 N 
ATOM      8  C   UNL     1       2.191   7.772  18.864  0.00  0.00    +0.000 A 
ATOM      9  C   UNL     1       1.568   8.718  19.647  0.00  0.00    +0.000 A 
ATOM     10 BR   UNL     1       0.964   8.564  21.416  0.00  0.00    +0.000 Br
ATOM     11  H   UNL     1       2.884   8.035  16.848  0.00  0.00    +0.000 HD
BRANCH   5  13
ATOM     12  C   UNL     1       1.330  12.382  18.640  0.00  0.00    +0.000 C 
ATOM     13  C   UNL     1       0.602  11.116  19.091  0.00  0.00    +0.000 C 
ATOM     14  C   UNL     1      -0.782  11.027  18.437  0.00  0.00    +0.000 C 
ENDBRANCH   5  13
ENDBRANCH   1   8
BRANCH   3  15
ATOM     15  C   UNL     1       2.554   4.194  17.872  0.00  0.00    +0.000 A 
ATOM     16  C   UNL     1       1.814   3.065  18.148  0.00  0.00    +0.000 A 
ATOM     17  C   UNL     1       2.694   1.987  17.945  0.00  0.00    +0.000 A 
ATOM     18  N   UNL     1       3.911   2.389  17.579  0.00  0.00    +0.000 NA
ATOM     19  N   UNL     1       3.806   3.731  17.515  0.00  0.00    +0.000 N 
BRANCH  19  20
ATOM     20  C   UNL     1       4.948   4.529  17.076  0.00  0.00    +0.000 C 
ATOM     21  C   UNL     1       5.988   4.650  18.188  0.00  0.00    +0.000 C 
ATOM     22  C   UNL     1       5.588   4.008  15.785  0.00  0.00    +0.000 C 
ENDBRANCH  19  20
ENDBRANCH   3  15
TORSDOF 4
ENDMDL
MODEL 7
REMARK VINA RESULT:      -6.8      1.576      1.593
REMARK  Name = 
REMARK  8 active torsions:
REMARK  status: ('A' for Active; 'I' for Inactive)
REMARK    1  A    between atoms: C_1  and  C_2
REMARK    2  A    between atoms: C_2  and  C_3
REMARK    3  A    between atoms: C_2  and  C_4
REMARK    4  A    between atoms: C_7  and  C_8
REMARK    5  A    between atoms: N_10  and  C_11
REMARK    6  A    between atoms: N_15  and  C_16
REMARK    7  A    between atoms: C_16  and  C_17
REMARK    8  A    between atoms: C_16  and  C_18
REMARK                            x       y       z     vdW  Elec       q    Type
REMARK                         _______ _______ _______ _____ _____    ______ ____
ROOT
ATOM      1  C   UNL     1       5.464   4.306  16.393  0.00  0.00    +0.000 C 
ATOM      2  O   UNL     1       6.605   4.179  16.816  0.00  0.00    +0.000 OA
ATOM      3  N   UNL     1       5.199   4.368  14.989  0.00  0.00    +0.000 N 
ATOM      4  H   UNL     1       4.234   4.351  14.689  0.00  0.00    +0.000 HD
ENDROOT
BRANCH   1   8
ATOM      5  C   UNL     1       2.464   4.214  18.479  0.00  0.00    +0.000 A 
ATOM      6  N   UNL     1       2.557   5.510  18.152  0.00  0.00    +0.000 NA
ATOM      7  N   UNL     1       3.675   5.594  17.418  0.00  0.00    +0.000 N 
ATOM      8  C   UNL     1       4.317   4.398  17.242  0.00  0.00    +0.000 A 
ATOM      9  C   UNL     1       3.579   3.497  17.977  0.00  0.00    +0.000 A 
ATOM     10 BR   UNL     1       3.875   1.661  18.223  0.00  0.00    +0.000 Br
ATOM     11  H   UNL     1       3.930   6.501  17.033  0.00  0.00    +0.000 HD
BRANCH   5  13
ATOM     12  C   UNL     1       0.748   2.360  18.648  0.00  0.00    +0.000 C 
ATOM     13  C   UNL     1       1.238   3.702  19.190  0.00  0.00    +0.000 C 
ATOM     14  C   UNL     1       1.499   3.613  20.698  0.00  0.00    +0.000 C 
ENDBRANCH   5  13
ENDBRANCH   1   8
BRANCH   3  15
ATOM     15  C   UNL     1       6.188   4.460  14.015  0.00  0.00    +0.000 A 
ATOM     16  C   UNL     1       7.325   5.238  14.027  0.00  0.00    +0.000 A 
ATOM     17  C   UNL     1       7.948   5.002  12.788  0.00  0.00    +0.000 A 
ATOM     18  N   UNL     1       7.260   4.149  12.030  0.00  0.00    +0.000 NA
ATOM     19  N   UNL     1       6.206   3.809  12.796  0.00  0.00    +0.000 N 
BRANCH  19  20
ATOM     20  C   UNL     1       5.244   2.821  12.311  0.00  0.00    +0.000 C 
ATOM     21  C   UNL     1       4.141   3.490  11.494  0.00  0.00    +0.000 C 
ATOM     22  C   UNL     1       5.896   1.682  11.521  0.00  0.00    +0.000 C 
ENDBRANCH  19  20
ENDBRANCH   3  15
TORSDOF 4
ENDMDL
MODEL 8
REMARK VINA RESULT:      -6.7      3.218      4.734
REMARK  Name = 
REMARK  8 active torsions:
REMARK  status: ('A' for Active; 'I' for Inactive)
REMARK    1  A    between atoms: C_1  and  C_2
REMARK    2  A    between atoms: C_2  and  C_3
REMARK    3  A    between atoms: C_2  and  C_4
REMARK    4  A    between atoms: C_7  and  C_8
REMARK    5  A    between atoms: N_10  and  C_11
REMARK    6  A    between atoms: N_15  and  C_16
REMARK    7  A    between atoms: C_16  and  C_17
REMARK    8  A    between atoms: C_16  and  C_18
REMARK                            x       y       z     vdW  Elec       q    Type
REMARK                         _______ _______ _______ _____ _____    ______ ____
ROOT
ATOM      1  C   UNL     1       3.736   5.250  18.236  0.00  0.00    +0.000 C 
ATOM      2  O   UNL     1       3.774   4.029  18.199  0.00  0.00    +0.000 OA
ATOM      3  N   UNL     1       4.539   6.042  17.356  0.00  0.00    +0.000 N 
ATOM      4  H   UNL     1       4.382   7.041  17.342  0.00  0.00    +0.000 HD
ENDROOT
BRANCH   1   8
ATOM      5  C   UNL     1       1.736   7.411  20.402  0.00  0.00    +0.000 A 
ATOM      6  N   UNL     1       1.863   6.295  21.133  0.00  0.00    +0.000 NA
ATOM      7  N   UNL     1       2.557   5.457  20.353  0.00  0.00    +0.000 N 
ATOM      8  C   UNL     1       2.902   5.984  19.136  0.00  0.00    +0.000 A 
ATOM      9  C   UNL     1       2.322   7.233  19.124  0.00  0.00    +0.000 A 
ATOM     10 BR   UNL     1       2.351   8.526  17.765  0.00  0.00    +0.000 Br
ATOM     11  H   UNL     1       2.797   4.541  20.725  0.00  0.00    +0.000 HD
BRANCH   5  13
ATOM     12  C   UNL     1      -0.362   8.501  21.310  0.00  0.00    +0.000 C 
ATOM     13  C   UNL     1       1.130   8.648  21.013  0.00  0.00    +0.000 C 
ATOM     14  C   UNL     1       1.896   9.042  22.281  0.00  0.00    +0.000 C 
ENDBRANCH   5  13
ENDBRANCH   1   8
BRANCH   3  15
ATOM     15  C   UNL     1       5.528   5.521  16.528  0.00  0.00    +0.000 A 
ATOM     16  C   UNL     1       5.373   4.859  15.330  0.00  0.00    +0.000 A 
ATOM     17  C   UNL     1       6.674   4.497  14.936  0.00  0.00    +0.000 A 
ATOM     18  N   UNL     1       7.596   4.885  15.816  0.00  0.00    +0.000 NA
ATOM     19  N   UNL     1       6.889   5.527  16.767  0.00  0.00    +0.000 N 
BRANCH  19  20
ATOM     20  C   UNL     1       7.584   6.157  17.887  0.00  0.00    +0.000 C 
ATOM     21  C   UNL     1       7.509   7.678  17.790  0.00  0.00    +0.000 C 
ATOM     22  C   UNL     1       7.091   5.671  19.254  0.00  0.00    +0.000 C 
ENDBRANCH  19  20
ENDBRANCH   3  15
TORSDOF 4
ENDMDL
MODEL 9
REMARK VINA RESULT:      -6.7      0.851      1.134
REMARK  Name = 
REMARK  8 active torsions:
REMARK  status: ('A' for Active; 'I' for Inactive)
REMARK    1  A    between atoms: C_1  and  C_2
REMARK    2  A    between atoms: C_2  and  C_3
REMARK    3  A    between atoms: C_2  and  C_4
REMARK    4  A    between atoms: C_7  and  C_8
REMARK    5  A    between atoms: N_10  and  C_11
REMARK    6  A    between atoms: N_15  and  C_16
REMARK    7  A    between atoms: C_16  and  C_17
REMARK    8  A    between atoms: C_16  and  C_18
REMARK                            x       y       z     vdW  Elec       q    Type
REMARK                         _______ _______ _______ _____ _____    ______ ____
ROOT
ATOM      1  C   UNL     1       5.576   4.054  16.194  0.00  0.00    +0.000 C 
ATOM      2  O   UNL     1       6.735   4.055  16.585  0.00  0.00    +0.000 OA
ATOM      3  N   UNL     1       5.267   4.087  14.798  0.00  0.00    +0.000 N 
ATOM      4  H   UNL     1       4.301   3.962  14.524  0.00  0.00    +0.000 HD
ENDROOT
BRANCH   1   8
ATOM      5  C   UNL     1       2.920   3.957  18.703  0.00  0.00    +0.000 A 
ATOM      6  N   UNL     1       2.352   3.359  17.648  0.00  0.00    +0.000 NA
ATOM      7  N   UNL     1       3.283   3.412  16.687  0.00  0.00    +0.000 N 
ATOM      8  C   UNL     1       4.450   4.017  17.074  0.00  0.00    +0.000 A 
ATOM      9  C   UNL     1       4.211   4.435  18.364  0.00  0.00    +0.000 A 
ATOM     10 BR   UNL     1       5.354   5.361  19.528  0.00  0.00    +0.000 Br
ATOM     11  H   UNL     1       3.072   2.983  15.789  0.00  0.00    +0.000 HD
BRANCH   5  13
ATOM     12  C   UNL     1       1.763   5.349  20.475  0.00  0.00    +0.000 C 
ATOM     13  C   UNL     1       2.220   3.957  20.038  0.00  0.00    +0.000 C 
ATOM     14  C   UNL     1       1.037   2.983  20.015  0.00  0.00    +0.000 C 
ENDBRANCH   5  13
ENDBRANCH   1   8
BRANCH   3  15
ATOM     15  C   UNL     1       6.212   4.289  13.797  0.00  0.00    +0.000 A 
ATOM     16  C   UNL     1       7.289   5.148  13.805  0.00  0.00    +0.000 A 
ATOM     17  C   UNL     1       7.883   5.007  12.538  0.00  0.00    +0.000 A 
ATOM     18  N   UNL     1       7.234   4.135  11.768  0.00  0.00    +0.000 NA
ATOM     19  N   UNL     1       6.234   3.688  12.553  0.00  0.00    +0.000 N 
BRANCH  19  20
ATOM     20  C   UNL     1       5.332   2.651  12.059  0.00  0.00    +0.000 C 
ATOM     21  C   UNL     1       4.174   3.264  11.275  0.00  0.00    +0.000 C 
ATOM     22  C   UNL     1       6.043   1.575  11.233  0.00  0.00    +0.000 C 
ENDBRANCH  19  20
ENDBRANCH   3  15
TORSDOF 4
ENDMDL
