MODEL 1
REMARK VINA RESULT:      -7.0      0.000      0.000
REMARK  Name = 
REMARK  10 active torsions:
REMARK  status: ('A' for Active; 'I' for Inactive)
REMARK    1  A    between atoms: C_1  and  C_2
REMARK    2  A    between atoms: C_2  and  C_3
REMARK    3  A    between atoms: C_3  and  C_4
REMARK    4  A    between atoms: C_3  and  N_6
REMARK    5  A    between atoms: C_4  and  C_5
REMARK    6  A    between atoms: C_7  and  C_8
REMARK    7  A    between atoms: C_11  and  P_12
REMARK    8  A    between atoms: P_12  and  O_14
REMARK    9  A    between atoms: P_12  and  O_15
REMARK   10  A    between atoms: C_19  and  N_20
REMARK                            x       y       z     vdW  Elec       q    Type
REMARK                         _______ _______ _______ _____ _____    ______ ____
ROOT
ATOM      1  N   UNL     1       2.933   5.204  18.591  0.00  0.00    +0.000 N 
ATOM      2  C   UNL     1       3.031   6.578  18.716  0.00  0.00    +0.000 A 
ATOM      3  N   UNL     1       4.028   7.047  17.992  0.00  0.00    +0.000 NA
ATOM      4  C   UNL     1       4.590   5.959  17.361  0.00  0.00    +0.000 A 
ATOM      5  C   UNL     1       5.675   5.916  16.449  0.00  0.00    +0.000 A 
ATOM      6  C   UNL     1       6.068   4.646  15.989  0.00  0.00    +0.000 A 
ATOM      7  F   UNL     1       7.093   4.545  15.126  0.00  0.00    +0.000 F 
ATOM      8  C   UNL     1       5.419   3.480  16.375  0.00  0.00    +0.000 A 
ATOM      9  C   UNL     1       4.341   3.526  17.261  0.00  0.00    +0.000 A 
ATOM     10  C   UNL     1       3.938   4.784  17.733  0.00  0.00    +0.000 A 
ENDROOT
BRANCH   2  11
ATOM     11  C   UNL     1       2.169   7.428  19.501  0.00  0.00    +0.000 A 
ATOM     12  C   UNL     1       1.716   7.246  20.798  0.00  0.00    +0.000 A 
ATOM     13  C   UNL     1       0.955   8.394  21.152  0.00  0.00    +0.000 A 
ATOM     14  C   UNL     1       1.051   9.258  20.082  0.00  0.00    +0.000 A 
ATOM     15  O   UNL     1       1.717   8.644  19.060  0.00  0.00    +0.000 OA
BRANCH  14  16
ATOM     16  P   UNL     1       0.593  10.931  20.020  0.00  0.00    +0.000 P 
ATOM     17  O   UNL     1       1.236  11.797  21.054  0.00  0.00    +0.000 OA
BRANCH  16  18
ATOM     18  O   UNL     1       0.936  11.404  18.518  0.00  0.00    +0.000 OA
ATOM     19  H   UNL     1       1.016  12.370  18.458  0.00  0.00    +0.000 HD
ENDBRANCH  16  18
BRANCH  16  20
ATOM     20  O   UNL     1      -1.002  11.092  19.986  0.00  0.00    +0.000 OA
ATOM     21  H   UNL     1      -1.257  11.501  19.139  0.00  0.00    +0.000 HD
ENDBRANCH  16  20
ENDBRANCH  14  16
ENDBRANCH   2  11
BRANCH   5  22
ATOM     22  N   UNL     1       6.396   7.069  16.068  0.00  0.00    +0.000 N 
ATOM     23  H   UNL     1       5.767   7.854  15.908  0.00  0.00    +0.000 HD
ATOM     24  H   UNL     1       7.031   6.890  15.296  0.00  0.00    +0.000 HD
ENDBRANCH   5  22
BRANCH   1  25
ATOM     25  C   UNL     1       1.977   4.325  19.278  0.00  0.00    +0.000 C 
BRANCH  25  27
ATOM     26  C   UNL     1       0.700   2.175  18.671  0.00  0.00    +0.000 C 
ATOM     27  C   UNL     1       1.076   3.590  18.258  0.00  0.00    +0.000 C 
ENDBRANCH  25  27
BRANCH  25  28
ATOM     28  C   UNL     1       2.662   3.410  20.312  0.00  0.00    +0.000 C 
ATOM     29  C   UNL     1       2.078   3.549  21.718  0.00  0.00    +0.000 C 
ENDBRANCH  25  28
ENDBRANCH   1  25
TORSDOF 8
ENDMDL
MODEL 2
REMARK VINA RESULT:      -6.9      1.347      1.815
REMARK  Name = 
REMARK  10 active torsions:
REMARK  status: ('A' for Active; 'I' for Inactive)
REMARK    1  A    between atoms: C_1  and  C_2
REMARK    2  A    between atoms: C_2  and  C_3
REMARK    3  A    between atoms: C_3  and  C_4
REMARK    4  A    between atoms: C_3  and  N_6
REMARK    5  A    between atoms: C_4  and  C_5
REMARK    6  A    between atoms: C_7  and  C_8
REMARK    7  A    between atoms: C_11  and  P_12
REMARK    8  A    between atoms: P_12  and  O_14
REMARK    9  A    between atoms: P_12  and  O_15
REMARK   10  A    between atoms: C_19  and  N_20
REMARK                            x       y       z     vdW  Elec       q    Type
REMARK                         _______ _______ _______ _____ _____    ______ ____
ROOT
ATOM      1  N   UNL     1       2.795   5.722  18.111  0.00  0.00    +0.000 N 
ATOM      2  C   UNL     1       3.072   7.076  18.185  0.00  0.00    +0.000 A 
ATOM      3  N   UNL     1       4.280   7.335  17.725  0.00  0.00    +0.000 NA
ATOM      4  C   UNL     1       4.806   6.127  17.322  0.00  0.00    +0.000 A 
ATOM      5  C   UNL     1       6.066   5.852  16.731  0.00  0.00    +0.000 A 
ATOM      6  C   UNL     1       6.357   4.503  16.458  0.00  0.00    +0.000 A 
ATOM      7  F   UNL     1       7.538   4.184  15.902  0.00  0.00    +0.000 F 
ATOM      8  C   UNL     1       5.458   3.478  16.721  0.00  0.00    +0.000 A 
ATOM      9  C   UNL     1       4.213   3.752  17.289  0.00  0.00    +0.000 A 
ATOM     10  C   UNL     1       3.906   5.091  17.572  0.00  0.00    +0.000 A 
ENDROOT
BRANCH   2  11
ATOM     11  C   UNL     1       2.184   8.104  18.670  0.00  0.00    +0.000 A 
ATOM     12  C   UNL     1       1.420   9.006  17.947  0.00  0.00    +0.000 A 
ATOM     13  C   UNL     1       0.657   9.765  18.877  0.00  0.00    +0.000 A 
ATOM     14  C   UNL     1       0.932   9.233  20.118  0.00  0.00    +0.000 A 
ATOM     15  O   UNL     1       1.908   8.285  20.000  0.00  0.00    +0.000 OA
BRANCH  14  16
ATOM     16  P   UNL     1       0.096   9.526  21.611  0.00  0.00    +0.000 P 
ATOM     17  O   UNL     1      -0.770  10.743  21.617  0.00  0.00    +0.000 OA
BRANCH  16  18
ATOM     18  O   UNL     1      -0.735   8.174  21.897  0.00  0.00    +0.000 OA
ATOM     19  H   UNL     1      -0.296   7.621  22.565  0.00  0.00    +0.000 HD
ENDBRANCH  16  18
BRANCH  16  20
ATOM     20  O   UNL     1       1.105   9.480  22.855  0.00  0.00    +0.000 OA
ATOM     21  H   UNL     1       0.626   9.145  23.635  0.00  0.00    +0.000 HD
ENDBRANCH  16  20
ENDBRANCH  14  16
ENDBRANCH   2  11
BRANCH   5  22
ATOM     22  N   UNL     1       7.030   6.856  16.492  0.00  0.00    +0.000 N 
ATOM     23  H   UNL     1       7.825   6.752  17.119  0.00  0.00    +0.000 HD
ATOM     24  H   UNL     1       6.626   7.788  16.496  0.00  0.00    +0.000 HD
ENDBRANCH   5  22
BRANCH   1  25
ATOM     25  C   UNL     1       1.572   5.050  18.568  0.00  0.00    +0.000 C 
BRANCH  25  27
ATOM     26  C   UNL     1       0.865   2.578  18.676  0.00  0.00    +0.000 C 
ATOM     27  C   UNL     1       1.356   3.723  17.804  0.00  0.00    +0.000 C 
ENDBRANCH  25  27
BRANCH  25  28
ATOM     28  C   UNL     1       1.510   4.928  20.104  0.00  0.00    +0.000 C 
ATOM     29  C   UNL     1       2.838   4.497  20.726  0.00  0.00    +0.000 C 
ENDBRANCH  25  28
ENDBRANCH   1  25
TORSDOF 8
ENDMDL
MODEL 3
REMARK VINA RESULT:      -6.9      5.167      7.693
REMARK  Name = 
REMARK  10 active torsions:
REMARK  status: ('A' for Active; 'I' for Inactive)
REMARK    1  A    between atoms: C_1  and  C_2
REMARK    2  A    between atoms: C_2  and  C_3
REMARK    3  A    between atoms: C_3  and  C_4
REMARK    4  A    between atoms: C_3  and  N_6
REMARK    5  A    between atoms: C_4  and  C_5
REMARK    6  A    between atoms: C_7  and  C_8
REMARK    7  A    between atoms: C_11  and  P_12
REMARK    8  A    between atoms: P_12  and  O_14
REMARK    9  A    between atoms: P_12  and  O_15
REMARK   10  A    between atoms: C_19  and  N_20
REMARK                            x       y       z     vdW  Elec       q    Type
REMARK                         _______ _______ _______ _____ _____    ______ ____
ROOT
ATOM      1  N   UNL     1       4.382   5.105  18.117  0.00  0.00    +0.000 N 
ATOM      2  C   UNL     1       4.545   4.098  17.182  0.00  0.00    +0.000 A 
ATOM      3  N   UNL     1       3.800   3.052  17.482  0.00  0.00    +0.000 NA
ATOM      4  C   UNL     1       3.116   3.384  18.632  0.00  0.00    +0.000 A 
ATOM      5  C   UNL     1       2.165   2.623  19.357  0.00  0.00    +0.000 A 
ATOM      6  C   UNL     1       1.652   3.202  20.532  0.00  0.00    +0.000 A 
ATOM      7  F   UNL     1       0.750   2.524  21.262  0.00  0.00    +0.000 F 
ATOM      8  C   UNL     1       2.026   4.468  20.964  0.00  0.00    +0.000 A 
ATOM      9  C   UNL     1       2.951   5.222  20.240  0.00  0.00    +0.000 A 
ATOM     10  C   UNL     1       3.476   4.659  19.067  0.00  0.00    +0.000 A 
ENDROOT
BRANCH   2  11
ATOM     11  C   UNL     1       5.386   4.147  16.012  0.00  0.00    +0.000 A 
ATOM     12  C   UNL     1       6.765   4.266  15.936  0.00  0.00    +0.000 A 
ATOM     13  C   UNL     1       7.127   4.192  14.563  0.00  0.00    +0.000 A 
ATOM     14  C   UNL     1       5.959   3.949  13.873  0.00  0.00    +0.000 A 
ATOM     15  O   UNL     1       4.902   3.999  14.738  0.00  0.00    +0.000 OA
BRANCH  14  16
ATOM     16  P   UNL     1       5.781   3.468  12.215  0.00  0.00    +0.000 P 
ATOM     17  O   UNL     1       4.456   3.795  11.606  0.00  0.00    +0.000 OA
BRANCH  16  18
ATOM     18  O   UNL     1       7.007   4.172  11.441  0.00  0.00    +0.000 OA
ATOM     19  H   UNL     1       7.644   3.516  11.112  0.00  0.00    +0.000 HD
ENDBRANCH  16  18
BRANCH  16  20
ATOM     20  O   UNL     1       6.192   1.932  12.013  0.00  0.00    +0.000 OA
ATOM     21  H   UNL     1       5.865   1.418  12.774  0.00  0.00    +0.000 HD
ENDBRANCH  16  20
ENDBRANCH  14  16
ENDBRANCH   2  11
BRANCH   5  22
ATOM     22  N   UNL     1       1.793   1.313  18.983  0.00  0.00    +0.000 N 
ATOM     23  H   UNL     1       1.172   0.900  19.676  0.00  0.00    +0.000 HD
ATOM     24  H   UNL     1       2.596   0.733  18.757  0.00  0.00    +0.000 HD
ENDBRANCH   5  22
BRANCH   1  25
ATOM     25  C   UNL     1       5.076   6.399  18.143  0.00  0.00    +0.000 C 
BRANCH  25  27
ATOM     26  C   UNL     1       7.383   7.374  17.548  0.00  0.00    +0.000 C 
ATOM     27  C   UNL     1       6.610   6.200  18.129  0.00  0.00    +0.000 C 
ENDBRANCH  25  27
BRANCH  25  28
ATOM     28  C   UNL     1       4.542   7.371  17.073  0.00  0.00    +0.000 C 
ATOM     29  C   UNL     1       3.201   8.000  17.448  0.00  0.00    +0.000 C 
ENDBRANCH  25  28
ENDBRANCH   1  25
TORSDOF 8
ENDMDL
MODEL 4
REMARK VINA RESULT:      -6.7      4.342      6.549
REMARK  Name = 
REMARK  10 active torsions:
REMARK  status: ('A' for Active; 'I' for Inactive)
REMARK    1  A    between atoms: C_1  and  C_2
REMARK    2  A    between atoms: C_2  and  C_3
REMARK    3  A    between atoms: C_3  and  C_4
REMARK    4  A    between atoms: C_3  and  N_6
REMARK    5  A    between atoms: C_4  and  C_5
REMARK    6  A    between atoms: C_7  and  C_8
REMARK    7  A    between atoms: C_11  and  P_12
REMARK    8  A    between atoms: P_12  and  O_14
REMARK    9  A    between atoms: P_12  and  O_15
REMARK   10  A    between atoms: C_19  and  N_20
REMARK                            x       y       z     vdW  Elec       q    Type
REMARK                         _______ _______ _______ _____ _____    ______ ____
ROOT
ATOM      1  N   UNL     1       2.350   6.241  19.761  0.00  0.00    +0.000 N 
ATOM      2  C   UNL     1       2.882   6.470  18.504  0.00  0.00    +0.000 A 
ATOM      3  N   UNL     1       2.574   7.679  18.077  0.00  0.00    +0.000 NA
ATOM      4  C   UNL     1       1.838   8.267  19.082  0.00  0.00    +0.000 A 
ATOM      5  C   UNL     1       1.286   9.572  19.140  0.00  0.00    +0.000 A 
ATOM      6  C   UNL     1       0.536   9.894  20.285  0.00  0.00    +0.000 A 
ATOM      7  F   UNL     1      -0.015  11.115  20.392  0.00  0.00    +0.000 F 
ATOM      8  C   UNL     1       0.357   9.000  21.334  0.00  0.00    +0.000 A 
ATOM      9  C   UNL     1       0.914   7.722  21.282  0.00  0.00    +0.000 A 
ATOM     10  C   UNL     1       1.662   7.382  20.144  0.00  0.00    +0.000 A 
ENDROOT
BRANCH   2  11
ATOM     11  C   UNL     1       3.687   5.552  17.737  0.00  0.00    +0.000 A 
ATOM     12  C   UNL     1       3.286   4.440  17.013  0.00  0.00    +0.000 A 
ATOM     13  C   UNL     1       4.438   3.908  16.371  0.00  0.00    +0.000 A 
ATOM     14  C   UNL     1       5.472   4.770  16.669  0.00  0.00    +0.000 A 
ATOM     15  O   UNL     1       5.035   5.716  17.553  0.00  0.00    +0.000 OA
BRANCH  14  16
ATOM     16  P   UNL     1       7.049   4.831  15.947  0.00  0.00    +0.000 P 
ATOM     17  O   UNL     1       7.108   4.367  14.527  0.00  0.00    +0.000 OA
BRANCH  16  18
ATOM     18  O   UNL     1       7.529   6.361  16.118  0.00  0.00    +0.000 OA
ATOM     19  H   UNL     1       6.833   6.909  16.517  0.00  0.00    +0.000 HD
ENDBRANCH  16  18
BRANCH  16  20
ATOM     20  O   UNL     1       8.138   4.111  16.877  0.00  0.00    +0.000 OA
ATOM     21  H   UNL     1       7.844   4.168  17.805  0.00  0.00    +0.000 HD
ENDBRANCH  16  20
ENDBRANCH  14  16
ENDBRANCH   2  11
BRANCH   5  22
ATOM     22  N   UNL     1       1.400  10.495  18.077  0.00  0.00    +0.000 N 
ATOM     23  H   UNL     1       2.366  10.794  17.958  0.00  0.00    +0.000 HD
ATOM     24  H   UNL     1       0.742  11.264  18.160  0.00  0.00    +0.000 HD
ENDBRANCH   5  22
BRANCH   1  25
ATOM     25  C   UNL     1       2.443   4.999  20.540  0.00  0.00    +0.000 C 
BRANCH  25  27
ATOM     26  C   UNL     1       1.014   2.972  21.224  0.00  0.00    +0.000 C 
ATOM     27  C   UNL     1       1.294   4.032  20.171  0.00  0.00    +0.000 C 
ENDBRANCH  25  27
BRANCH  25  28
ATOM     28  C   UNL     1       3.853   4.378  20.484  0.00  0.00    +0.000 C 
ATOM     29  C   UNL     1       3.843   2.901  20.088  0.00  0.00    +0.000 C 
ENDBRANCH  25  28
ENDBRANCH   1  25
TORSDOF 8
ENDMDL
MODEL 5
REMARK VINA RESULT:      -6.6      4.097      5.845
REMARK  Name = 
REMARK  10 active torsions:
REMARK  status: ('A' for Active; 'I' for Inactive)
REMARK    1  A    between atoms: C_1  and  C_2
REMARK    2  A    between atoms: C_2  and  C_3
REMARK    3  A    between atoms: C_3  and  C_4
REMARK    4  A    between atoms: C_3  and  N_6
REMARK    5  A    between atoms: C_4  and  C_5
REMARK    6  A    between atoms: C_7  and  C_8
REMARK    7  A    between atoms: C_11  and  P_12
REMARK    8  A    between atoms: P_12  and  O_14
REMARK    9  A    between atoms: P_12  and  O_15
REMARK   10  A    between atoms: C_19  and  N_20
REMARK                            x       y       z     vdW  Elec       q    Type
REMARK                         _______ _______ _______ _____ _____    ______ ____
ROOT
ATOM      1  N   UNL     1       6.248   5.288  16.302  0.00  0.00    +0.000 N 
ATOM      2  C   UNL     1       4.957   4.795  16.373  0.00  0.00    +0.000 A 
ATOM      3  N   UNL     1       4.595   4.255  15.225  0.00  0.00    +0.000 NA
ATOM      4  C   UNL     1       5.680   4.379  14.383  0.00  0.00    +0.000 A 
ATOM      5  C   UNL     1       5.826   3.939  13.043  0.00  0.00    +0.000 A 
ATOM      6  C   UNL     1       7.043   4.242  12.405  0.00  0.00    +0.000 A 
ATOM      7  F   UNL     1       7.235   3.853  11.133  0.00  0.00    +0.000 F 
ATOM      8  C   UNL     1       8.074   4.914  13.048  0.00  0.00    +0.000 A 
ATOM      9  C   UNL     1       7.934   5.333  14.372  0.00  0.00    +0.000 A 
ATOM     10  C   UNL     1       6.725   5.043  15.024  0.00  0.00    +0.000 A 
ENDROOT
BRANCH   2  11
ATOM     11  C   UNL     1       4.093   4.824  17.527  0.00  0.00    +0.000 A 
ATOM     12  C   UNL     1       3.367   5.886  18.044  0.00  0.00    +0.000 A 
ATOM     13  C   UNL     1       2.614   5.395  19.145  0.00  0.00    +0.000 A 
ATOM     14  C   UNL     1       2.853   4.038  19.197  0.00  0.00    +0.000 A 
ATOM     15  O   UNL     1       3.803   3.710  18.271  0.00  0.00    +0.000 OA
BRANCH  14  16
ATOM     16  P   UNL     1       2.005   2.841  20.123  0.00  0.00    +0.000 P 
ATOM     17  O   UNL     1       2.627   2.510  21.440  0.00  0.00    +0.000 OA
BRANCH  16  18
ATOM     18  O   UNL     1       0.505   3.413  20.273  0.00  0.00    +0.000 OA
ATOM     19  H   UNL     1       0.495   4.385  20.292  0.00  0.00    +0.000 HD
ENDBRANCH  16  18
BRANCH  16  20
ATOM     20  O   UNL     1       1.699   1.539  19.240  0.00  0.00    +0.000 OA
ATOM     21  H   UNL     1       2.123   0.768  19.661  0.00  0.00    +0.000 HD
ENDBRANCH  16  20
ENDBRANCH  14  16
ENDBRANCH   2  11
BRANCH   5  22
ATOM     22  N   UNL     1       4.786   3.298  12.334  0.00  0.00    +0.000 N 
ATOM     23  H   UNL     1       5.092   3.036  11.399  0.00  0.00    +0.000 HD
ATOM     24  H   UNL     1       3.923   3.832  12.348  0.00  0.00    +0.000 HD
ENDBRANCH   5  22
BRANCH   1  25
ATOM     25  C   UNL     1       6.976   5.995  17.363  0.00  0.00    +0.000 C 
BRANCH  25  27
ATOM     26  C   UNL     1       7.788   8.427  17.589  0.00  0.00    +0.000 C 
ATOM     27  C   UNL     1       6.603   7.496  17.379  0.00  0.00    +0.000 C 
ENDBRANCH  25  27
BRANCH  25  28
ATOM     28  C   UNL     1       6.857   5.286  18.727  0.00  0.00    +0.000 C 
ATOM     29  C   UNL     1       8.015   5.604  19.673  0.00  0.00    +0.000 C 
ENDBRANCH  25  28
ENDBRANCH   1  25
TORSDOF 8
ENDMDL
MODEL 6
REMARK VINA RESULT:      -6.6      4.300      6.491
REMARK  Name = 
REMARK  10 active torsions:
REMARK  status: ('A' for Active; 'I' for Inactive)
REMARK    1  A    between atoms: C_1  and  C_2
REMARK    2  A    between atoms: C_2  and  C_3
REMARK    3  A    between atoms: C_3  and  C_4
REMARK    4  A    between atoms: C_3  and  N_6
REMARK    5  A    between atoms: C_4  and  C_5
REMARK    6  A    between atoms: C_7  and  C_8
REMARK    7  A    between atoms: C_11  and  P_12
REMARK    8  A    between atoms: P_12  and  O_14
REMARK    9  A    between atoms: P_12  and  O_15
REMARK   10  A    between atoms: C_19  and  N_20
REMARK                            x       y       z     vdW  Elec       q    Type
REMARK                         _______ _______ _______ _____ _____    ______ ____
ROOT
ATOM      1  N   UNL     1       2.198   6.251  19.895  0.00  0.00    +0.000 N 
ATOM      2  C   UNL     1       2.829   6.508  18.690  0.00  0.00    +0.000 A 
ATOM      3  N   UNL     1       2.579   7.737  18.281  0.00  0.00    +0.000 NA
ATOM      4  C   UNL     1       1.780   8.309  19.247  0.00  0.00    +0.000 A 
ATOM      5  C   UNL     1       1.251   9.623  19.307  0.00  0.00    +0.000 A 
ATOM      6  C   UNL     1       0.423   9.925  20.403  0.00  0.00    +0.000 A 
ATOM      7  F   UNL     1      -0.110  11.154  20.509  0.00  0.00    +0.000 F 
ATOM      8  C   UNL     1       0.146   9.002  21.404  0.00  0.00    +0.000 A 
ATOM      9  C   UNL     1       0.680   7.714  21.351  0.00  0.00    +0.000 A 
ATOM     10  C   UNL     1       1.506   7.394  20.263  0.00  0.00    +0.000 A 
ENDROOT
BRANCH   2  11
ATOM     11  C   UNL     1       3.671   5.597  17.955  0.00  0.00    +0.000 A 
ATOM     12  C   UNL     1       3.306   4.501  17.189  0.00  0.00    +0.000 A 
ATOM     13  C   UNL     1       4.491   3.971  16.607  0.00  0.00    +0.000 A 
ATOM     14  C   UNL     1       5.511   4.820  16.980  0.00  0.00    +0.000 A 
ATOM     15  O   UNL     1       5.029   5.753  17.853  0.00  0.00    +0.000 OA
BRANCH  14  16
ATOM     16  P   UNL     1       7.128   4.881  16.353  0.00  0.00    +0.000 P 
ATOM     17  O   UNL     1       8.139   4.121  17.149  0.00  0.00    +0.000 OA
BRANCH  16  18
ATOM     18  O   UNL     1       7.009   4.350  14.836  0.00  0.00    +0.000 OA
ATOM     19  H   UNL     1       7.540   4.890  14.227  0.00  0.00    +0.000 HD
ENDBRANCH  16  18
BRANCH  16  20
ATOM     20  O   UNL     1       7.578   6.392  16.066  0.00  0.00    +0.000 OA
ATOM     21  H   UNL     1       8.010   6.430  15.193  0.00  0.00    +0.000 HD
ENDBRANCH  16  20
ENDBRANCH  14  16
ENDBRANCH   2  11
BRANCH   5  22
ATOM     22  N   UNL     1       1.464  10.577  18.287  0.00  0.00    +0.000 N 
ATOM     23  H   UNL     1       0.988  11.451  18.502  0.00  0.00    +0.000 HD
ATOM     24  H   UNL     1       1.250  10.210  17.365  0.00  0.00    +0.000 HD
ENDBRANCH   5  22
BRANCH   1  25
ATOM     25  C   UNL     1       2.207   4.983  20.636  0.00  0.00    +0.000 C 
BRANCH  25  27
ATOM     26  C   UNL     1       0.872   3.326  19.188  0.00  0.00    +0.000 C 
ATOM     27  C   UNL     1       0.882   4.214  20.423  0.00  0.00    +0.000 C 
ENDBRANCH  25  27
BRANCH  25  28
ATOM     28  C   UNL     1       3.482   4.159  20.370  0.00  0.00    +0.000 C 
ATOM     29  C   UNL     1       3.426   2.755  20.973  0.00  0.00    +0.000 C 
ENDBRANCH  25  28
ENDBRANCH   1  25
TORSDOF 8
ENDMDL
MODEL 7
REMARK VINA RESULT:      -6.5      4.052      5.850
REMARK  Name = 
REMARK  10 active torsions:
REMARK  status: ('A' for Active; 'I' for Inactive)
REMARK    1  A    between atoms: C_1  and  C_2
REMARK    2  A    between atoms: C_2  and  C_3
REMARK    3  A    between atoms: C_3  and  C_4
REMARK    4  A    between atoms: C_3  and  N_6
REMARK    5  A    between atoms: C_4  and  C_5
REMARK    6  A    between atoms: C_7  and  C_8
REMARK    7  A    between atoms: C_11  and  P_12
REMARK    8  A    between atoms: P_12  and  O_14
REMARK    9  A    between atoms: P_12  and  O_15
REMARK   10  A    between atoms: C_19  and  N_20
REMARK                            x       y       z     vdW  Elec       q    Type
REMARK                         _______ _______ _______ _____ _____    ______ ____
ROOT
ATOM      1  N   UNL     1       6.059   5.475  16.526  0.00  0.00    +0.000 N 
ATOM      2  C   UNL     1       4.816   4.870  16.596  0.00  0.00    +0.000 A 
ATOM      3  N   UNL     1       4.529   4.252  15.467  0.00  0.00    +0.000 NA
ATOM      4  C   UNL     1       5.616   4.439  14.640  0.00  0.00    +0.000 A 
ATOM      5  C   UNL     1       5.829   3.958  13.323  0.00  0.00    +0.000 A 
ATOM      6  C   UNL     1       7.027   4.343  12.694  0.00  0.00    +0.000 A 
ATOM      7  F   UNL     1       7.281   3.921  11.443  0.00  0.00    +0.000 F 
ATOM      8  C   UNL     1       7.980   5.132  13.325  0.00  0.00    +0.000 A 
ATOM      9  C   UNL     1       7.775   5.591  14.627  0.00  0.00    +0.000 A 
ATOM     10  C   UNL     1       6.584   5.221  15.269  0.00  0.00    +0.000 A 
ENDROOT
BRANCH   2  11
ATOM     11  C   UNL     1       3.929   4.869  17.733  0.00  0.00    +0.000 A 
ATOM     12  C   UNL     1       3.142   5.899  18.223  0.00  0.00    +0.000 A 
ATOM     13  C   UNL     1       2.391   5.383  19.315  0.00  0.00    +0.000 A 
ATOM     14  C   UNL     1       2.696   4.041  19.387  0.00  0.00    +0.000 A 
ATOM     15  O   UNL     1       3.679   3.750  18.484  0.00  0.00    +0.000 OA
BRANCH  14  16
ATOM     16  P   UNL     1       1.889   2.813  20.310  0.00  0.00    +0.000 P 
ATOM     17  O   UNL     1       2.447   2.588  21.678  0.00  0.00    +0.000 OA
BRANCH  16  18
ATOM     18  O   UNL     1       0.341   3.262  20.341  0.00  0.00    +0.000 OA
ATOM     19  H   UNL     1      -0.217   2.650  19.833  0.00  0.00    +0.000 HD
ENDBRANCH  16  18
BRANCH  16  20
ATOM     20  O   UNL     1       1.751   1.456  19.469  0.00  0.00    +0.000 OA
ATOM     21  H   UNL     1       1.273   0.800  20.009  0.00  0.00    +0.000 HD
ENDBRANCH  16  20
ENDBRANCH  14  16
ENDBRANCH   2  11
BRANCH   5  22
ATOM     22  N   UNL     1       4.867   3.196  12.625  0.00  0.00    +0.000 N 
ATOM     23  H   UNL     1       4.597   2.373  13.160  0.00  0.00    +0.000 HD
ATOM     24  H   UNL     1       5.155   2.988  11.673  0.00  0.00    +0.000 HD
ENDBRANCH   5  22
BRANCH   1  25
ATOM     25  C   UNL     1       6.698   6.289  17.569  0.00  0.00    +0.000 C 
BRANCH  25  27
ATOM     26  C   UNL     1       7.634   5.434  19.808  0.00  0.00    +0.000 C 
ATOM     27  C   UNL     1       7.798   5.482  18.297  0.00  0.00    +0.000 C 
ENDBRANCH  25  27
BRANCH  25  28
ATOM     28  C   UNL     1       7.149   7.665  17.041  0.00  0.00    +0.000 C 
ATOM     29  C   UNL     1       8.139   8.369  17.969  0.00  0.00    +0.000 C 
ENDBRANCH  25  28
ENDBRANCH   1  25
TORSDOF 8
ENDMDL
MODEL 8
REMARK VINA RESULT:      -6.5      3.666      5.628
REMARK  Name = 
REMARK  10 active torsions:
REMARK  status: ('A' for Active; 'I' for Inactive)
REMARK    1  A    between atoms: C_1  and  C_2
REMARK    2  A    between atoms: C_2  and  C_3
REMARK    3  A    between atoms: C_3  and  C_4
REMARK    4  A    between atoms: C_3  and  N_6
REMARK    5  A    between atoms: C_4  and  C_5
REMARK    6  A    between atoms: C_7  and  C_8
REMARK    7  A    between atoms: C_11  and  P_12
REMARK    8  A    between atoms: P_12  and  O_14
REMARK    9  A    between atoms: P_12  and  O_15
REMARK   10  A    between atoms: C_19  and  N_20
REMARK                            x       y       z     vdW  Elec       q    Type
REMARK                         _______ _______ _______ _____ _____    ______ ____
ROOT
ATOM      1  N   UNL     1       5.747   4.700  16.588  0.00  0.00    +0.000 N 
ATOM      2  C   UNL     1       4.828   3.672  16.484  0.00  0.00    +0.000 A 
ATOM      3  N   UNL     1       4.842   3.150  15.273  0.00  0.00    +0.000 NA
ATOM      4  C   UNL     1       5.806   3.838  14.568  0.00  0.00    +0.000 A 
ATOM      5  C   UNL     1       6.237   3.654  13.230  0.00  0.00    +0.000 A 
ATOM      6  C   UNL     1       7.220   4.539  12.753  0.00  0.00    +0.000 A 
ATOM      7  F   UNL     1       7.663   4.415  11.490  0.00  0.00    +0.000 F 
ATOM      8  C   UNL     1       7.775   5.535  13.547  0.00  0.00    +0.000 A 
ATOM      9  C   UNL     1       7.360   5.705  14.868  0.00  0.00    +0.000 A 
ATOM     10  C   UNL     1       6.377   4.833  15.360  0.00  0.00    +0.000 A 
ENDROOT
BRANCH   2  11
ATOM     11  C   UNL     1       3.966   3.186  17.533  0.00  0.00    +0.000 A 
ATOM     12  C   UNL     1       3.714   1.879  17.917  0.00  0.00    +0.000 A 
ATOM     13  C   UNL     1       2.853   1.922  19.048  0.00  0.00    +0.000 A 
ATOM     14  C   UNL     1       2.687   3.256  19.350  0.00  0.00    +0.000 A 
ATOM     15  O   UNL     1       3.295   4.018  18.391  0.00  0.00    +0.000 OA
BRANCH  14  16
ATOM     16  P   UNL     1       1.995   3.946  20.784  0.00  0.00    +0.000 P 
ATOM     17  O   UNL     1       2.279   3.193  22.043  0.00  0.00    +0.000 OA
BRANCH  16  18
ATOM     18  O   UNL     1       2.550   5.459  20.830  0.00  0.00    +0.000 OA
ATOM     19  H   UNL     1       2.669   5.766  21.744  0.00  0.00    +0.000 HD
ENDBRANCH  16  18
BRANCH  16  20
ATOM     20  O   UNL     1       0.433   4.247  20.584  0.00  0.00    +0.000 OA
ATOM     21  H   UNL     1       0.336   5.071  20.073  0.00  0.00    +0.000 HD
ENDBRANCH  16  20
ENDBRANCH  14  16
ENDBRANCH   2  11
BRANCH   5  22
ATOM     22  N   UNL     1       5.665   2.689  12.372  0.00  0.00    +0.000 N 
ATOM     23  H   UNL     1       4.655   2.647  12.493  0.00  0.00    +0.000 HD
ATOM     24  H   UNL     1       6.124   1.786  12.447  0.00  0.00    +0.000 HD
ENDBRANCH   5  22
BRANCH   1  25
ATOM     25  C   UNL     1       5.988   5.546  17.765  0.00  0.00    +0.000 C 
BRANCH  25  27
ATOM     26  C   UNL     1       8.099   6.692  18.688  0.00  0.00    +0.000 C 
ATOM     27  C   UNL     1       7.442   5.387  18.268  0.00  0.00    +0.000 C 
ENDBRANCH  25  27
BRANCH  25  28
ATOM     28  C   UNL     1       5.539   7.003  17.540  0.00  0.00    +0.000 C 
ATOM     29  C   UNL     1       4.023   7.154  17.419  0.00  0.00    +0.000 C 
ENDBRANCH  25  28
ENDBRANCH   1  25
TORSDOF 8
ENDMDL
MODEL 9
REMARK VINA RESULT:      -6.4      0.952      1.095
REMARK  Name = 
REMARK  10 active torsions:
REMARK  status: ('A' for Active; 'I' for Inactive)
REMARK    1  A    between atoms: C_1  and  C_2
REMARK    2  A    between atoms: C_2  and  C_3
REMARK    3  A    between atoms: C_3  and  C_4
REMARK    4  A    between atoms: C_3  and  N_6
REMARK    5  A    between atoms: C_4  and  C_5
REMARK    6  A    between atoms: C_7  and  C_8
REMARK    7  A    between atoms: C_11  and  P_12
REMARK    8  A    between atoms: P_12  and  O_14
REMARK    9  A    between atoms: P_12  and  O_15
REMARK   10  A    between atoms: C_19  and  N_20
REMARK                            x       y       z     vdW  Elec       q    Type
REMARK                         _______ _______ _______ _____ _____    ______ ____
ROOT
ATOM      1  N   UNL     1       2.876   5.625  19.011  0.00  0.00    +0.000 N 
ATOM      2  C   UNL     1       2.922   7.001  18.871  0.00  0.00    +0.000 A 
ATOM      3  N   UNL     1       3.975   7.368  18.167  0.00  0.00    +0.000 NA
ATOM      4  C   UNL     1       4.629   6.205  17.820  0.00  0.00    +0.000 A 
ATOM      5  C   UNL     1       5.803   6.038  17.042  0.00  0.00    +0.000 A 
ATOM      6  C   UNL     1       6.276   4.723  16.881  0.00  0.00    +0.000 A 
ATOM      7  F   UNL     1       7.387   4.505  16.158  0.00  0.00    +0.000 F 
ATOM      8  C   UNL     1       5.624   3.625  17.427  0.00  0.00    +0.000 A 
ATOM      9  C   UNL     1       4.460   3.790  18.180  0.00  0.00    +0.000 A 
ATOM     10  C   UNL     1       3.976   5.095  18.354  0.00  0.00    +0.000 A 
ENDROOT
BRANCH   2  11
ATOM     11  C   UNL     1       1.962   7.945  19.387  0.00  0.00    +0.000 A 
ATOM     12  C   UNL     1       1.492   8.088  20.683  0.00  0.00    +0.000 A 
ATOM     13  C   UNL     1       0.615   9.207  20.701  0.00  0.00    +0.000 A 
ATOM     14  C   UNL     1       0.656   9.743  19.433  0.00  0.00    +0.000 A 
ATOM     15  O   UNL     1       1.407   8.938  18.623  0.00  0.00    +0.000 OA
BRANCH  14  16
ATOM     16  P   UNL     1       0.040  11.277  18.904  0.00  0.00    +0.000 P 
ATOM     17  O   UNL     1      -0.528  12.133  19.990  0.00  0.00    +0.000 OA
BRANCH  16  18
ATOM     18  O   UNL     1       1.273  11.983  18.142  0.00  0.00    +0.000 OA
ATOM     19  H   UNL     1       1.529  12.815  18.574  0.00  0.00    +0.000 HD
ENDBRANCH  16  18
BRANCH  16  20
ATOM     20  O   UNL     1      -0.964  11.101  17.668  0.00  0.00    +0.000 OA
ATOM     21  H   UNL     1      -1.616  11.826  17.688  0.00  0.00    +0.000 HD
ENDBRANCH  16  20
ENDBRANCH  14  16
ENDBRANCH   2  11
BRANCH   5  22
ATOM     22  N   UNL     1       6.526   7.129  16.511  0.00  0.00    +0.000 N 
ATOM     23  H   UNL     1       7.529   6.988  16.621  0.00  0.00    +0.000 HD
ATOM     24  H   UNL     1       6.198   8.021  16.868  0.00  0.00    +0.000 HD
ENDBRANCH   5  22
BRANCH   1  25
ATOM     25  C   UNL     1       1.879   4.853  19.765  0.00  0.00    +0.000 C 
BRANCH  25  27
ATOM     26  C   UNL     1       1.049   4.084  17.454  0.00  0.00    +0.000 C 
ATOM     27  C   UNL     1       1.311   3.702  18.902  0.00  0.00    +0.000 C 
ENDBRANCH  25  27
BRANCH  25  28
ATOM     28  C   UNL     1       2.397   4.425  21.152  0.00  0.00    +0.000 C 
ATOM     29  C   UNL     1       2.222   2.932  21.424  0.00  0.00    +0.000 C 
ENDBRANCH  25  28
ENDBRANCH   1  25
TORSDOF 8
ENDMDL
