MODEL 1
REMARK VINA RESULT:      -7.4      0.000      0.000
REMARK  Name = 
REMARK  8 active torsions:
REMARK  status: ('A' for Active; 'I' for Inactive)
REMARK    1  A    between atoms: C_1  and  N_2
REMARK    2  A    between atoms: N_2  and  C_3
REMARK    3  A    between atoms: N_2  and  C_15
REMARK    4  A    between atoms: C_3  and  C_4
REMARK    5  A    between atoms: N_6  and  C_7
REMARK    6  A    between atoms: C_7  and  C_8
REMARK    7  A    between atoms: C_15  and  C_16
REMARK    8  A    between atoms: N_18  and  C_19
REMARK                            x       y       z     vdW  Elec       q    Type
REMARK                         _______ _______ _______ _____ _____    ______ ____
ROOT
ATOM      1  C   UNL     1       4.375   1.583  21.003  0.00  0.00    +0.000 C 
ATOM      2  N   UNL     1       3.658   2.658  20.301  0.00  0.00    +0.000 NA
ENDROOT
BRANCH   2   3
ATOM      3  C   UNL     1       3.210   2.193  18.961  0.00  0.00    +0.000 C 
BRANCH   3   4
ATOM      4  C   UNL     1       3.617   3.082  17.773  0.00  0.00    +0.000 C 
ATOM      5  O   UNL     1       2.825   3.674  17.046  0.00  0.00    +0.000 OA
ATOM      6  N   UNL     1       4.982   3.150  17.577  0.00  0.00    +0.000 N 
ATOM      7  H   UNL     1       5.611   2.803  18.291  0.00  0.00    +0.000 HD
BRANCH   6   8
ATOM      8  C   UNL     1       5.544   3.977  16.532  0.00  0.00    +0.000 C 
BRANCH   8   9
ATOM      9  C   UNL     1       6.295   5.152  17.102  0.00  0.00    +0.000 A 
ATOM     10  C   UNL     1       7.279   4.915  18.079  0.00  0.00    +0.000 A 
ATOM     11  C   UNL     1       8.011   5.967  18.631  0.00  0.00    +0.000 A 
ATOM     12  C   UNL     1       7.775   7.274  18.215  0.00  0.00    +0.000 A 
ATOM     13  C   UNL     1       6.814   7.525  17.234  0.00  0.00    +0.000 A 
ATOM     14  C   UNL     1       6.082   6.471  16.676  0.00  0.00    +0.000 A 
ATOM     15 CL   UNL     1       4.937   6.858  15.442  0.00  0.00    +0.000 Cl
ENDBRANCH   8   9
ENDBRANCH   6   8
ENDBRANCH   3   4
ENDBRANCH   2   3
BRANCH   2  16
ATOM     16  C   UNL     1       2.551   3.136  21.167  0.00  0.00    +0.000 C 
BRANCH  16  17
ATOM     17  C   UNL     1       1.829   4.350  20.587  0.00  0.00    +0.000 C 
ATOM     18  O   UNL     1       0.626   4.300  20.341  0.00  0.00    +0.000 OA
ATOM     19  N   UNL     1       2.659   5.443  20.380  0.00  0.00    +0.000 N 
ATOM     20  H   UNL     1       3.654   5.246  20.433  0.00  0.00    +0.000 HD
BRANCH  19  21
ATOM     21  C   UNL     1       2.252   6.703  19.891  0.00  0.00    +0.000 A 
ATOM     22  C   UNL     1       2.589   7.165  18.612  0.00  0.00    +0.000 A 
ATOM     23  C   UNL     1       2.228   8.446  18.189  0.00  0.00    +0.000 A 
ATOM     24  C   UNL     1       1.506   9.278  19.037  0.00  0.00    +0.000 A 
ATOM     25  C   UNL     1       1.132   8.805  20.288  0.00  0.00    +0.000 A 
ATOM     26  F   UNL     1       0.428   9.601  21.103  0.00  0.00    +0.000 F 
ATOM     27  C   UNL     1       1.485   7.525  20.720  0.00  0.00    +0.000 A 
ENDBRANCH  19  21
ENDBRANCH  16  17
ENDBRANCH   2  16
TORSDOF 7
ENDMDL
MODEL 2
REMARK VINA RESULT:      -7.2      3.040      6.632
REMARK  Name = 
REMARK  8 active torsions:
REMARK  status: ('A' for Active; 'I' for Inactive)
REMARK    1  A    between atoms: C_1  and  N_2
REMARK    2  A    between atoms: N_2  and  C_3
REMARK    3  A    between atoms: N_2  and  C_15
REMARK    4  A    between atoms: C_3  and  C_4
REMARK    5  A    between atoms: N_6  and  C_7
REMARK    6  A    between atoms: C_7  and  C_8
REMARK    7  A    between atoms: C_15  and  C_16
REMARK    8  A    between atoms: N_18  and  C_19
REMARK                            x       y       z     vdW  Elec       q    Type
REMARK                         _______ _______ _______ _____ _____    ______ ____
ROOT
ATOM      1  C   UNL     1       0.713   3.138  20.276  0.00  0.00    +0.000 C 
ATOM      2  N   UNL     1       1.953   3.776  19.812  0.00  0.00    +0.000 NA
ENDROOT
BRANCH   2   3
ATOM      3  C   UNL     1       2.276   4.956  20.658  0.00  0.00    +0.000 C 
BRANCH   3   4
ATOM      4  C   UNL     1       2.254   6.319  19.943  0.00  0.00    +0.000 C 
ATOM      5  O   UNL     1       2.689   6.517  18.813  0.00  0.00    +0.000 OA
ATOM      6  N   UNL     1       1.702   7.331  20.703  0.00  0.00    +0.000 N 
ATOM      7  H   UNL     1       1.193   7.105  21.549  0.00  0.00    +0.000 HD
BRANCH   6   8
ATOM      8  C   UNL     1       1.560   8.669  20.171  0.00  0.00    +0.000 C 
BRANCH   8   9
ATOM      9  C   UNL     1       0.717   9.533  21.072  0.00  0.00    +0.000 A 
ATOM     10  C   UNL     1       0.171   8.965  22.237  0.00  0.00    +0.000 A 
ATOM     11  C   UNL     1      -0.608   9.725  23.110  0.00  0.00    +0.000 A 
ATOM     12  C   UNL     1      -0.853  11.067  22.837  0.00  0.00    +0.000 A 
ATOM     13  C   UNL     1      -0.305  11.652  21.694  0.00  0.00    +0.000 A 
ATOM     14  C   UNL     1       0.480  10.893  20.820  0.00  0.00    +0.000 A 
ATOM     15 CL   UNL     1       1.153  11.696  19.446  0.00  0.00    +0.000 Cl
ENDBRANCH   8   9
ENDBRANCH   6   8
ENDBRANCH   3   4
ENDBRANCH   2   3
BRANCH   2  16
ATOM     16  C   UNL     1       3.030   2.755  19.777  0.00  0.00    +0.000 C 
BRANCH  16  17
ATOM     17  C   UNL     1       4.305   3.263  19.108  0.00  0.00    +0.000 C 
ATOM     18  O   UNL     1       5.383   3.204  19.696  0.00  0.00    +0.000 OA
ATOM     19  N   UNL     1       4.097   3.775  17.835  0.00  0.00    +0.000 N 
ATOM     20  H   UNL     1       3.127   3.946  17.591  0.00  0.00    +0.000 HD
BRANCH  19  21
ATOM     21  C   UNL     1       5.100   4.277  16.978  0.00  0.00    +0.000 A 
ATOM     22  C   UNL     1       5.398   3.697  15.738  0.00  0.00    +0.000 A 
ATOM     23  C   UNL     1       6.445   4.178  14.949  0.00  0.00    +0.000 A 
ATOM     24  C   UNL     1       7.199   5.262  15.383  0.00  0.00    +0.000 A 
ATOM     25  C   UNL     1       6.876   5.867  16.591  0.00  0.00    +0.000 A 
ATOM     26  F   UNL     1       7.595   6.918  17.008  0.00  0.00    +0.000 F 
ATOM     27  C   UNL     1       5.830   5.396  17.387  0.00  0.00    +0.000 A 
ENDBRANCH  19  21
ENDBRANCH  16  17
ENDBRANCH   2  16
TORSDOF 7
ENDMDL
MODEL 3
REMARK VINA RESULT:      -7.1      2.359      4.909
REMARK  Name = 
REMARK  8 active torsions:
REMARK  status: ('A' for Active; 'I' for Inactive)
REMARK    1  A    between atoms: C_1  and  N_2
REMARK    2  A    between atoms: N_2  and  C_3
REMARK    3  A    between atoms: N_2  and  C_15
REMARK    4  A    between atoms: C_3  and  C_4
REMARK    5  A    between atoms: N_6  and  C_7
REMARK    6  A    between atoms: C_7  and  C_8
REMARK    7  A    between atoms: C_15  and  C_16
REMARK    8  A    between atoms: N_18  and  C_19
REMARK                            x       y       z     vdW  Elec       q    Type
REMARK                         _______ _______ _______ _____ _____    ______ ____
ROOT
ATOM      1  C   UNL     1       6.986   5.107  15.389  0.00  0.00    +0.000 C 
ATOM      2  N   UNL     1       6.080   5.421  16.503  0.00  0.00    +0.000 NA
ENDROOT
BRANCH   2   3
ATOM      3  C   UNL     1       6.858   5.817  17.707  0.00  0.00    +0.000 C 
BRANCH   3   4
ATOM      4  C   UNL     1       6.511   5.067  19.005  0.00  0.00    +0.000 C 
ATOM      5  O   UNL     1       7.135   5.176  20.057  0.00  0.00    +0.000 OA
ATOM      6  N   UNL     1       5.421   4.228  18.883  0.00  0.00    +0.000 N 
ATOM      7  H   UNL     1       4.825   4.295  18.068  0.00  0.00    +0.000 HD
BRANCH   6   8
ATOM      8  C   UNL     1       4.928   3.479  20.018  0.00  0.00    +0.000 C 
BRANCH   8   9
ATOM      9  C   UNL     1       3.429   3.339  19.975  0.00  0.00    +0.000 A 
ATOM     10  C   UNL     1       2.643   4.255  20.698  0.00  0.00    +0.000 A 
ATOM     11  C   UNL     1       1.250   4.176  20.683  0.00  0.00    +0.000 A 
ATOM     12  C   UNL     1       0.616   3.182  19.944  0.00  0.00    +0.000 A 
ATOM     13  C   UNL     1       1.380   2.274  19.206  0.00  0.00    +0.000 A 
ATOM     14  C   UNL     1       2.776   2.355  19.217  0.00  0.00    +0.000 A 
ATOM     15 CL   UNL     1       3.650   1.220  18.251  0.00  0.00    +0.000 Cl
ENDBRANCH   8   9
ENDBRANCH   6   8
ENDBRANCH   3   4
ENDBRANCH   2   3
BRANCH   2  16
ATOM     16  C   UNL     1       5.112   6.452  16.053  0.00  0.00    +0.000 C 
BRANCH  16  17
ATOM     17  C   UNL     1       3.918   6.593  16.995  0.00  0.00    +0.000 C 
ATOM     18  O   UNL     1       3.324   5.597  17.402  0.00  0.00    +0.000 OA
ATOM     19  N   UNL     1       3.606   7.911  17.302  0.00  0.00    +0.000 N 
ATOM     20  H   UNL     1       4.054   8.609  16.716  0.00  0.00    +0.000 HD
BRANCH  19  21
ATOM     21  C   UNL     1       2.578   8.330  18.173  0.00  0.00    +0.000 A 
ATOM     22  C   UNL     1       1.718   9.395  17.874  0.00  0.00    +0.000 A 
ATOM     23  C   UNL     1       0.758   9.826  18.792  0.00  0.00    +0.000 A 
ATOM     24  C   UNL     1       0.633   9.184  20.018  0.00  0.00    +0.000 A 
ATOM     25  C   UNL     1       1.455   8.100  20.298  0.00  0.00    +0.000 A 
ATOM     26  F   UNL     1       1.331   7.474  21.476  0.00  0.00    +0.000 F 
ATOM     27  C   UNL     1       2.416   7.658  19.387  0.00  0.00    +0.000 A 
ENDBRANCH  19  21
ENDBRANCH  16  17
ENDBRANCH   2  16
TORSDOF 7
ENDMDL
MODEL 4
REMARK VINA RESULT:      -6.9      3.124      6.437
REMARK  Name = 
REMARK  8 active torsions:
REMARK  status: ('A' for Active; 'I' for Inactive)
REMARK    1  A    between atoms: C_1  and  N_2
REMARK    2  A    between atoms: N_2  and  C_3
REMARK    3  A    between atoms: N_2  and  C_15
REMARK    4  A    between atoms: C_3  and  C_4
REMARK    5  A    between atoms: N_6  and  C_7
REMARK    6  A    between atoms: C_7  and  C_8
REMARK    7  A    between atoms: C_15  and  C_16
REMARK    8  A    between atoms: N_18  and  C_19
REMARK                            x       y       z     vdW  Elec       q    Type
REMARK                         _______ _______ _______ _____ _____    ______ ____
ROOT
ATOM      1  C   UNL     1       1.521   2.631  21.642  0.00  0.00    +0.000 C 
ATOM      2  N   UNL     1       1.882   3.309  20.389  0.00  0.00    +0.000 NA
ENDROOT
BRANCH   2   3
ATOM      3  C   UNL     1       2.584   4.588  20.677  0.00  0.00    +0.000 C 
BRANCH   3   4
ATOM      4  C   UNL     1       2.193   5.782  19.788  0.00  0.00    +0.000 C 
ATOM      5  O   UNL     1       1.934   5.700  18.591  0.00  0.00    +0.000 OA
ATOM      6  N   UNL     1       2.172   6.988  20.460  0.00  0.00    +0.000 N 
ATOM      7  H   UNL     1       2.213   7.000  21.472  0.00  0.00    +0.000 HD
BRANCH   6   8
ATOM      8  C   UNL     1       1.782   8.208  19.789  0.00  0.00    +0.000 C 
BRANCH   8   9
ATOM      9  C   UNL     1       0.986   9.107  20.698  0.00  0.00    +0.000 A 
ATOM     10  C   UNL     1       0.722   8.677  22.012  0.00  0.00    +0.000 A 
ATOM     11  C   UNL     1      -0.001   9.476  22.898  0.00  0.00    +0.000 A 
ATOM     12  C   UNL     1      -0.472  10.720  22.489  0.00  0.00    +0.000 A 
ATOM     13  C   UNL     1      -0.205  11.170  21.194  0.00  0.00    +0.000 A 
ATOM     14  C   UNL     1       0.524  10.372  20.306  0.00  0.00    +0.000 A 
ATOM     15 CL   UNL     1       0.845  11.012  18.734  0.00  0.00    +0.000 Cl
ENDBRANCH   8   9
ENDBRANCH   6   8
ENDBRANCH   3   4
ENDBRANCH   2   3
BRANCH   2  16
ATOM     16  C   UNL     1       2.669   2.372  19.550  0.00  0.00    +0.000 C 
BRANCH  16  17
ATOM     17  C   UNL     1       4.002   2.963  19.095  0.00  0.00    +0.000 C 
ATOM     18  O   UNL     1       5.006   2.846  19.793  0.00  0.00    +0.000 OA
ATOM     19  N   UNL     1       3.930   3.616  17.872  0.00  0.00    +0.000 N 
ATOM     20  H   UNL     1       2.990   3.806  17.537  0.00  0.00    +0.000 HD
BRANCH  19  21
ATOM     21  C   UNL     1       5.013   4.220  17.198  0.00  0.00    +0.000 A 
ATOM     22  C   UNL     1       5.689   5.340  17.700  0.00  0.00    +0.000 A 
ATOM     23  C   UNL     1       6.710   5.953  16.971  0.00  0.00    +0.000 A 
ATOM     24  C   UNL     1       7.083   5.441  15.734  0.00  0.00    +0.000 A 
ATOM     25  C   UNL     1       6.445   4.304  15.255  0.00  0.00    +0.000 A 
ATOM     26  F   UNL     1       6.808   3.803  14.067  0.00  0.00    +0.000 F 
ATOM     27  C   UNL     1       5.424   3.681  15.976  0.00  0.00    +0.000 A 
ENDBRANCH  19  21
ENDBRANCH  16  17
ENDBRANCH   2  16
TORSDOF 7
ENDMDL
MODEL 5
REMARK VINA RESULT:      -6.9      1.645      2.476
REMARK  Name = 
REMARK  8 active torsions:
REMARK  status: ('A' for Active; 'I' for Inactive)
REMARK    1  A    between atoms: C_1  and  N_2
REMARK    2  A    between atoms: N_2  and  C_3
REMARK    3  A    between atoms: N_2  and  C_15
REMARK    4  A    between atoms: C_3  and  C_4
REMARK    5  A    between atoms: N_6  and  C_7
REMARK    6  A    between atoms: C_7  and  C_8
REMARK    7  A    between atoms: C_15  and  C_16
REMARK    8  A    between atoms: N_18  and  C_19
REMARK                            x       y       z     vdW  Elec       q    Type
REMARK                         _______ _______ _______ _____ _____    ______ ____
ROOT
ATOM      1  C   UNL     1       4.389   1.804  20.981  0.00  0.00    +0.000 C 
ATOM      2  N   UNL     1       3.605   2.846  20.303  0.00  0.00    +0.000 NA
ENDROOT
BRANCH   2   3
ATOM      3  C   UNL     1       3.135   2.361  18.978  0.00  0.00    +0.000 C 
BRANCH   3   4
ATOM      4  C   UNL     1       3.100   3.411  17.854  0.00  0.00    +0.000 C 
ATOM      5  O   UNL     1       2.200   3.512  17.026  0.00  0.00    +0.000 OA
ATOM      6  N   UNL     1       4.202   4.244  17.843  0.00  0.00    +0.000 N 
ATOM      7  H   UNL     1       4.831   4.255  18.636  0.00  0.00    +0.000 HD
BRANCH   6   8
ATOM      8  C   UNL     1       4.313   5.318  16.881  0.00  0.00    +0.000 C 
BRANCH   8   9
ATOM      9  C   UNL     1       5.332   5.003  15.818  0.00  0.00    +0.000 A 
ATOM     10  C   UNL     1       4.930   4.254  14.697  0.00  0.00    +0.000 A 
ATOM     11  C   UNL     1       5.832   3.944  13.678  0.00  0.00    +0.000 A 
ATOM     12  C   UNL     1       7.151   4.380  13.759  0.00  0.00    +0.000 A 
ATOM     13  C   UNL     1       7.563   5.139  14.856  0.00  0.00    +0.000 A 
ATOM     14  C   UNL     1       6.659   5.454  15.876  0.00  0.00    +0.000 A 
ATOM     15 CL   UNL     1       7.235   6.427  17.182  0.00  0.00    +0.000 Cl
ENDBRANCH   8   9
ENDBRANCH   6   8
ENDBRANCH   3   4
ENDBRANCH   2   3
BRANCH   2  16
ATOM     16  C   UNL     1       2.506   3.277  21.204  0.00  0.00    +0.000 C 
BRANCH  16  17
ATOM     17  C   UNL     1       1.755   4.499  20.679  0.00  0.00    +0.000 C 
ATOM     18  O   UNL     1       0.589   4.400  20.305  0.00  0.00    +0.000 OA
ATOM     19  N   UNL     1       2.520   5.658  20.671  0.00  0.00    +0.000 N 
ATOM     20  H   UNL     1       3.516   5.520  20.806  0.00  0.00    +0.000 HD
BRANCH  19  21
ATOM     21  C   UNL     1       2.070   6.935  20.273  0.00  0.00    +0.000 A 
ATOM     22  C   UNL     1       1.334   7.777  21.117  0.00  0.00    +0.000 A 
ATOM     23  C   UNL     1       0.846   9.005  20.664  0.00  0.00    +0.000 A 
ATOM     24  C   UNL     1       1.104   9.416  19.362  0.00  0.00    +0.000 A 
ATOM     25  C   UNL     1       1.872   8.602  18.537  0.00  0.00    +0.000 A 
ATOM     26  F   UNL     1       2.129   9.000  17.285  0.00  0.00    +0.000 F 
ATOM     27  C   UNL     1       2.367   7.375  18.981  0.00  0.00    +0.000 A 
ENDBRANCH  19  21
ENDBRANCH  16  17
ENDBRANCH   2  16
TORSDOF 7
ENDMDL
MODEL 6
REMARK VINA RESULT:      -6.8      4.460      7.210
REMARK  Name = 
REMARK  8 active torsions:
REMARK  status: ('A' for Active; 'I' for Inactive)
REMARK    1  A    between atoms: C_1  and  N_2
REMARK    2  A    between atoms: N_2  and  C_3
REMARK    3  A    between atoms: N_2  and  C_15
REMARK    4  A    between atoms: C_3  and  C_4
REMARK    5  A    between atoms: N_6  and  C_7
REMARK    6  A    between atoms: C_7  and  C_8
REMARK    7  A    between atoms: C_15  and  C_16
REMARK    8  A    between atoms: N_18  and  C_19
REMARK                            x       y       z     vdW  Elec       q    Type
REMARK                         _______ _______ _______ _____ _____    ______ ____
ROOT
ATOM      1  C   UNL     1       7.247   5.954  16.748  0.00  0.00    +0.000 C 
ATOM      2  N   UNL     1       7.081   6.634  18.040  0.00  0.00    +0.000 NA
ENDROOT
BRANCH   2   3
ATOM      3  C   UNL     1       6.526   5.696  19.051  0.00  0.00    +0.000 C 
BRANCH   3   4
ATOM      4  C   UNL     1       5.174   5.052  18.696  0.00  0.00    +0.000 C 
ATOM      5  O   UNL     1       4.136   5.679  18.504  0.00  0.00    +0.000 OA
ATOM      6  N   UNL     1       5.221   3.674  18.624  0.00  0.00    +0.000 N 
ATOM      7  H   UNL     1       6.116   3.202  18.608  0.00  0.00    +0.000 HD
BRANCH   6   8
ATOM      8  C   UNL     1       4.051   2.907  18.257  0.00  0.00    +0.000 C 
BRANCH   8   9
ATOM      9  C   UNL     1       3.011   2.934  19.346  0.00  0.00    +0.000 A 
ATOM     10  C   UNL     1       3.351   2.436  20.618  0.00  0.00    +0.000 A 
ATOM     11  C   UNL     1       2.428   2.447  21.665  0.00  0.00    +0.000 A 
ATOM     12  C   UNL     1       1.151   2.960  21.462  0.00  0.00    +0.000 A 
ATOM     13  C   UNL     1       0.801   3.474  20.211  0.00  0.00    +0.000 A 
ATOM     14  C   UNL     1       1.727   3.467  19.162  0.00  0.00    +0.000 A 
ATOM     15 CL   UNL     1       1.232   4.153  17.655  0.00  0.00    +0.000 Cl
ENDBRANCH   8   9
ENDBRANCH   6   8
ENDBRANCH   3   4
ENDBRANCH   2   3
BRANCH   2  16
ATOM     16  C   UNL     1       8.381   7.233  18.433  0.00  0.00    +0.000 C 
BRANCH  16  17
ATOM     17  C   UNL     1       8.375   8.759  18.364  0.00  0.00    +0.000 C 
ATOM     18  O   UNL     1       7.625   9.344  17.586  0.00  0.00    +0.000 OA
ATOM     19  N   UNL     1       9.276   9.357  19.235  0.00  0.00    +0.000 N 
ATOM     20  H   UNL     1       9.962   8.730  19.644  0.00  0.00    +0.000 HD
BRANCH  19  21
ATOM     21  C   UNL     1       9.454  10.746  19.406  0.00  0.00    +0.000 A 
ATOM     22  C   UNL     1       9.316  11.381  20.647  0.00  0.00    +0.000 A 
ATOM     23  C   UNL     1       9.430  12.768  20.765  0.00  0.00    +0.000 A 
ATOM     24  C   UNL     1       9.702  13.539  19.641  0.00  0.00    +0.000 A 
ATOM     25  C   UNL     1       9.884  12.907  18.417  0.00  0.00    +0.000 A 
ATOM     26  F   UNL     1      10.156  13.647  17.334  0.00  0.00    +0.000 F 
ATOM     27  C   UNL     1       9.775  11.521  18.289  0.00  0.00    +0.000 A 
ENDBRANCH  19  21
ENDBRANCH  16  17
ENDBRANCH   2  16
TORSDOF 7
ENDMDL
MODEL 7
REMARK VINA RESULT:      -6.7      2.294      4.775
REMARK  Name = 
REMARK  8 active torsions:
REMARK  status: ('A' for Active; 'I' for Inactive)
REMARK    1  A    between atoms: C_1  and  N_2
REMARK    2  A    between atoms: N_2  and  C_3
REMARK    3  A    between atoms: N_2  and  C_15
REMARK    4  A    between atoms: C_3  and  C_4
REMARK    5  A    between atoms: N_6  and  C_7
REMARK    6  A    between atoms: C_7  and  C_8
REMARK    7  A    between atoms: C_15  and  C_16
REMARK    8  A    between atoms: N_18  and  C_19
REMARK                            x       y       z     vdW  Elec       q    Type
REMARK                         _______ _______ _______ _____ _____    ______ ____
ROOT
ATOM      1  C   UNL     1       7.064   4.759  15.374  0.00  0.00    +0.000 C 
ATOM      2  N   UNL     1       6.172   4.419  16.491  0.00  0.00    +0.000 NA
ENDROOT
BRANCH   2   3
ATOM      3  C   UNL     1       6.670   5.026  17.755  0.00  0.00    +0.000 C 
BRANCH   3   4
ATOM      4  C   UNL     1       6.072   4.456  19.053  0.00  0.00    +0.000 C 
ATOM      5  O   UNL     1       6.165   4.991  20.153  0.00  0.00    +0.000 OA
ATOM      6  N   UNL     1       5.418   3.252  18.877  0.00  0.00    +0.000 N 
ATOM      7  H   UNL     1       5.203   2.929  17.942  0.00  0.00    +0.000 HD
BRANCH   6   8
ATOM      8  C   UNL     1       4.757   2.596  19.983  0.00  0.00    +0.000 C 
BRANCH   8   9
ATOM      9  C   UNL     1       3.271   2.840  19.961  0.00  0.00    +0.000 A 
ATOM     10  C   UNL     1       2.665   3.422  21.090  0.00  0.00    +0.000 A 
ATOM     11  C   UNL     1       1.294   3.679  21.117  0.00  0.00    +0.000 A 
ATOM     12  C   UNL     1       0.504   3.364  20.016  0.00  0.00    +0.000 A 
ATOM     13  C   UNL     1       1.092   2.802  18.880  0.00  0.00    +0.000 A 
ATOM     14  C   UNL     1       2.467   2.547  18.850  0.00  0.00    +0.000 A 
ATOM     15 CL   UNL     1       3.125   1.884  17.397  0.00  0.00    +0.000 Cl
ENDBRANCH   8   9
ENDBRANCH   6   8
ENDBRANCH   3   4
ENDBRANCH   2   3
BRANCH   2  16
ATOM     16  C   UNL     1       4.789   4.828  16.139  0.00  0.00    +0.000 C 
BRANCH  16  17
ATOM     17  C   UNL     1       4.361   6.121  16.828  0.00  0.00    +0.000 C 
ATOM     18  O   UNL     1       5.033   7.143  16.710  0.00  0.00    +0.000 OA
ATOM     19  N   UNL     1       3.192   5.994  17.567  0.00  0.00    +0.000 N 
ATOM     20  H   UNL     1       2.887   5.040  17.733  0.00  0.00    +0.000 HD
BRANCH  19  21
ATOM     21  C   UNL     1       2.550   7.034  18.274  0.00  0.00    +0.000 A 
ATOM     22  C   UNL     1       2.169   8.239  17.670  0.00  0.00    +0.000 A 
ATOM     23  C   UNL     1       1.600   9.272  18.417  0.00  0.00    +0.000 A 
ATOM     24  C   UNL     1       1.388   9.106  19.780  0.00  0.00    +0.000 A 
ATOM     25  C   UNL     1       1.724   7.895  20.373  0.00  0.00    +0.000 A 
ATOM     26  F   UNL     1       1.511   7.729  21.684  0.00  0.00    +0.000 F 
ATOM     27  C   UNL     1       2.290   6.854  19.635  0.00  0.00    +0.000 A 
ENDBRANCH  19  21
ENDBRANCH  16  17
ENDBRANCH   2  16
TORSDOF 7
ENDMDL
MODEL 8
REMARK VINA RESULT:      -6.7      2.382      5.055
REMARK  Name = 
REMARK  8 active torsions:
REMARK  status: ('A' for Active; 'I' for Inactive)
REMARK    1  A    between atoms: C_1  and  N_2
REMARK    2  A    between atoms: N_2  and  C_3
REMARK    3  A    between atoms: N_2  and  C_15
REMARK    4  A    between atoms: C_3  and  C_4
REMARK    5  A    between atoms: N_6  and  C_7
REMARK    6  A    between atoms: C_7  and  C_8
REMARK    7  A    between atoms: C_15  and  C_16
REMARK    8  A    between atoms: N_18  and  C_19
REMARK                            x       y       z     vdW  Elec       q    Type
REMARK                         _______ _______ _______ _____ _____    ______ ____
ROOT
ATOM      1  C   UNL     1       6.131   4.600  14.152  0.00  0.00    +0.000 C 
ATOM      2  N   UNL     1       5.272   4.999  15.277  0.00  0.00    +0.000 NA
ENDROOT
BRANCH   2   3
ATOM      3  C   UNL     1       5.434   4.052  16.413  0.00  0.00    +0.000 C 
BRANCH   3   4
ATOM      4  C   UNL     1       4.138   3.414  16.942  0.00  0.00    +0.000 C 
ATOM      5  O   UNL     1       3.020   3.907  16.817  0.00  0.00    +0.000 OA
ATOM      6  N   UNL     1       4.341   2.217  17.600  0.00  0.00    +0.000 N 
ATOM      7  H   UNL     1       5.237   1.751  17.531  0.00  0.00    +0.000 HD
BRANCH   6   8
ATOM      8  C   UNL     1       3.227   1.457  18.124  0.00  0.00    +0.000 C 
BRANCH   8   9
ATOM      9  C   UNL     1       2.594   2.149  19.303  0.00  0.00    +0.000 A 
ATOM     10  C   UNL     1       1.252   2.560  19.205  0.00  0.00    +0.000 A 
ATOM     11  C   UNL     1       0.615   3.194  20.271  0.00  0.00    +0.000 A 
ATOM     12  C   UNL     1       1.305   3.426  21.457  0.00  0.00    +0.000 A 
ATOM     13  C   UNL     1       2.632   3.010  21.578  0.00  0.00    +0.000 A 
ATOM     14  C   UNL     1       3.271   2.369  20.511  0.00  0.00    +0.000 A 
ATOM     15 CL   UNL     1       4.902   1.851  20.750  0.00  0.00    +0.000 Cl
ENDBRANCH   8   9
ENDBRANCH   6   8
ENDBRANCH   3   4
ENDBRANCH   2   3
BRANCH   2  16
ATOM     16  C   UNL     1       5.574   6.409  15.629  0.00  0.00    +0.000 C 
BRANCH  16  17
ATOM     17  C   UNL     1       5.061   6.795  17.015  0.00  0.00    +0.000 C 
ATOM     18  O   UNL     1       5.845   6.951  17.948  0.00  0.00    +0.000 OA
ATOM     19  N   UNL     1       3.681   6.930  17.077  0.00  0.00    +0.000 N 
ATOM     20  H   UNL     1       3.174   6.558  16.281  0.00  0.00    +0.000 HD
BRANCH  19  21
ATOM     21  C   UNL     1       2.944   7.312  18.219  0.00  0.00    +0.000 A 
ATOM     22  C   UNL     1       2.831   6.502  19.356  0.00  0.00    +0.000 A 
ATOM     23  C   UNL     1       2.036   6.884  20.438  0.00  0.00    +0.000 A 
ATOM     24  C   UNL     1       1.354   8.094  20.405  0.00  0.00    +0.000 A 
ATOM     25  C   UNL     1       1.500   8.920  19.297  0.00  0.00    +0.000 A 
ATOM     26  F   UNL     1       0.852  10.092  19.266  0.00  0.00    +0.000 F 
ATOM     27  C   UNL     1       2.295   8.550  18.211  0.00  0.00    +0.000 A 
ENDBRANCH  19  21
ENDBRANCH  16  17
ENDBRANCH   2  16
TORSDOF 7
ENDMDL
MODEL 9
REMARK VINA RESULT:      -6.7      4.261      6.232
REMARK  Name = 
REMARK  8 active torsions:
REMARK  status: ('A' for Active; 'I' for Inactive)
REMARK    1  A    between atoms: C_1  and  N_2
REMARK    2  A    between atoms: N_2  and  C_3
REMARK    3  A    between atoms: N_2  and  C_15
REMARK    4  A    between atoms: C_3  and  C_4
REMARK    5  A    between atoms: N_6  and  C_7
REMARK    6  A    between atoms: C_7  and  C_8
REMARK    7  A    between atoms: C_15  and  C_16
REMARK    8  A    between atoms: N_18  and  C_19
REMARK                            x       y       z     vdW  Elec       q    Type
REMARK                         _______ _______ _______ _____ _____    ______ ____
ROOT
ATOM      1  C   UNL     1       6.461   5.175  15.566  0.00  0.00    +0.000 C 
ATOM      2  N   UNL     1       7.263   5.537  16.743  0.00  0.00    +0.000 NA
ENDROOT
BRANCH   2   3
ATOM      3  C   UNL     1       6.962   6.931  17.166  0.00  0.00    +0.000 C 
BRANCH   3   4
ATOM      4  C   UNL     1       7.957   7.559  18.158  0.00  0.00    +0.000 C 
ATOM      5  O   UNL     1       8.539   6.940  19.044  0.00  0.00    +0.000 OA
ATOM      6  N   UNL     1       8.135   8.916  17.975  0.00  0.00    +0.000 N 
ATOM      7  H   UNL     1       7.787   9.360  17.135  0.00  0.00    +0.000 HD
BRANCH   6   8
ATOM      8  C   UNL     1       9.069   9.661  18.790  0.00  0.00    +0.000 C 
BRANCH   8   9
ATOM      9  C   UNL     1       9.130  11.108  18.376  0.00  0.00    +0.000 A 
ATOM     10  C   UNL     1       8.042  11.656  17.674  0.00  0.00    +0.000 A 
ATOM     11  C   UNL     1       8.043  12.994  17.277  0.00  0.00    +0.000 A 
ATOM     12  C   UNL     1       9.130  13.809  17.578  0.00  0.00    +0.000 A 
ATOM     13  C   UNL     1      10.212  13.286  18.289  0.00  0.00    +0.000 A 
ATOM     14  C   UNL     1      10.210  11.946  18.692  0.00  0.00    +0.000 A 
ATOM     15 CL   UNL     1      11.567  11.382  19.600  0.00  0.00    +0.000 Cl
ENDBRANCH   8   9
ENDBRANCH   6   8
ENDBRANCH   3   4
ENDBRANCH   2   3
BRANCH   2  16
ATOM     16  C   UNL     1       7.031   4.527  17.806  0.00  0.00    +0.000 C 
BRANCH  16  17
ATOM     17  C   UNL     1       5.622   4.598  18.391  0.00  0.00    +0.000 C 
ATOM     18  O   UNL     1       5.192   5.651  18.855  0.00  0.00    +0.000 OA
ATOM     19  N   UNL     1       4.941   3.389  18.342  0.00  0.00    +0.000 N 
ATOM     20  H   UNL     1       5.513   2.578  18.130  0.00  0.00    +0.000 HD
BRANCH  19  21
ATOM     21  C   UNL     1       3.615   3.176  18.778  0.00  0.00    +0.000 A 
ATOM     22  C   UNL     1       2.532   3.089  17.894  0.00  0.00    +0.000 A 
ATOM     23  C   UNL     1       1.225   2.947  18.367  0.00  0.00    +0.000 A 
ATOM     24  C   UNL     1       0.986   2.874  19.734  0.00  0.00    +0.000 A 
ATOM     25  C   UNL     1       2.064   2.915  20.610  0.00  0.00    +0.000 A 
ATOM     26  F   UNL     1       1.837   2.834  21.927  0.00  0.00    +0.000 F 
ATOM     27  C   UNL     1       3.374   3.052  20.148  0.00  0.00    +0.000 A 
ENDBRANCH  19  21
ENDBRANCH  16  17
ENDBRANCH   2  16
TORSDOF 7
ENDMDL
