MODEL 1
REMARK VINA RESULT:      -6.2      0.000      0.000
REMARK  Name = 
REMARK  6 active torsions:
REMARK  status: ('A' for Active; 'I' for Inactive)
REMARK    1  A    between atoms: O_1  and  C_2
REMARK    2  A    between atoms: C_2  and  C_3
REMARK    3  A    between atoms: C_2  and  C_13
REMARK    4  A    between atoms: C_3  and  N_4
REMARK    5  A    between atoms: N_4  and  C_5
REMARK    6  A    between atoms: C_5  and  C_6
REMARK                            x       y       z     vdW  Elec       q    Type
REMARK                         _______ _______ _______ _____ _____    ______ ____
ROOT
ATOM      1  C   UNL     1       1.285   5.185  20.615  0.00  0.00    +0.000 C 
ENDROOT
BRANCH   1   2
ATOM      2  N   UNL     1       2.575   5.897  20.515  0.00  0.00    +0.000 NA
ATOM      3  H   UNL     1       3.325   5.244  20.746  0.00  0.00    +0.000 HD
BRANCH   2   4
ATOM      4  C   UNL     1       2.801   6.358  19.143  0.00  0.00    +0.000 C 
BRANCH   4   5
ATOM      5  C   UNL     1       4.068   5.760  18.578  0.00  0.00    +0.000 A 
ATOM      6  C   UNL     1       5.169   5.493  19.404  0.00  0.00    +0.000 A 
ATOM      7  C   UNL     1       6.331   4.926  18.878  0.00  0.00    +0.000 A 
ATOM      8  C   UNL     1       6.408   4.619  17.519  0.00  0.00    +0.000 A 
ATOM      9  C   UNL     1       5.318   4.883  16.691  0.00  0.00    +0.000 A 
ATOM     10 BR   UNL     1       5.417   4.474  14.849  0.00  0.00    +0.000 Br
ATOM     11  C   UNL     1       4.154   5.448  17.211  0.00  0.00    +0.000 A 
ENDBRANCH   4   5
ENDBRANCH   2   4
ENDBRANCH   1   2
BRANCH   1  12
ATOM     12  C   UNL     1       1.494   3.692  20.956  0.00  0.00    +0.000 C 
BRANCH  12  13
ATOM     13  C   UNL     1       2.263   2.970  19.870  0.00  0.00    +0.000 A 
ATOM     14  C   UNL     1       3.522   2.415  20.151  0.00  0.00    +0.000 A 
ATOM     15  C   UNL     1       4.250   1.760  19.156  0.00  0.00    +0.000 A 
ATOM     16  C   UNL     1       3.726   1.644  17.871  0.00  0.00    +0.000 A 
ATOM     17  C   UNL     1       2.470   2.172  17.581  0.00  0.00    +0.000 A 
ATOM     18  C   UNL     1       1.742   2.827  18.576  0.00  0.00    +0.000 A 
ENDBRANCH  12  13
BRANCH  12  19
ATOM     19  O   UNL     1       2.192   3.582  22.203  0.00  0.00    +0.000 OA
ATOM     20  H   UNL     1       2.409   2.638  22.293  0.00  0.00    +0.000 HD
ENDBRANCH  12  19
ENDBRANCH   1  12
TORSDOF 6
ENDMDL
MODEL 2
REMARK VINA RESULT:      -5.9      2.008      3.515
REMARK  Name = 
REMARK  6 active torsions:
REMARK  status: ('A' for Active; 'I' for Inactive)
REMARK    1  A    between atoms: O_1  and  C_2
REMARK    2  A    between atoms: C_2  and  C_3
REMARK    3  A    between atoms: C_2  and  C_13
REMARK    4  A    between atoms: C_3  and  N_4
REMARK    5  A    between atoms: N_4  and  C_5
REMARK    6  A    between atoms: C_5  and  C_6
REMARK                            x       y       z     vdW  Elec       q    Type
REMARK                         _______ _______ _______ _____ _____    ______ ____
ROOT
ATOM      1  C   UNL     1       2.773   2.286  19.097  0.00  0.00    +0.000 C 
ENDROOT
BRANCH   1   2
ATOM      2  N   UNL     1       4.165   2.419  18.621  0.00  0.00    +0.000 NA
ATOM      3  H   UNL     1       4.148   2.756  17.657  0.00  0.00    +0.000 HD
BRANCH   2   4
ATOM      4  C   UNL     1       4.889   3.409  19.421  0.00  0.00    +0.000 C 
BRANCH   4   5
ATOM      5  C   UNL     1       5.678   4.342  18.533  0.00  0.00    +0.000 A 
ATOM      6  C   UNL     1       6.412   5.406  19.078  0.00  0.00    +0.000 A 
ATOM      7  C   UNL     1       7.152   6.255  18.252  0.00  0.00    +0.000 A 
ATOM      8  C   UNL     1       7.166   6.052  16.872  0.00  0.00    +0.000 A 
ATOM      9  C   UNL     1       6.437   4.999  16.323  0.00  0.00    +0.000 A 
ATOM     10 BR   UNL     1       6.449   4.722  14.454  0.00  0.00    +0.000 Br
ATOM     11  C   UNL     1       5.698   4.146  17.143  0.00  0.00    +0.000 A 
ENDBRANCH   4   5
ENDBRANCH   2   4
ENDBRANCH   1   2
BRANCH   1  12
ATOM     12  C   UNL     1       1.828   3.247  18.341  0.00  0.00    +0.000 C 
BRANCH  12  13
ATOM     13  C   UNL     1       1.949   4.669  18.845  0.00  0.00    +0.000 A 
ATOM     14  C   UNL     1       2.363   5.690  17.974  0.00  0.00    +0.000 A 
ATOM     15  C   UNL     1       2.495   7.004  18.429  0.00  0.00    +0.000 A 
ATOM     16  C   UNL     1       2.209   7.314  19.756  0.00  0.00    +0.000 A 
ATOM     17  C   UNL     1       1.779   6.316  20.627  0.00  0.00    +0.000 A 
ATOM     18  C   UNL     1       1.646   5.003  20.173  0.00  0.00    +0.000 A 
ENDBRANCH  12  13
BRANCH  12  19
ATOM     19  O   UNL     1       2.125   3.200  16.939  0.00  0.00    +0.000 OA
ATOM     20  H   UNL     1       2.100   2.256  16.704  0.00  0.00    +0.000 HD
ENDBRANCH  12  19
ENDBRANCH   1  12
TORSDOF 6
ENDMDL
MODEL 3
REMARK VINA RESULT:      -5.8      2.297      3.823
REMARK  Name = 
REMARK  6 active torsions:
REMARK  status: ('A' for Active; 'I' for Inactive)
REMARK    1  A    between atoms: O_1  and  C_2
REMARK    2  A    between atoms: C_2  and  C_3
REMARK    3  A    between atoms: C_2  and  C_13
REMARK    4  A    between atoms: C_3  and  N_4
REMARK    5  A    between atoms: N_4  and  C_5
REMARK    6  A    between atoms: C_5  and  C_6
REMARK                            x       y       z     vdW  Elec       q    Type
REMARK                         _______ _______ _______ _____ _____    ______ ____
ROOT
ATOM      1  C   UNL     1       2.760   2.336  19.391  0.00  0.00    +0.000 C 
ENDROOT
BRANCH   1   2
ATOM      2  N   UNL     1       4.058   2.312  18.688  0.00  0.00    +0.000 NA
ATOM      3  H   UNL     1       3.895   2.498  17.697  0.00  0.00    +0.000 HD
BRANCH   2   4
ATOM      4  C   UNL     1       4.936   3.369  19.195  0.00  0.00    +0.000 C 
BRANCH   4   5
ATOM      5  C   UNL     1       5.436   4.239  18.066  0.00  0.00    +0.000 A 
ATOM      6  C   UNL     1       5.156   3.916  16.730  0.00  0.00    +0.000 A 
ATOM      7  C   UNL     1       5.608   4.733  15.691  0.00  0.00    +0.000 A 
ATOM      8  C   UNL     1       6.346   5.882  15.976  0.00  0.00    +0.000 A 
ATOM      9  C   UNL     1       6.630   6.209  17.300  0.00  0.00    +0.000 A 
ATOM     10 BR   UNL     1       7.632   7.762  17.691  0.00  0.00    +0.000 Br
ATOM     11  C   UNL     1       6.179   5.398  18.342  0.00  0.00    +0.000 A 
ENDBRANCH   4   5
ENDBRANCH   2   4
ENDBRANCH   1   2
BRANCH   1  12
ATOM     12  C   UNL     1       1.735   3.221  18.646  0.00  0.00    +0.000 C 
BRANCH  12  13
ATOM     13  C   UNL     1       1.893   4.685  19.001  0.00  0.00    +0.000 A 
ATOM     14  C   UNL     1       2.227   5.616  18.004  0.00  0.00    +0.000 A 
ATOM     15  C   UNL     1       2.392   6.967  18.318  0.00  0.00    +0.000 A 
ATOM     16  C   UNL     1       2.218   7.403  19.630  0.00  0.00    +0.000 A 
ATOM     17  C   UNL     1       1.869   6.495  20.626  0.00  0.00    +0.000 A 
ATOM     18  C   UNL     1       1.703   5.145  20.312  0.00  0.00    +0.000 A 
ENDBRANCH  12  13
BRANCH  12  19
ATOM     19  O   UNL     1       1.892   3.042  17.233  0.00  0.00    +0.000 OA
ATOM     20  H   UNL     1       1.886   3.940  16.859  0.00  0.00    +0.000 HD
ENDBRANCH  12  19
ENDBRANCH   1  12
TORSDOF 6
ENDMDL
MODEL 4
REMARK VINA RESULT:      -5.7      1.384      1.971
REMARK  Name = 
REMARK  6 active torsions:
REMARK  status: ('A' for Active; 'I' for Inactive)
REMARK    1  A    between atoms: O_1  and  C_2
REMARK    2  A    between atoms: C_2  and  C_3
REMARK    3  A    between atoms: C_2  and  C_13
REMARK    4  A    between atoms: C_3  and  N_4
REMARK    5  A    between atoms: N_4  and  C_5
REMARK    6  A    between atoms: C_5  and  C_6
REMARK                            x       y       z     vdW  Elec       q    Type
REMARK                         _______ _______ _______ _____ _____    ______ ____
ROOT
ATOM      1  C   UNL     1       2.863   6.649  19.431  0.00  0.00    +0.000 C 
ENDROOT
BRANCH   1   2
ATOM      2  N   UNL     1       2.844   6.700  17.955  0.00  0.00    +0.000 NA
ATOM      3  H   UNL     1       2.042   7.259  17.659  0.00  0.00    +0.000 HD
BRANCH   2   4
ATOM      4  C   UNL     1       4.051   7.359  17.450  0.00  0.00    +0.000 C 
BRANCH   4   5
ATOM      5  C   UNL     1       5.123   6.344  17.132  0.00  0.00    +0.000 A 
ATOM      6  C   UNL     1       6.088   5.993  18.087  0.00  0.00    +0.000 A 
ATOM      7  C   UNL     1       7.067   5.042  17.791  0.00  0.00    +0.000 A 
ATOM      8  C   UNL     1       7.094   4.431  16.537  0.00  0.00    +0.000 A 
ATOM      9  C   UNL     1       6.139   4.776  15.582  0.00  0.00    +0.000 A 
ATOM     10 BR   UNL     1       6.173   3.955  13.880  0.00  0.00    +0.000 Br
ATOM     11  C   UNL     1       5.158   5.724  15.872  0.00  0.00    +0.000 A 
ENDBRANCH   4   5
ENDBRANCH   2   4
ENDBRANCH   1   2
BRANCH   1  12
ATOM     12  C   UNL     1       2.123   5.398  19.958  0.00  0.00    +0.000 C 
BRANCH  12  13
ATOM     13  C   UNL     1       2.617   4.131  19.293  0.00  0.00    +0.000 A 
ATOM     14  C   UNL     1       1.806   3.467  18.358  0.00  0.00    +0.000 A 
ATOM     15  C   UNL     1       2.240   2.289  17.748  0.00  0.00    +0.000 A 
ATOM     16  C   UNL     1       3.493   1.764  18.058  0.00  0.00    +0.000 A 
ATOM     17  C   UNL     1       4.317   2.422  18.968  0.00  0.00    +0.000 A 
ATOM     18  C   UNL     1       3.883   3.600  19.578  0.00  0.00    +0.000 A 
ENDBRANCH  12  13
BRANCH  12  19
ATOM     19  O   UNL     1       2.300   5.305  21.377  0.00  0.00    +0.000 OA
ATOM     20  H   UNL     1       2.638   4.406  21.534  0.00  0.00    +0.000 HD
ENDBRANCH  12  19
ENDBRANCH   1  12
TORSDOF 6
ENDMDL
MODEL 5
REMARK VINA RESULT:      -5.7      2.348      3.788
REMARK  Name = 
REMARK  6 active torsions:
REMARK  status: ('A' for Active; 'I' for Inactive)
REMARK    1  A    between atoms: O_1  and  C_2
REMARK    2  A    between atoms: C_2  and  C_3
REMARK    3  A    between atoms: C_2  and  C_13
REMARK    4  A    between atoms: C_3  and  N_4
REMARK    5  A    between atoms: N_4  and  C_5
REMARK    6  A    between atoms: C_5  and  C_6
REMARK                            x       y       z     vdW  Elec       q    Type
REMARK                         _______ _______ _______ _____ _____    ______ ____
ROOT
ATOM      1  C   UNL     1       2.664   2.255  19.031  0.00  0.00    +0.000 C 
ENDROOT
BRANCH   1   2
ATOM      2  N   UNL     1       4.010   2.213  18.427  0.00  0.00    +0.000 NA
ATOM      3  H   UNL     1       3.922   2.386  17.424  0.00  0.00    +0.000 HD
BRANCH   2   4
ATOM      4  C   UNL     1       4.856   3.272  18.983  0.00  0.00    +0.000 C 
BRANCH   4   5
ATOM      5  C   UNL     1       5.405   4.152  17.885  0.00  0.00    +0.000 A 
ATOM      6  C   UNL     1       5.178   3.846  16.536  0.00  0.00    +0.000 A 
ATOM      7  C   UNL     1       5.676   4.673  15.526  0.00  0.00    +0.000 A 
ATOM      8  C   UNL     1       6.407   5.815  15.854  0.00  0.00    +0.000 A 
ATOM      9  C   UNL     1       6.638   6.125  17.192  0.00  0.00    +0.000 A 
ATOM     10 BR   UNL     1       7.631   7.669  17.643  0.00  0.00    +0.000 Br
ATOM     11  C   UNL     1       6.142   5.304  18.205  0.00  0.00    +0.000 A 
ENDBRANCH   4   5
ENDBRANCH   2   4
ENDBRANCH   1   2
BRANCH   1  12
ATOM     12  C   UNL     1       1.745   3.250  18.285  0.00  0.00    +0.000 C 
BRANCH  12  13
ATOM     13  C   UNL     1       1.919   4.665  18.793  0.00  0.00    +0.000 A 
ATOM     14  C   UNL     1       1.754   4.946  20.160  0.00  0.00    +0.000 A 
ATOM     15  C   UNL     1       1.895   6.249  20.641  0.00  0.00    +0.000 A 
ATOM     16  C   UNL     1       2.211   7.285  19.766  0.00  0.00    +0.000 A 
ATOM     17  C   UNL     1       2.398   7.020  18.411  0.00  0.00    +0.000 A 
ATOM     18  C   UNL     1       2.257   5.717  17.929  0.00  0.00    +0.000 A 
ENDBRANCH  12  13
BRANCH  12  19
ATOM     19  O   UNL     1       2.029   3.197  16.881  0.00  0.00    +0.000 OA
ATOM     20  H   UNL     1       1.434   3.851  16.475  0.00  0.00    +0.000 HD
ENDBRANCH  12  19
ENDBRANCH   1  12
TORSDOF 6
ENDMDL
MODEL 6
REMARK VINA RESULT:      -5.7      3.584      5.857
REMARK  Name = 
REMARK  6 active torsions:
REMARK  status: ('A' for Active; 'I' for Inactive)
REMARK    1  A    between atoms: O_1  and  C_2
REMARK    2  A    between atoms: C_2  and  C_3
REMARK    3  A    between atoms: C_2  and  C_13
REMARK    4  A    between atoms: C_3  and  N_4
REMARK    5  A    between atoms: N_4  and  C_5
REMARK    6  A    between atoms: C_5  and  C_6
REMARK                            x       y       z     vdW  Elec       q    Type
REMARK                         _______ _______ _______ _____ _____    ______ ____
ROOT
ATOM      1  C   UNL     1       7.174   4.690  16.904  0.00  0.00    +0.000 C 
ENDROOT
BRANCH   1   2
ATOM      2  N   UNL     1       6.887   4.262  18.288  0.00  0.00    +0.000 NA
ATOM      3  H   UNL     1       7.772   4.071  18.759  0.00  0.00    +0.000 HD
BRANCH   2   4
ATOM      4  C   UNL     1       6.215   5.333  19.027  0.00  0.00    +0.000 C 
BRANCH   4   5
ATOM      5  C   UNL     1       4.715   5.216  18.898  0.00  0.00    +0.000 A 
ATOM      6  C   UNL     1       3.960   6.242  18.311  0.00  0.00    +0.000 A 
ATOM      7  C   UNL     1       2.575   6.120  18.180  0.00  0.00    +0.000 A 
ATOM      8  C   UNL     1       1.928   4.971  18.635  0.00  0.00    +0.000 A 
ATOM      9  C   UNL     1       2.671   3.948  19.220  0.00  0.00    +0.000 A 
ATOM     10 BR   UNL     1       1.799   2.390  19.842  0.00  0.00    +0.000 Br
ATOM     11  C   UNL     1       4.054   4.063  19.352  0.00  0.00    +0.000 A 
ENDBRANCH   4   5
ENDBRANCH   2   4
ENDBRANCH   1   2
BRANCH   1  12
ATOM     12  C   UNL     1       6.032   4.286  15.944  0.00  0.00    +0.000 C 
BRANCH  12  13
ATOM     13  C   UNL     1       6.471   4.335  14.496  0.00  0.00    +0.000 A 
ATOM     14  C   UNL     1       5.863   3.495  13.549  0.00  0.00    +0.000 A 
ATOM     15  C   UNL     1       6.268   3.518  12.212  0.00  0.00    +0.000 A 
ATOM     16  C   UNL     1       7.279   4.385  11.806  0.00  0.00    +0.000 A 
ATOM     17  C   UNL     1       7.878   5.239  12.729  0.00  0.00    +0.000 A 
ATOM     18  C   UNL     1       7.473   5.216  14.064  0.00  0.00    +0.000 A 
ENDBRANCH  12  13
BRANCH  12  19
ATOM     19  O   UNL     1       5.580   2.966  16.272  0.00  0.00    +0.000 OA
ATOM     20  H   UNL     1       6.200   2.644  16.950  0.00  0.00    +0.000 HD
ENDBRANCH  12  19
ENDBRANCH   1  12
TORSDOF 6
ENDMDL
MODEL 7
REMARK VINA RESULT:      -5.6      2.921      4.522
REMARK  Name = 
REMARK  6 active torsions:
REMARK  status: ('A' for Active; 'I' for Inactive)
REMARK    1  A    between atoms: O_1  and  C_2
REMARK    2  A    between atoms: C_2  and  C_3
REMARK    3  A    between atoms: C_2  and  C_13
REMARK    4  A    between atoms: C_3  and  N_4
REMARK    5  A    between atoms: N_4  and  C_5
REMARK    6  A    between atoms: C_5  and  C_6
REMARK                            x       y       z     vdW  Elec       q    Type
REMARK                         _______ _______ _______ _____ _____    ______ ____
ROOT
ATOM      1  C   UNL     1       3.113   3.047  20.409  0.00  0.00    +0.000 C 
ENDROOT
BRANCH   1   2
ATOM      2  N   UNL     1       2.209   4.092  19.888  0.00  0.00    +0.000 NA
ATOM      3  H   UNL     1       1.264   3.709  19.837  0.00  0.00    +0.000 HD
BRANCH   2   4
ATOM      4  C   UNL     1       2.172   5.238  20.800  0.00  0.00    +0.000 C 
BRANCH   4   5
ATOM      5  C   UNL     1       2.046   6.531  20.030  0.00  0.00    +0.000 A 
ATOM      6  C   UNL     1       2.484   6.624  18.701  0.00  0.00    +0.000 A 
ATOM      7  C   UNL     1       2.350   7.819  17.990  0.00  0.00    +0.000 A 
ATOM      8  C   UNL     1       1.778   8.936  18.600  0.00  0.00    +0.000 A 
ATOM      9  C   UNL     1       1.343   8.852  19.921  0.00  0.00    +0.000 A 
ATOM     10 BR   UNL     1       0.570  10.363  20.753  0.00  0.00    +0.000 Br
ATOM     11  C   UNL     1       1.472   7.661  20.635  0.00  0.00    +0.000 A 
ENDBRANCH   4   5
ENDBRANCH   2   4
ENDBRANCH   1   2
BRANCH   1  12
ATOM     12  C   UNL     1       4.063   2.527  19.306  0.00  0.00    +0.000 C 
BRANCH  12  13
ATOM     13  C   UNL     1       4.652   3.659  18.491  0.00  0.00    +0.000 A 
ATOM     14  C   UNL     1       5.520   4.581  19.098  0.00  0.00    +0.000 A 
ATOM     15  C   UNL     1       6.060   5.640  18.364  0.00  0.00    +0.000 A 
ATOM     16  C   UNL     1       5.744   5.785  17.015  0.00  0.00    +0.000 A 
ATOM     17  C   UNL     1       4.900   4.867  16.395  0.00  0.00    +0.000 A 
ATOM     18  C   UNL     1       4.361   3.809  17.128  0.00  0.00    +0.000 A 
ENDBRANCH  12  13
BRANCH  12  19
ATOM     19  O   UNL     1       5.114   1.760  19.907  0.00  0.00    +0.000 OA
ATOM     20  H   UNL     1       5.579   1.336  19.165  0.00  0.00    +0.000 HD
ENDBRANCH  12  19
ENDBRANCH   1  12
TORSDOF 6
ENDMDL
MODEL 8
REMARK VINA RESULT:      -5.6      2.946      4.702
REMARK  Name = 
REMARK  6 active torsions:
REMARK  status: ('A' for Active; 'I' for Inactive)
REMARK    1  A    between atoms: O_1  and  C_2
REMARK    2  A    between atoms: C_2  and  C_3
REMARK    3  A    between atoms: C_2  and  C_13
REMARK    4  A    between atoms: C_3  and  N_4
REMARK    5  A    between atoms: N_4  and  C_5
REMARK    6  A    between atoms: C_5  and  C_6
REMARK                            x       y       z     vdW  Elec       q    Type
REMARK                         _______ _______ _______ _____ _____    ______ ____
ROOT
ATOM      1  C   UNL     1       3.118   3.167  20.264  0.00  0.00    +0.000 C 
ENDROOT
BRANCH   1   2
ATOM      2  N   UNL     1       2.212   4.220  19.762  0.00  0.00    +0.000 NA
ATOM      3  H   UNL     1       1.264   3.842  19.724  0.00  0.00    +0.000 HD
BRANCH   2   4
ATOM      4  C   UNL     1       2.194   5.360  20.681  0.00  0.00    +0.000 C 
BRANCH   4   5
ATOM      5  C   UNL     1       2.063   6.659  19.921  0.00  0.00    +0.000 A 
ATOM      6  C   UNL     1       2.499   6.763  18.592  0.00  0.00    +0.000 A 
ATOM      7  C   UNL     1       2.360   7.963  17.891  0.00  0.00    +0.000 A 
ATOM      8  C   UNL     1       1.784   9.073  18.509  0.00  0.00    +0.000 A 
ATOM      9  C   UNL     1       1.350   8.977  19.829  0.00  0.00    +0.000 A 
ATOM     10 BR   UNL     1       0.572  10.479  20.674  0.00  0.00    +0.000 Br
ATOM     11  C   UNL     1       1.484   7.782  20.535  0.00  0.00    +0.000 A 
ENDBRANCH   4   5
ENDBRANCH   2   4
ENDBRANCH   1   2
BRANCH   1  12
ATOM     12  C   UNL     1       4.080   2.681  19.155  0.00  0.00    +0.000 C 
BRANCH  12  13
ATOM     13  C   UNL     1       4.702   3.838  18.403  0.00  0.00    +0.000 A 
ATOM     14  C   UNL     1       4.415   4.025  17.041  0.00  0.00    +0.000 A 
ATOM     15  C   UNL     1       4.993   5.078  16.330  0.00  0.00    +0.000 A 
ATOM     16  C   UNL     1       5.858   5.961  16.973  0.00  0.00    +0.000 A 
ATOM     17  C   UNL     1       6.137   5.800  18.327  0.00  0.00    +0.000 A 
ATOM     18  C   UNL     1       5.559   4.748  19.039  0.00  0.00    +0.000 A 
ENDBRANCH  12  13
BRANCH  12  19
ATOM     19  O   UNL     1       5.107   1.870  19.740  0.00  0.00    +0.000 OA
ATOM     20  H   UNL     1       5.874   1.964  19.150  0.00  0.00    +0.000 HD
ENDBRANCH  12  19
ENDBRANCH   1  12
TORSDOF 6
ENDMDL
MODEL 9
REMARK VINA RESULT:      -5.6      1.953      2.539
REMARK  Name = 
REMARK  6 active torsions:
REMARK  status: ('A' for Active; 'I' for Inactive)
REMARK    1  A    between atoms: O_1  and  C_2
REMARK    2  A    between atoms: C_2  and  C_3
REMARK    3  A    between atoms: C_2  and  C_13
REMARK    4  A    between atoms: C_3  and  N_4
REMARK    5  A    between atoms: N_4  and  C_5
REMARK    6  A    between atoms: C_5  and  C_6
REMARK                            x       y       z     vdW  Elec       q    Type
REMARK                         _______ _______ _______ _____ _____    ______ ____
ROOT
ATOM      1  C   UNL     1       2.040   6.175  18.118  0.00  0.00    +0.000 C 
ENDROOT
BRANCH   1   2
ATOM      2  N   UNL     1       3.329   6.726  18.579  0.00  0.00    +0.000 NA
ATOM      3  H   UNL     1       3.867   5.975  19.014  0.00  0.00    +0.000 HD
BRANCH   2   4
ATOM      4  C   UNL     1       4.109   7.225  17.443  0.00  0.00    +0.000 C 
BRANCH   4   5
ATOM      5  C   UNL     1       5.204   6.252  17.076  0.00  0.00    +0.000 A 
ATOM      6  C   UNL     1       6.205   5.913  17.999  0.00  0.00    +0.000 A 
ATOM      7  C   UNL     1       7.206   5.000  17.658  0.00  0.00    +0.000 A 
ATOM      8  C   UNL     1       7.220   4.417  16.390  0.00  0.00    +0.000 A 
ATOM      9  C   UNL     1       6.230   4.751  15.468  0.00  0.00    +0.000 A 
ATOM     10 BR   UNL     1       6.245   3.967  13.748  0.00  0.00    +0.000 Br
ATOM     11  C   UNL     1       5.227   5.660  15.803  0.00  0.00    +0.000 A 
ENDBRANCH   4   5
ENDBRANCH   2   4
ENDBRANCH   1   2
BRANCH   1  12
ATOM     12  C   UNL     1       2.134   4.650  17.883  0.00  0.00    +0.000 C 
BRANCH  12  13
ATOM     13  C   UNL     1       2.260   3.887  19.185  0.00  0.00    +0.000 A 
ATOM     14  C   UNL     1       3.477   3.274  19.524  0.00  0.00    +0.000 A 
ATOM     15  C   UNL     1       3.604   2.554  20.713  0.00  0.00    +0.000 A 
ATOM     16  C   UNL     1       2.520   2.444  21.581  0.00  0.00    +0.000 A 
ATOM     17  C   UNL     1       1.312   3.063  21.268  0.00  0.00    +0.000 A 
ATOM     18  C   UNL     1       1.185   3.783  20.080  0.00  0.00    +0.000 A 
ENDBRANCH  12  13
BRANCH  12  19
ATOM     19  O   UNL     1       0.973   4.207  17.169  0.00  0.00    +0.000 OA
ATOM     20  H   UNL     1       0.414   4.998  17.072  0.00  0.00    +0.000 HD
ENDBRANCH  12  19
ENDBRANCH   1  12
TORSDOF 6
ENDMDL
