MODEL 1
REMARK VINA RESULT:      -7.1      0.000      0.000
REMARK  Name = 
REMARK  3 active torsions:
REMARK  status: ('A' for Active; 'I' for Inactive)
REMARK    1  A    between atoms: C_1  and  N_2
REMARK    2  A    between atoms: C_3  and  C_4
REMARK    3  A    between atoms: C_5  and  C_6
REMARK                            x       y       z     vdW  Elec       q    Type
REMARK                         _______ _______ _______ _____ _____    ______ ____
ROOT
ATOM      1  C   UNL     1       3.345   7.157  17.949  0.00  0.00    +0.000 C 
ATOM      2  N   UNL     1       2.801   6.120  18.856  0.00  0.00    +0.000 N 
ATOM      3  C   UNL     1       2.103   6.456  20.010  0.00  0.00    +0.000 A 
ATOM      4  C   UNL     1       1.657   5.429  20.870  0.00  0.00    +0.000 A 
ATOM      5  C   UNL     1       1.896   4.102  20.573  0.00  0.00    +0.000 A 
ATOM      6  C   UNL     1       2.578   3.761  19.416  0.00  0.00    +0.000 A 
ATOM      7  C   UNL     1       2.808   2.408  19.121  0.00  0.00    +0.000 A 
ATOM      8  C   UNL     1       3.489   2.049  17.961  0.00  0.00    +0.000 A 
ATOM      9  C   UNL     1       3.946   3.034  17.088  0.00  0.00    +0.000 A 
ATOM     10  C   UNL     1       3.725   4.385  17.371  0.00  0.00    +0.000 A 
ATOM     11  C   UNL     1       3.033   4.787  18.546  0.00  0.00    +0.000 A 
ENDROOT
BRANCH   3  12
ATOM     12  C   UNL     1       1.743   7.877  20.361  0.00  0.00    +0.000 C 
ATOM     13  C   UNL     1       0.837   8.206  21.307  0.00  0.00    +0.000 C 
BRANCH  13  14
ATOM     14  C   UNL     1       0.403   9.594  21.637  0.00  0.00    +0.000 A 
ATOM     15  C   UNL     1       0.815  10.734  20.919  0.00  0.00    +0.000 A 
ATOM     16  C   UNL     1       0.329  11.994  21.283  0.00  0.00    +0.000 A 
ATOM     17  N   UNL     1      -0.530  12.120  22.327  0.00  0.00    +0.000 NA
ATOM     18  C   UNL     1      -0.942  11.042  23.042  0.00  0.00    +0.000 A 
ATOM     19  C   UNL     1      -0.487   9.766  22.710  0.00  0.00    +0.000 A 
ENDBRANCH  13  14
ENDBRANCH   3  12
TORSDOF 2
ENDMDL
MODEL 2
REMARK VINA RESULT:      -7.1      0.105      1.101
REMARK  Name = 
REMARK  3 active torsions:
REMARK  status: ('A' for Active; 'I' for Inactive)
REMARK    1  A    between atoms: C_1  and  N_2
REMARK    2  A    between atoms: C_3  and  C_4
REMARK    3  A    between atoms: C_5  and  C_6
REMARK                            x       y       z     vdW  Elec       q    Type
REMARK                         _______ _______ _______ _____ _____    ______ ____
ROOT
ATOM      1  C   UNL     1       3.238   7.140  17.984  0.00  0.00    +0.000 C 
ATOM      2  N   UNL     1       2.743   6.092  18.906  0.00  0.00    +0.000 N 
ATOM      3  C   UNL     1       2.070   6.415  20.080  0.00  0.00    +0.000 A 
ATOM      4  C   UNL     1       1.671   5.381  20.953  0.00  0.00    +0.000 A 
ATOM      5  C   UNL     1       1.933   4.059  20.652  0.00  0.00    +0.000 A 
ATOM      6  C   UNL     1       2.590   3.730  19.476  0.00  0.00    +0.000 A 
ATOM      7  C   UNL     1       2.843   2.382  19.178  0.00  0.00    +0.000 A 
ATOM      8  C   UNL     1       3.501   2.037  18.000  0.00  0.00    +0.000 A 
ATOM      9  C   UNL     1       3.910   3.030  17.113  0.00  0.00    +0.000 A 
ATOM     10  C   UNL     1       3.666   4.376  17.399  0.00  0.00    +0.000 A 
ATOM     11  C   UNL     1       2.998   4.765  18.593  0.00  0.00    +0.000 A 
ENDROOT
BRANCH   3  12
ATOM     12  C   UNL     1       1.687   7.829  20.438  0.00  0.00    +0.000 C 
ATOM     13  C   UNL     1       0.752   8.138  21.362  0.00  0.00    +0.000 C 
BRANCH  13  14
ATOM     14  C   UNL     1       0.296   9.517  21.696  0.00  0.00    +0.000 A 
ATOM     15  C   UNL     1      -0.556   9.819  22.778  0.00  0.00    +0.000 A 
ATOM     16  C   UNL     1      -0.905  11.148  23.033  0.00  0.00    +0.000 A 
ATOM     17  N   UNL     1      -0.431  12.144  22.241  0.00  0.00    +0.000 NA
ATOM     18  C   UNL     1       0.388  11.887  21.189  0.00  0.00    +0.000 A 
ATOM     19  C   UNL     1       0.766  10.575  20.901  0.00  0.00    +0.000 A 
ENDBRANCH  13  14
ENDBRANCH   3  12
TORSDOF 2
ENDMDL
MODEL 3
REMARK VINA RESULT:      -7.0      0.905      2.437
REMARK  Name = 
REMARK  3 active torsions:
REMARK  status: ('A' for Active; 'I' for Inactive)
REMARK    1  A    between atoms: C_1  and  N_2
REMARK    2  A    between atoms: C_3  and  C_4
REMARK    3  A    between atoms: C_5  and  C_6
REMARK                            x       y       z     vdW  Elec       q    Type
REMARK                         _______ _______ _______ _____ _____    ______ ____
ROOT
ATOM      1  C   UNL     1       1.748   5.035  20.646  0.00  0.00    +0.000 C 
ATOM      2  N   UNL     1       2.421   5.813  19.580  0.00  0.00    +0.000 N 
ATOM      3  C   UNL     1       2.267   7.191  19.479  0.00  0.00    +0.000 A 
ATOM      4  C   UNL     1       2.883   7.877  18.410  0.00  0.00    +0.000 A 
ATOM      5  C   UNL     1       3.639   7.199  17.474  0.00  0.00    +0.000 A 
ATOM      6  C   UNL     1       3.807   5.827  17.578  0.00  0.00    +0.000 A 
ATOM      7  C   UNL     1       4.584   5.150  16.626  0.00  0.00    +0.000 A 
ATOM      8  C   UNL     1       4.765   3.772  16.719  0.00  0.00    +0.000 A 
ATOM      9  C   UNL     1       4.173   3.061  17.760  0.00  0.00    +0.000 A 
ATOM     10  C   UNL     1       3.395   3.723  18.714  0.00  0.00    +0.000 A 
ATOM     11  C   UNL     1       3.189   5.128  18.649  0.00  0.00    +0.000 A 
ENDROOT
BRANCH   3  12
ATOM     12  C   UNL     1       1.518   8.006  20.502  0.00  0.00    +0.000 C 
ATOM     13  C   UNL     1       0.929   9.190  20.229  0.00  0.00    +0.000 C 
BRANCH  13  14
ATOM     14  C   UNL     1       0.239  10.058  21.224  0.00  0.00    +0.000 A 
ATOM     15  C   UNL     1      -0.435   9.564  22.359  0.00  0.00    +0.000 A 
ATOM     16  C   UNL     1      -1.027  10.458  23.256  0.00  0.00    +0.000 A 
ATOM     17  N   UNL     1      -0.959  11.796  23.034  0.00  0.00    +0.000 NA
ATOM     18  C   UNL     1      -0.322  12.304  21.947  0.00  0.00    +0.000 A 
ATOM     19  C   UNL     1       0.287  11.449  21.029  0.00  0.00    +0.000 A 
ENDBRANCH  13  14
ENDBRANCH   3  12
TORSDOF 2
ENDMDL
MODEL 4
REMARK VINA RESULT:      -6.9      7.698     10.891
REMARK  Name = 
REMARK  3 active torsions:
REMARK  status: ('A' for Active; 'I' for Inactive)
REMARK    1  A    between atoms: C_1  and  N_2
REMARK    2  A    between atoms: C_3  and  C_4
REMARK    3  A    between atoms: C_5  and  C_6
REMARK                            x       y       z     vdW  Elec       q    Type
REMARK                         _______ _______ _______ _____ _____    ______ ____
ROOT
ATOM      1  C   UNL     1       9.029  11.081  21.463  0.00  0.00    +0.000 C 
ATOM      2  N   UNL     1       9.546  11.603  20.177  0.00  0.00    +0.000 N 
ATOM      3  C   UNL     1       9.578  10.813  19.032  0.00  0.00    +0.000 A 
ATOM      4  C   UNL     1      10.135  11.340  17.848  0.00  0.00    +0.000 A 
ATOM      5  C   UNL     1      10.637  12.625  17.810  0.00  0.00    +0.000 A 
ATOM      6  C   UNL     1      10.595  13.422  18.944  0.00  0.00    +0.000 A 
ATOM      7  C   UNL     1      11.101  14.730  18.891  0.00  0.00    +0.000 A 
ATOM      8  C   UNL     1      11.063  15.542  20.021  0.00  0.00    +0.000 A 
ATOM      9  C   UNL     1      10.521  15.058  21.209  0.00  0.00    +0.000 A 
ATOM     10  C   UNL     1      10.014  13.757  21.276  0.00  0.00    +0.000 A 
ATOM     11  C   UNL     1      10.038  12.900  20.142  0.00  0.00    +0.000 A 
ENDROOT
BRANCH   3  12
ATOM     12  C   UNL     1       8.983   9.429  18.979  0.00  0.00    +0.000 C 
ATOM     13  C   UNL     1       8.259   8.967  17.938  0.00  0.00    +0.000 C 
BRANCH  13  14
ATOM     14  C   UNL     1       7.598   7.633  17.874  0.00  0.00    +0.000 A 
ATOM     15  C   UNL     1       6.518   7.334  17.019  0.00  0.00    +0.000 A 
ATOM     16  C   UNL     1       5.983   6.042  17.006  0.00  0.00    +0.000 A 
ATOM     17  N   UNL     1       6.495   5.081  17.818  0.00  0.00    +0.000 NA
ATOM     18  C   UNL     1       7.531   5.338  18.657  0.00  0.00    +0.000 A 
ATOM     19  C   UNL     1       8.099   6.611  18.698  0.00  0.00    +0.000 A 
ENDBRANCH  13  14
ENDBRANCH   3  12
TORSDOF 2
ENDMDL
MODEL 5
REMARK VINA RESULT:      -6.9      7.760     10.844
REMARK  Name = 
REMARK  3 active torsions:
REMARK  status: ('A' for Active; 'I' for Inactive)
REMARK    1  A    between atoms: C_1  and  N_2
REMARK    2  A    between atoms: C_3  and  C_4
REMARK    3  A    between atoms: C_5  and  C_6
REMARK                            x       y       z     vdW  Elec       q    Type
REMARK                         _______ _______ _______ _____ _____    ______ ____
ROOT
ATOM      1  C   UNL     1       7.858  12.561  17.221  0.00  0.00    +0.000 C 
ATOM      2  N   UNL     1       9.003  12.267  18.113  0.00  0.00    +0.000 N 
ATOM      3  C   UNL     1       9.195  11.002  18.658  0.00  0.00    +0.000 A 
ATOM      4  C   UNL     1      10.269  10.791  19.548  0.00  0.00    +0.000 A 
ATOM      5  C   UNL     1      11.133  11.818  19.874  0.00  0.00    +0.000 A 
ATOM      6  C   UNL     1      10.955  13.077  19.323  0.00  0.00    +0.000 A 
ATOM      7  C   UNL     1      11.844  14.111  19.656  0.00  0.00    +0.000 A 
ATOM      8  C   UNL     1      11.680  15.380  19.108  0.00  0.00    +0.000 A 
ATOM      9  C   UNL     1      10.631  15.628  18.225  0.00  0.00    +0.000 A 
ATOM     10  C   UNL     1       9.738  14.608  17.886  0.00  0.00    +0.000 A 
ATOM     11  C   UNL     1       9.875  13.300  18.428  0.00  0.00    +0.000 A 
ENDROOT
BRANCH   3  12
ATOM     12  C   UNL     1       8.338   9.818  18.291  0.00  0.00    +0.000 C 
ATOM     13  C   UNL     1       8.655   8.542  18.599  0.00  0.00    +0.000 C 
BRANCH  13  14
ATOM     14  C   UNL     1       7.872   7.339  18.197  0.00  0.00    +0.000 A 
ATOM     15  C   UNL     1       7.938   6.102  18.869  0.00  0.00    +0.000 A 
ATOM     16  C   UNL     1       7.141   5.038  18.438  0.00  0.00    +0.000 A 
ATOM     17  N   UNL     1       6.310   5.192  17.374  0.00  0.00    +0.000 NA
ATOM     18  C   UNL     1       6.226   6.369  16.703  0.00  0.00    +0.000 A 
ATOM     19  C   UNL     1       7.000   7.459  17.102  0.00  0.00    +0.000 A 
ENDBRANCH  13  14
ENDBRANCH   3  12
TORSDOF 2
ENDMDL
MODEL 6
REMARK VINA RESULT:      -6.9      7.732     10.909
REMARK  Name = 
REMARK  3 active torsions:
REMARK  status: ('A' for Active; 'I' for Inactive)
REMARK    1  A    between atoms: C_1  and  N_2
REMARK    2  A    between atoms: C_3  and  C_4
REMARK    3  A    between atoms: C_5  and  C_6
REMARK                            x       y       z     vdW  Elec       q    Type
REMARK                         _______ _______ _______ _____ _____    ______ ____
ROOT
ATOM      1  C   UNL     1       9.009  11.232  21.457  0.00  0.00    +0.000 C 
ATOM      2  N   UNL     1       9.550  11.694  20.158  0.00  0.00    +0.000 N 
ATOM      3  C   UNL     1       9.573  10.863  19.043  0.00  0.00    +0.000 A 
ATOM      4  C   UNL     1      10.153  11.333  17.845  0.00  0.00    +0.000 A 
ATOM      5  C   UNL     1      10.689  12.603  17.767  0.00  0.00    +0.000 A 
ATOM      6  C   UNL     1      10.656  13.440  18.871  0.00  0.00    +0.000 A 
ATOM      7  C   UNL     1      11.196  14.733  18.777  0.00  0.00    +0.000 A 
ATOM      8  C   UNL     1      11.168  15.586  19.878  0.00  0.00    +0.000 A 
ATOM      9  C   UNL     1      10.604  15.158  21.077  0.00  0.00    +0.000 A 
ATOM     10  C   UNL     1      10.064  13.873  21.185  0.00  0.00    +0.000 A 
ATOM     11  C   UNL     1      10.076  12.976  20.082  0.00  0.00    +0.000 A 
ENDROOT
BRANCH   3  12
ATOM     12  C   UNL     1       8.943   9.494  19.033  0.00  0.00    +0.000 C 
ATOM     13  C   UNL     1       8.342   8.956  17.950  0.00  0.00    +0.000 C 
BRANCH  13  14
ATOM     14  C   UNL     1       7.650   7.636  17.917  0.00  0.00    +0.000 A 
ATOM     15  C   UNL     1       8.046   6.525  18.689  0.00  0.00    +0.000 A 
ATOM     16  C   UNL     1       7.314   5.336  18.615  0.00  0.00    +0.000 A 
ATOM     17  N   UNL     1       6.231   5.248  17.801  0.00  0.00    +0.000 NA
ATOM     18  C   UNL     1       5.827   6.298  17.040  0.00  0.00    +0.000 A 
ATOM     19  C   UNL     1       6.524   7.505  17.087  0.00  0.00    +0.000 A 
ENDBRANCH  13  14
ENDBRANCH   3  12
TORSDOF 2
ENDMDL
MODEL 7
REMARK VINA RESULT:      -6.8      2.067      7.828
REMARK  Name = 
REMARK  3 active torsions:
REMARK  status: ('A' for Active; 'I' for Inactive)
REMARK    1  A    between atoms: C_1  and  N_2
REMARK    2  A    between atoms: C_3  and  C_4
REMARK    3  A    between atoms: C_5  and  C_6
REMARK                            x       y       z     vdW  Elec       q    Type
REMARK                         _______ _______ _______ _____ _____    ______ ____
ROOT
ATOM      1  C   UNL     1       1.663   6.950  20.866  0.00  0.00    +0.000 C 
ATOM      2  N   UNL     1       1.438   8.209  20.118  0.00  0.00    +0.000 N 
ATOM      3  C   UNL     1       1.878   8.366  18.809  0.00  0.00    +0.000 A 
ATOM      4  C   UNL     1       1.690   9.606  18.162  0.00  0.00    +0.000 A 
ATOM      5  C   UNL     1       1.068  10.656  18.809  0.00  0.00    +0.000 A 
ATOM      6  C   UNL     1       0.614  10.500  20.109  0.00  0.00    +0.000 A 
ATOM      7  C   UNL     1      -0.024  11.572  20.754  0.00  0.00    +0.000 A 
ATOM      8  C   UNL     1      -0.488  11.429  22.059  0.00  0.00    +0.000 A 
ATOM      9  C   UNL     1      -0.320  10.221  22.730  0.00  0.00    +0.000 A 
ATOM     10  C   UNL     1       0.315   9.146  22.100  0.00  0.00    +0.000 A 
ATOM     11  C   UNL     1       0.801   9.256  20.769  0.00  0.00    +0.000 A 
ENDROOT
BRANCH   3  12
ATOM     12  C   UNL     1       2.499   7.244  18.016  0.00  0.00    +0.000 C 
ATOM     13  C   UNL     1       3.820   7.158  17.752  0.00  0.00    +0.000 C 
BRANCH  13  14
ATOM     14  C   UNL     1       4.464   6.104  16.918  0.00  0.00    +0.000 A 
ATOM     15  C   UNL     1       5.233   6.377  15.768  0.00  0.00    +0.000 A 
ATOM     16  C   UNL     1       5.825   5.323  15.066  0.00  0.00    +0.000 A 
ATOM     17  N   UNL     1       5.657   4.041  15.484  0.00  0.00    +0.000 NA
ATOM     18  C   UNL     1       4.918   3.744  16.585  0.00  0.00    +0.000 A 
ATOM     19  C   UNL     1       4.313   4.765  17.318  0.00  0.00    +0.000 A 
ENDBRANCH  13  14
ENDBRANCH   3  12
TORSDOF 2
ENDMDL
MODEL 8
REMARK VINA RESULT:      -6.8      1.970      7.709
REMARK  Name = 
REMARK  3 active torsions:
REMARK  status: ('A' for Active; 'I' for Inactive)
REMARK    1  A    between atoms: C_1  and  N_2
REMARK    2  A    between atoms: C_3  and  C_4
REMARK    3  A    between atoms: C_5  and  C_6
REMARK                            x       y       z     vdW  Elec       q    Type
REMARK                         _______ _______ _______ _____ _____    ______ ____
ROOT
ATOM      1  C   UNL     1       0.420  10.437  18.280  0.00  0.00    +0.000 C 
ATOM      2  N   UNL     1       0.546   9.905  19.657  0.00  0.00    +0.000 N 
ATOM      3  C   UNL     1       1.320   8.783  19.934  0.00  0.00    +0.000 A 
ATOM      4  C   UNL     1       1.359   8.282  21.253  0.00  0.00    +0.000 A 
ATOM      5  C   UNL     1       0.648   8.894  22.266  0.00  0.00    +0.000 A 
ATOM      6  C   UNL     1      -0.113  10.021  21.997  0.00  0.00    +0.000 A 
ATOM      7  C   UNL     1      -0.825  10.640  23.037  0.00  0.00    +0.000 A 
ATOM      8  C   UNL     1      -1.593  11.773  22.783  0.00  0.00    +0.000 A 
ATOM      9  C   UNL     1      -1.656  12.298  21.495  0.00  0.00    +0.000 A 
ATOM     10  C   UNL     1      -0.953  11.690  20.450  0.00  0.00    +0.000 A 
ATOM     11  C   UNL     1      -0.161  10.531  20.673  0.00  0.00    +0.000 A 
ENDROOT
BRANCH   3  12
ATOM     12  C   UNL     1       2.179   8.107  18.896  0.00  0.00    +0.000 C 
ATOM     13  C   UNL     1       2.528   6.804  18.949  0.00  0.00    +0.000 C 
BRANCH  13  14
ATOM     14  C   UNL     1       3.428   6.114  17.982  0.00  0.00    +0.000 A 
ATOM     15  C   UNL     1       3.474   4.715  17.816  0.00  0.00    +0.000 A 
ATOM     16  C   UNL     1       4.330   4.160  16.860  0.00  0.00    +0.000 A 
ATOM     17  N   UNL     1       5.117   4.962  16.098  0.00  0.00    +0.000 NA
ATOM     18  C   UNL     1       5.100   6.313  16.236  0.00  0.00    +0.000 A 
ATOM     19  C   UNL     1       4.258   6.910  17.175  0.00  0.00    +0.000 A 
ENDBRANCH  13  14
ENDBRANCH   3  12
TORSDOF 2
ENDMDL
MODEL 9
REMARK VINA RESULT:      -6.7      2.080      7.943
REMARK  Name = 
REMARK  3 active torsions:
REMARK  status: ('A' for Active; 'I' for Inactive)
REMARK    1  A    between atoms: C_1  and  N_2
REMARK    2  A    between atoms: C_3  and  C_4
REMARK    3  A    between atoms: C_5  and  C_6
REMARK                            x       y       z     vdW  Elec       q    Type
REMARK                         _______ _______ _______ _____ _____    ______ ____
ROOT
ATOM      1  C   UNL     1       1.539   7.137  20.984  0.00  0.00    +0.000 C 
ATOM      2  N   UNL     1       1.362   8.352  20.156  0.00  0.00    +0.000 N 
ATOM      3  C   UNL     1       1.849   8.424  18.856  0.00  0.00    +0.000 A 
ATOM      4  C   UNL     1       1.706   9.626  18.131  0.00  0.00    +0.000 A 
ATOM      5  C   UNL     1       1.082  10.723  18.693  0.00  0.00    +0.000 A 
ATOM      6  C   UNL     1       0.582  10.652  19.983  0.00  0.00    +0.000 A 
ATOM      7  C   UNL     1      -0.057  11.771  20.541  0.00  0.00    +0.000 A 
ATOM      8  C   UNL     1      -0.567  11.714  21.835  0.00  0.00    +0.000 A 
ATOM      9  C   UNL     1      -0.445  10.545  22.582  0.00  0.00    +0.000 A 
ATOM     10  C   UNL     1       0.191   9.424  22.040  0.00  0.00    +0.000 A 
ATOM     11  C   UNL     1       0.724   9.447  20.722  0.00  0.00    +0.000 A 
ENDROOT
BRANCH   3  12
ATOM     12  C   UNL     1       2.475   7.246  18.153  0.00  0.00    +0.000 C 
ATOM     13  C   UNL     1       3.767   7.209  17.764  0.00  0.00    +0.000 C 
BRANCH  13  14
ATOM     14  C   UNL     1       4.407   6.094  17.009  0.00  0.00    +0.000 A 
ATOM     15  C   UNL     1       4.271   4.735  17.355  0.00  0.00    +0.000 A 
ATOM     16  C   UNL     1       4.883   3.756  16.566  0.00  0.00    +0.000 A 
ATOM     17  N   UNL     1       5.609   4.111  15.475  0.00  0.00    +0.000 NA
ATOM     18  C   UNL     1       5.763   5.412  15.117  0.00  0.00    +0.000 A 
ATOM     19  C   UNL     1       5.166   6.421  15.873  0.00  0.00    +0.000 A 
ENDBRANCH  13  14
ENDBRANCH   3  12
TORSDOF 2
ENDMDL
