MODEL 1
REMARK VINA RESULT:      -9.0      0.000      0.000
REMARK  Name = 
REMARK  7 active torsions:
REMARK  status: ('A' for Active; 'I' for Inactive)
REMARK    1  A    between atoms: C_1  and  C_2
REMARK    2  A    between atoms: C_2  and  C_12
REMARK    3  A    between atoms: N_3  and  O_4
REMARK    4  A    between atoms: O_4  and  C_5
REMARK    5  A    between atoms: C_5  and  C_6
REMARK    6  A    between atoms: N_18  and  C_19
REMARK    7  A    between atoms: C_19  and  C_20
REMARK                            x       y       z     vdW  Elec       q    Type
REMARK                         _______ _______ _______ _____ _____    ______ ____
ROOT
ATOM      1  C   UNL     1       2.179   6.289  19.590  0.00  0.00    +0.000 A 
ATOM      2  C   UNL     1       1.627   5.789  20.773  0.00  0.00    +0.000 A 
ATOM      3  N   UNL     1       1.702   4.493  21.184  0.00  0.00    +0.000 NA
ATOM      4  C   UNL     1       2.377   3.713  20.308  0.00  0.00    +0.000 A 
ATOM      5  N   UNL     1       2.636   2.377  20.410  0.00  0.00    +0.000 NA
ATOM      6  N   UNL     1       3.327   2.014  19.335  0.00  0.00    +0.000 NA
ATOM      7  N   UNL     1       3.485   3.118  18.564  0.00  0.00    +0.000 N 
ATOM      8  C   UNL     1       2.927   4.223  19.137  0.00  0.00    +0.000 A 
ATOM      9  N   UNL     1       2.879   5.514  18.708  0.00  0.00    +0.000 NA
ENDROOT
BRANCH   1  11
ATOM     10  C   UNL     1       2.578   8.180  17.889  0.00  0.00    +0.000 C 
ATOM     11  C   UNL     1       2.007   7.738  19.232  0.00  0.00    +0.000 C 
ATOM     12  N   UNL     1       1.400   8.547  20.057  0.00  0.00    +0.000 NA
BRANCH  12  13
ATOM     13  O   UNL     1       1.325   9.841  19.516  0.00  0.00    +0.000 OA
BRANCH  13  14
ATOM     14  C   UNL     1       0.278  10.589  20.132  0.00  0.00    +0.000 C 
BRANCH  14  15
ATOM     15  C   UNL     1      -0.826  10.736  19.110  0.00  0.00    +0.000 A 
ATOM     16  C   UNL     1      -1.913  11.593  19.346  0.00  0.00    +0.000 A 
ATOM     17  C   UNL     1      -2.973  11.663  18.438  0.00  0.00    +0.000 A 
ATOM     18  C   UNL     1      -2.958  10.882  17.284  0.00  0.00    +0.000 A 
ATOM     19  C   UNL     1      -1.881  10.035  17.032  0.00  0.00    +0.000 A 
ATOM     20  C   UNL     1      -0.823   9.959  17.942  0.00  0.00    +0.000 A 
ENDBRANCH  14  15
ENDBRANCH  13  14
ENDBRANCH  12  13
ENDBRANCH   1  11
BRANCH   7  21
ATOM     21  C   UNL     1       4.211   3.033  17.320  0.00  0.00    +0.000 C 
BRANCH  21  22
ATOM     22  C   UNL     1       5.157   4.193  17.149  0.00  0.00    +0.000 A 
ATOM     23  C   UNL     1       5.077   4.975  15.995  0.00  0.00    +0.000 A 
ATOM     24  C   UNL     1       5.796   6.167  15.907  0.00  0.00    +0.000 A 
ATOM     25  C   UNL     1       6.620   6.596  16.933  0.00  0.00    +0.000 A 
ATOM     26  N   UNL     1       7.129   7.836  16.880  0.00  0.00    +0.000 NA
ATOM     27  C   UNL     1       7.965   8.215  17.867  0.00  0.00    +0.000 A 
ATOM     28  C   UNL     1       8.437   7.357  18.840  0.00  0.00    +0.000 A 
ATOM     29  C   UNL     1       7.871   6.088  18.917  0.00  0.00    +0.000 A 
ATOM     30  C   UNL     1       6.873   5.714  18.002  0.00  0.00    +0.000 A 
ATOM     31  C   UNL     1       6.112   4.530  18.123  0.00  0.00    +0.000 A 
ENDBRANCH  21  22
ENDBRANCH   7  21
TORSDOF 6
ENDMDL
MODEL 2
REMARK VINA RESULT:      -8.9      2.754      7.697
REMARK  Name = 
REMARK  7 active torsions:
REMARK  status: ('A' for Active; 'I' for Inactive)
REMARK    1  A    between atoms: C_1  and  C_2
REMARK    2  A    between atoms: C_2  and  C_12
REMARK    3  A    between atoms: N_3  and  O_4
REMARK    4  A    between atoms: O_4  and  C_5
REMARK    5  A    between atoms: C_5  and  C_6
REMARK    6  A    between atoms: N_18  and  C_19
REMARK    7  A    between atoms: C_19  and  C_20
REMARK                            x       y       z     vdW  Elec       q    Type
REMARK                         _______ _______ _______ _____ _____    ______ ____
ROOT
ATOM      1  C   UNL     1       6.186   5.957  17.599  0.00  0.00    +0.000 A 
ATOM      2  C   UNL     1       6.290   5.084  16.511  0.00  0.00    +0.000 A 
ATOM      3  N   UNL     1       5.345   4.175  16.146  0.00  0.00    +0.000 NA
ATOM      4  C   UNL     1       4.267   4.194  16.963  0.00  0.00    +0.000 A 
ATOM      5  N   UNL     1       3.146   3.419  16.884  0.00  0.00    +0.000 NA
ATOM      6  N   UNL     1       2.341   3.767  17.881  0.00  0.00    +0.000 NA
ATOM      7  N   UNL     1       2.965   4.744  18.584  0.00  0.00    +0.000 N 
ATOM      8  C   UNL     1       4.172   5.071  18.039  0.00  0.00    +0.000 A 
ATOM      9  N   UNL     1       5.093   5.998  18.419  0.00  0.00    +0.000 NA
ENDROOT
BRANCH   1  11
ATOM     10  C   UNL     1       8.255   6.482  19.037  0.00  0.00    +0.000 C 
ATOM     11  C   UNL     1       7.310   6.901  17.917  0.00  0.00    +0.000 C 
ATOM     12  N   UNL     1       7.433   8.017  17.251  0.00  0.00    +0.000 NA
BRANCH  12  13
ATOM     13  O   UNL     1       8.560   8.733  17.689  0.00  0.00    +0.000 OA
BRANCH  13  14
ATOM     14  C   UNL     1       8.214  10.078  18.013  0.00  0.00    +0.000 C 
BRANCH  14  15
ATOM     15  C   UNL     1       9.435  10.717  18.633  0.00  0.00    +0.000 A 
ATOM     16  C   UNL     1       9.511  10.927  20.018  0.00  0.00    +0.000 A 
ATOM     17  C   UNL     1      10.604  11.593  20.578  0.00  0.00    +0.000 A 
ATOM     18  C   UNL     1      11.636  12.052  19.762  0.00  0.00    +0.000 A 
ATOM     19  C   UNL     1      11.579  11.841  18.386  0.00  0.00    +0.000 A 
ATOM     20  C   UNL     1      10.484  11.181  17.824  0.00  0.00    +0.000 A 
ENDBRANCH  14  15
ENDBRANCH  13  14
ENDBRANCH  12  13
ENDBRANCH   1  11
BRANCH   7  21
ATOM     21  C   UNL     1       2.321   5.331  19.734  0.00  0.00    +0.000 C 
BRANCH  21  22
ATOM     22  C   UNL     1       2.040   6.797  19.525  0.00  0.00    +0.000 A 
ATOM     23  C   UNL     1       2.191   7.346  18.251  0.00  0.00    +0.000 A 
ATOM     24  C   UNL     1       1.744   8.640  17.989  0.00  0.00    +0.000 A 
ATOM     25  C   UNL     1       1.166   9.422  18.975  0.00  0.00    +0.000 A 
ATOM     26  N   UNL     1       0.577  10.575  18.624  0.00  0.00    +0.000 NA
ATOM     27  C   UNL     1       0.062  11.341  19.607  0.00  0.00    +0.000 A 
ATOM     28  C   UNL     1       0.234  11.079  20.951  0.00  0.00    +0.000 A 
ATOM     29  C   UNL     1       0.804   9.860  21.307  0.00  0.00    +0.000 A 
ATOM     30  C   UNL     1       1.204   8.960  20.304  0.00  0.00    +0.000 A 
ATOM     31  C   UNL     1       1.609   7.632  20.569  0.00  0.00    +0.000 A 
ENDBRANCH  21  22
ENDBRANCH   7  21
TORSDOF 6
ENDMDL
MODEL 3
REMARK VINA RESULT:      -8.9      2.724      7.580
REMARK  Name = 
REMARK  7 active torsions:
REMARK  status: ('A' for Active; 'I' for Inactive)
REMARK    1  A    between atoms: C_1  and  C_2
REMARK    2  A    between atoms: C_2  and  C_12
REMARK    3  A    between atoms: N_3  and  O_4
REMARK    4  A    between atoms: O_4  and  C_5
REMARK    5  A    between atoms: C_5  and  C_6
REMARK    6  A    between atoms: N_18  and  C_19
REMARK    7  A    between atoms: C_19  and  C_20
REMARK                            x       y       z     vdW  Elec       q    Type
REMARK                         _______ _______ _______ _____ _____    ______ ____
ROOT
ATOM      1  C   UNL     1       6.070   5.875  17.677  0.00  0.00    +0.000 A 
ATOM      2  C   UNL     1       6.045   5.121  16.499  0.00  0.00    +0.000 A 
ATOM      3  N   UNL     1       5.065   4.241  16.156  0.00  0.00    +0.000 NA
ATOM      4  C   UNL     1       4.094   4.159  17.094  0.00  0.00    +0.000 A 
ATOM      5  N   UNL     1       2.973   3.379  17.067  0.00  0.00    +0.000 NA
ATOM      6  N   UNL     1       2.292   3.610  18.185  0.00  0.00    +0.000 NA
ATOM      7  N   UNL     1       2.993   4.519  18.906  0.00  0.00    +0.000 N 
ATOM      8  C   UNL     1       4.126   4.918  18.259  0.00  0.00    +0.000 A 
ATOM      9  N   UNL     1       5.083   5.815  18.621  0.00  0.00    +0.000 NA
ENDROOT
BRANCH   1  11
ATOM     10  C   UNL     1       8.229   6.334  19.002  0.00  0.00    +0.000 C 
ATOM     11  C   UNL     1       7.221   6.799  17.956  0.00  0.00    +0.000 C 
ATOM     12  N   UNL     1       7.316   7.935  17.320  0.00  0.00    +0.000 NA
BRANCH  12  13
ATOM     13  O   UNL     1       8.476   8.625  17.711  0.00  0.00    +0.000 OA
BRANCH  13  14
ATOM     14  C   UNL     1       8.241  10.032  17.747  0.00  0.00    +0.000 C 
BRANCH  14  15
ATOM     15  C   UNL     1       9.395  10.657  18.498  0.00  0.00    +0.000 A 
ATOM     16  C   UNL     1       9.366  10.766  19.897  0.00  0.00    +0.000 A 
ATOM     17  C   UNL     1      10.395  11.419  20.581  0.00  0.00    +0.000 A 
ATOM     18  C   UNL     1      11.465  11.967  19.876  0.00  0.00    +0.000 A 
ATOM     19  C   UNL     1      11.512  11.857  18.488  0.00  0.00    +0.000 A 
ATOM     20  C   UNL     1      10.481  11.210  17.802  0.00  0.00    +0.000 A 
ENDBRANCH  14  15
ENDBRANCH  13  14
ENDBRANCH  12  13
ENDBRANCH   1  11
BRANCH   7  21
ATOM     21  C   UNL     1       2.490   4.974  20.180  0.00  0.00    +0.000 C 
BRANCH  21  22
ATOM     22  C   UNL     1       1.919   6.365  20.085  0.00  0.00    +0.000 A 
ATOM     23  C   UNL     1       1.143   6.858  21.136  0.00  0.00    +0.000 A 
ATOM     24  C   UNL     1       0.777   8.203  21.165  0.00  0.00    +0.000 A 
ATOM     25  C   UNL     1       1.144   9.077  20.157  0.00  0.00    +0.000 A 
ATOM     26  N   UNL     1       0.937  10.391  20.332  0.00  0.00    +0.000 NA
ATOM     27  C   UNL     1       1.260  11.218  19.318  0.00  0.00    +0.000 A 
ATOM     28  C   UNL     1       1.650  10.780  18.068  0.00  0.00    +0.000 A 
ATOM     29  C   UNL     1       1.906   9.422  17.907  0.00  0.00    +0.000 A 
ATOM     30  C   UNL     1       1.738   8.548  18.995  0.00  0.00    +0.000 A 
ATOM     31  C   UNL     1       2.156   7.198  18.979  0.00  0.00    +0.000 A 
ENDBRANCH  21  22
ENDBRANCH   7  21
TORSDOF 6
ENDMDL
MODEL 4
REMARK VINA RESULT:      -8.8      2.637      9.705
REMARK  Name = 
REMARK  7 active torsions:
REMARK  status: ('A' for Active; 'I' for Inactive)
REMARK    1  A    between atoms: C_1  and  C_2
REMARK    2  A    between atoms: C_2  and  C_12
REMARK    3  A    between atoms: N_3  and  O_4
REMARK    4  A    between atoms: O_4  and  C_5
REMARK    5  A    between atoms: C_5  and  C_6
REMARK    6  A    between atoms: N_18  and  C_19
REMARK    7  A    between atoms: C_19  and  C_20
REMARK                            x       y       z     vdW  Elec       q    Type
REMARK                         _______ _______ _______ _____ _____    ______ ____
ROOT
ATOM      1  C   UNL     1       1.369   8.724  20.053  0.00  0.00    +0.000 A 
ATOM      2  C   UNL     1       1.398   8.211  21.354  0.00  0.00    +0.000 A 
ATOM      3  N   UNL     1       0.872   8.827  22.448  0.00  0.00    +0.000 NA
ATOM      4  C   UNL     1       0.308  10.019  22.147  0.00  0.00    +0.000 A 
ATOM      5  N   UNL     1      -0.306  10.890  23.001  0.00  0.00    +0.000 NA
ATOM      6  N   UNL     1      -0.718  11.933  22.289  0.00  0.00    +0.000 NA
ATOM      7  N   UNL     1      -0.350  11.717  21.002  0.00  0.00    +0.000 N 
ATOM      8  C   UNL     1       0.280  10.517  20.848  0.00  0.00    +0.000 A 
ATOM      9  N   UNL     1       0.784   9.918  19.735  0.00  0.00    +0.000 NA
ENDROOT
BRANCH   1  11
ATOM     10  C   UNL     1       2.273   8.736  17.642  0.00  0.00    +0.000 C 
ATOM     11  C   UNL     1       2.008   7.960  18.928  0.00  0.00    +0.000 C 
ATOM     12  N   UNL     1       2.301   6.697  19.080  0.00  0.00    +0.000 NA
BRANCH  12  13
ATOM     13  O   UNL     1       2.912   6.188  17.922  0.00  0.00    +0.000 OA
BRANCH  13  14
ATOM     14  C   UNL     1       3.820   5.138  18.246  0.00  0.00    +0.000 C 
BRANCH  14  15
ATOM     15  C   UNL     1       5.207   5.739  18.273  0.00  0.00    +0.000 A 
ATOM     16  C   UNL     1       5.586   6.712  17.335  0.00  0.00    +0.000 A 
ATOM     17  C   UNL     1       6.893   7.204  17.310  0.00  0.00    +0.000 A 
ATOM     18  C   UNL     1       7.835   6.735  18.224  0.00  0.00    +0.000 A 
ATOM     19  C   UNL     1       7.470   5.777  19.168  0.00  0.00    +0.000 A 
ATOM     20  C   UNL     1       6.165   5.279  19.190  0.00  0.00    +0.000 A 
ENDBRANCH  14  15
ENDBRANCH  13  14
ENDBRANCH  12  13
ENDBRANCH   1  11
BRANCH   7  21
ATOM     21  C   UNL     1      -0.672  12.688  19.985  0.00  0.00    +0.000 C 
BRANCH  21  22
ATOM     22  C   UNL     1      -2.003  12.395  19.340  0.00  0.00    +0.000 A 
ATOM     23  C   UNL     1      -2.033  11.855  18.053  0.00  0.00    +0.000 A 
ATOM     24  C   UNL     1      -3.234  11.388  17.519  0.00  0.00    +0.000 A 
ATOM     25  C   UNL     1      -4.421  11.465  18.225  0.00  0.00    +0.000 A 
ATOM     26  N   UNL     1      -5.500  10.826  17.749  0.00  0.00    +0.000 NA
ATOM     27  C   UNL     1      -6.657  10.953  18.430  0.00  0.00    +0.000 A 
ATOM     28  C   UNL     1      -6.826  11.814  19.496  0.00  0.00    +0.000 A 
ATOM     29  C   UNL     1      -5.695  12.437  20.012  0.00  0.00    +0.000 A 
ATOM     30  C   UNL     1      -4.440  12.198  19.427  0.00  0.00    +0.000 A 
ATOM     31  C   UNL     1      -3.221  12.630  19.999  0.00  0.00    +0.000 A 
ENDBRANCH  21  22
ENDBRANCH   7  21
TORSDOF 6
ENDMDL
MODEL 5
REMARK VINA RESULT:      -8.6      2.995      9.667
REMARK  Name = 
REMARK  7 active torsions:
REMARK  status: ('A' for Active; 'I' for Inactive)
REMARK    1  A    between atoms: C_1  and  C_2
REMARK    2  A    between atoms: C_2  and  C_12
REMARK    3  A    between atoms: N_3  and  O_4
REMARK    4  A    between atoms: O_4  and  C_5
REMARK    5  A    between atoms: C_5  and  C_6
REMARK    6  A    between atoms: N_18  and  C_19
REMARK    7  A    between atoms: C_19  and  C_20
REMARK                            x       y       z     vdW  Elec       q    Type
REMARK                         _______ _______ _______ _____ _____    ______ ____
ROOT
ATOM      1  C   UNL     1       1.177   9.003  20.211  0.00  0.00    +0.000 A 
ATOM      2  C   UNL     1       1.223   8.410  21.477  0.00  0.00    +0.000 A 
ATOM      3  N   UNL     1       0.668   8.932  22.605  0.00  0.00    +0.000 NA
ATOM      4  C   UNL     1       0.055  10.116  22.377  0.00  0.00    +0.000 A 
ATOM      5  N   UNL     1      -0.599  10.904  23.281  0.00  0.00    +0.000 NA
ATOM      6  N   UNL     1      -1.053  11.972  22.634  0.00  0.00    +0.000 NA
ATOM      7  N   UNL     1      -0.672  11.854  21.338  0.00  0.00    +0.000 N 
ATOM      8  C   UNL     1       0.009  10.694  21.112  0.00  0.00    +0.000 A 
ATOM      9  N   UNL     1       0.542  10.189  19.966  0.00  0.00    +0.000 NA
ENDROOT
BRANCH   1  11
ATOM     10  C   UNL     1       1.746   9.054  17.701  0.00  0.00    +0.000 C 
ATOM     11  C   UNL     1       1.851   8.340  19.044  0.00  0.00    +0.000 C 
ATOM     12  N   UNL     1       2.480   7.208  19.209  0.00  0.00    +0.000 NA
BRANCH  12  13
ATOM     13  O   UNL     1       3.057   6.781  18.002  0.00  0.00    +0.000 OA
BRANCH  13  14
ATOM     14  C   UNL     1       3.909   5.657  18.215  0.00  0.00    +0.000 C 
BRANCH  14  15
ATOM     15  C   UNL     1       3.035   4.519  18.691  0.00  0.00    +0.000 A 
ATOM     16  C   UNL     1       1.940   4.087  17.927  0.00  0.00    +0.000 A 
ATOM     17  C   UNL     1       1.086   3.091  18.409  0.00  0.00    +0.000 A 
ATOM     18  C   UNL     1       1.317   2.514  19.656  0.00  0.00    +0.000 A 
ATOM     19  C   UNL     1       2.407   2.927  20.420  0.00  0.00    +0.000 A 
ATOM     20  C   UNL     1       3.258   3.926  19.943  0.00  0.00    +0.000 A 
ENDBRANCH  14  15
ENDBRANCH  13  14
ENDBRANCH  12  13
ENDBRANCH   1  11
BRANCH   7  21
ATOM     21  C   UNL     1      -1.032  12.874  20.383  0.00  0.00    +0.000 C 
BRANCH  21  22
ATOM     22  C   UNL     1      -2.309  12.530  19.660  0.00  0.00    +0.000 A 
ATOM     23  C   UNL     1      -2.241  11.903  18.415  0.00  0.00    +0.000 A 
ATOM     24  C   UNL     1      -3.397  11.394  17.824  0.00  0.00    +0.000 A 
ATOM     25  C   UNL     1      -4.635  11.513  18.431  0.00  0.00    +0.000 A 
ATOM     26  N   UNL     1      -5.675  10.837  17.919  0.00  0.00    +0.000 NA
ATOM     27  C   UNL     1      -6.880  11.005  18.499  0.00  0.00    +0.000 A 
ATOM     28  C   UNL     1      -7.130  11.936  19.487  0.00  0.00    +0.000 A 
ATOM     29  C   UNL     1      -6.042  12.599  20.044  0.00  0.00    +0.000 A 
ATOM     30  C   UNL     1      -4.746  12.327  19.574  0.00  0.00    +0.000 A 
ATOM     31  C   UNL     1      -3.574  12.803  20.206  0.00  0.00    +0.000 A 
ENDBRANCH  21  22
ENDBRANCH   7  21
TORSDOF 6
ENDMDL
MODEL 6
REMARK VINA RESULT:      -8.6      1.164      1.988
REMARK  Name = 
REMARK  7 active torsions:
REMARK  status: ('A' for Active; 'I' for Inactive)
REMARK    1  A    between atoms: C_1  and  C_2
REMARK    2  A    between atoms: C_2  and  C_12
REMARK    3  A    between atoms: N_3  and  O_4
REMARK    4  A    between atoms: O_4  and  C_5
REMARK    5  A    between atoms: C_5  and  C_6
REMARK    6  A    between atoms: N_18  and  C_19
REMARK    7  A    between atoms: C_19  and  C_20
REMARK                            x       y       z     vdW  Elec       q    Type
REMARK                         _______ _______ _______ _____ _____    ______ ____
ROOT
ATOM      1  C   UNL     1       2.237   6.112  19.625  0.00  0.00    +0.000 A 
ATOM      2  C   UNL     1       1.695   5.568  20.793  0.00  0.00    +0.000 A 
ATOM      3  N   UNL     1       1.771   4.257  21.153  0.00  0.00    +0.000 NA
ATOM      4  C   UNL     1       2.436   3.510  20.242  0.00  0.00    +0.000 A 
ATOM      5  N   UNL     1       2.694   2.170  20.290  0.00  0.00    +0.000 NA
ATOM      6  N   UNL     1       3.374   1.849  19.195  0.00  0.00    +0.000 NA
ATOM      7  N   UNL     1       3.527   2.981  18.465  0.00  0.00    +0.000 N 
ATOM      8  C   UNL     1       2.977   4.064  19.085  0.00  0.00    +0.000 A 
ATOM      9  N   UNL     1       2.928   5.371  18.708  0.00  0.00    +0.000 NA
ENDROOT
BRANCH   1  11
ATOM     10  C   UNL     1       2.706   8.086  18.039  0.00  0.00    +0.000 C 
ATOM     11  C   UNL     1       2.065   7.574  19.324  0.00  0.00    +0.000 C 
ATOM     12  N   UNL     1       1.399   8.336  20.149  0.00  0.00    +0.000 NA
BRANCH  12  13
ATOM     13  O   UNL     1       1.336   9.653  19.665  0.00  0.00    +0.000 OA
BRANCH  13  14
ATOM     14  C   UNL     1      -0.017  10.060  19.472  0.00  0.00    +0.000 C 
BRANCH  14  15
ATOM     15  C   UNL     1      -0.469  10.730  20.751  0.00  0.00    +0.000 A 
ATOM     16  C   UNL     1      -0.506  10.017  21.959  0.00  0.00    +0.000 A 
ATOM     17  C   UNL     1      -1.002  10.614  23.121  0.00  0.00    +0.000 A 
ATOM     18  C   UNL     1      -1.462  11.929  23.090  0.00  0.00    +0.000 A 
ATOM     19  C   UNL     1      -1.422  12.651  21.900  0.00  0.00    +0.000 A 
ATOM     20  C   UNL     1      -0.932  12.054  20.735  0.00  0.00    +0.000 A 
ENDBRANCH  14  15
ENDBRANCH  13  14
ENDBRANCH  12  13
ENDBRANCH   1  11
BRANCH   7  21
ATOM     21  C   UNL     1       4.241   2.942  17.212  0.00  0.00    +0.000 C 
BRANCH  21  22
ATOM     22  C   UNL     1       5.163   4.125  17.061  0.00  0.00    +0.000 A 
ATOM     23  C   UNL     1       5.056   4.935  15.929  0.00  0.00    +0.000 A 
ATOM     24  C   UNL     1       5.750   6.142  15.864  0.00  0.00    +0.000 A 
ATOM     25  C   UNL     1       6.575   6.562  16.894  0.00  0.00    +0.000 A 
ATOM     26  N   UNL     1       7.058   7.813  16.867  0.00  0.00    +0.000 NA
ATOM     27  C   UNL     1       7.896   8.184  17.856  0.00  0.00    +0.000 A 
ATOM     28  C   UNL     1       8.395   7.312  18.803  0.00  0.00    +0.000 A 
ATOM     29  C   UNL     1       7.855   6.030  18.853  0.00  0.00    +0.000 A 
ATOM     30  C   UNL     1       6.856   5.659  17.937  0.00  0.00    +0.000 A 
ATOM     31  C   UNL     1       6.119   4.457  18.036  0.00  0.00    +0.000 A 
ENDBRANCH  21  22
ENDBRANCH   7  21
TORSDOF 6
ENDMDL
MODEL 7
REMARK VINA RESULT:      -8.5      0.780      1.362
REMARK  Name = 
REMARK  7 active torsions:
REMARK  status: ('A' for Active; 'I' for Inactive)
REMARK    1  A    between atoms: C_1  and  C_2
REMARK    2  A    between atoms: C_2  and  C_12
REMARK    3  A    between atoms: N_3  and  O_4
REMARK    4  A    between atoms: O_4  and  C_5
REMARK    5  A    between atoms: C_5  and  C_6
REMARK    6  A    between atoms: N_18  and  C_19
REMARK    7  A    between atoms: C_19  and  C_20
REMARK                            x       y       z     vdW  Elec       q    Type
REMARK                         _______ _______ _______ _____ _____    ______ ____
ROOT
ATOM      1  C   UNL     1       2.244   5.887  20.035  0.00  0.00    +0.000 A 
ATOM      2  C   UNL     1       1.927   5.209  21.217  0.00  0.00    +0.000 A 
ATOM      3  N   UNL     1       2.171   3.891  21.450  0.00  0.00    +0.000 NA
ATOM      4  C   UNL     1       2.762   3.281  20.397  0.00  0.00    +0.000 A 
ATOM      5  N   UNL     1       3.143   1.974  20.296  0.00  0.00    +0.000 NA
ATOM      6  N   UNL     1       3.685   1.801  19.095  0.00  0.00    +0.000 NA
ATOM      7  N   UNL     1       3.629   2.992  18.450  0.00  0.00    +0.000 N 
ATOM      8  C   UNL     1       3.079   3.968  19.229  0.00  0.00    +0.000 A 
ATOM      9  N   UNL     1       2.859   5.286  18.973  0.00  0.00    +0.000 NA
ENDROOT
BRANCH   1  11
ATOM     10  C   UNL     1       1.288   8.026  21.104  0.00  0.00    +0.000 C 
ATOM     11  C   UNL     1       1.900   7.342  19.886  0.00  0.00    +0.000 C 
ATOM     12  N   UNL     1       2.124   7.953  18.754  0.00  0.00    +0.000 NA
BRANCH  12  13
ATOM     13  O   UNL     1       1.757   9.306  18.842  0.00  0.00    +0.000 OA
BRANCH  13  14
ATOM     14  C   UNL     1       0.806   9.641  17.833  0.00  0.00    +0.000 C 
BRANCH  14  15
ATOM     15  C   UNL     1      -0.289  10.442  18.500  0.00  0.00    +0.000 A 
ATOM     16  C   UNL     1      -1.550  10.573  17.898  0.00  0.00    +0.000 A 
ATOM     17  C   UNL     1      -2.533  11.382  18.475  0.00  0.00    +0.000 A 
ATOM     18  C   UNL     1      -2.268  12.066  19.660  0.00  0.00    +0.000 A 
ATOM     19  C   UNL     1      -1.023  11.938  20.273  0.00  0.00    +0.000 A 
ATOM     20  C   UNL     1      -0.038  11.134  19.695  0.00  0.00    +0.000 A 
ENDBRANCH  14  15
ENDBRANCH  13  14
ENDBRANCH  12  13
ENDBRANCH   1  11
BRANCH   7  21
ATOM     21  C   UNL     1       4.155   3.115  17.112  0.00  0.00    +0.000 C 
BRANCH  21  22
ATOM     22  C   UNL     1       5.105   4.278  16.994  0.00  0.00    +0.000 A 
ATOM     23  C   UNL     1       5.013   5.126  15.889  0.00  0.00    +0.000 A 
ATOM     24  C   UNL     1       5.737   6.317  15.859  0.00  0.00    +0.000 A 
ATOM     25  C   UNL     1       6.578   6.683  16.896  0.00  0.00    +0.000 A 
ATOM     26  N   UNL     1       7.093   7.922  16.906  0.00  0.00    +0.000 NA
ATOM     27  C   UNL     1       7.945   8.239  17.901  0.00  0.00    +0.000 A 
ATOM     28  C   UNL     1       8.426   7.325  18.817  0.00  0.00    +0.000 A 
ATOM     29  C   UNL     1       7.855   6.056  18.829  0.00  0.00    +0.000 A 
ATOM     30  C   UNL     1       6.841   5.740  17.908  0.00  0.00    +0.000 A 
ATOM     31  C   UNL     1       6.075   4.554  17.972  0.00  0.00    +0.000 A 
ENDBRANCH  21  22
ENDBRANCH   7  21
TORSDOF 6
ENDMDL
MODEL 8
REMARK VINA RESULT:      -8.5      2.754      9.868
REMARK  Name = 
REMARK  7 active torsions:
REMARK  status: ('A' for Active; 'I' for Inactive)
REMARK    1  A    between atoms: C_1  and  C_2
REMARK    2  A    between atoms: C_2  and  C_12
REMARK    3  A    between atoms: N_3  and  O_4
REMARK    4  A    between atoms: O_4  and  C_5
REMARK    5  A    between atoms: C_5  and  C_6
REMARK    6  A    between atoms: N_18  and  C_19
REMARK    7  A    between atoms: C_19  and  C_20
REMARK                            x       y       z     vdW  Elec       q    Type
REMARK                         _______ _______ _______ _____ _____    ______ ____
ROOT
ATOM      1  C   UNL     1       1.258   8.895  20.197  0.00  0.00    +0.000 A 
ATOM      2  C   UNL     1       1.292   8.371  21.493  0.00  0.00    +0.000 A 
ATOM      3  N   UNL     1       0.740   8.961  22.589  0.00  0.00    +0.000 NA
ATOM      4  C   UNL     1       0.143  10.139  22.295  0.00  0.00    +0.000 A 
ATOM      5  N   UNL     1      -0.504  10.983  23.151  0.00  0.00    +0.000 NA
ATOM      6  N   UNL     1      -0.941  12.020  22.445  0.00  0.00    +0.000 NA
ATOM      7  N   UNL     1      -0.557  11.826  21.159  0.00  0.00    +0.000 N 
ATOM      8  C   UNL     1       0.109  10.647  21.000  0.00  0.00    +0.000 A 
ATOM      9  N   UNL     1       0.640  10.074  19.885  0.00  0.00    +0.000 NA
ENDROOT
BRANCH   1  11
ATOM     10  C   UNL     1       2.050   8.909  17.748  0.00  0.00    +0.000 C 
ATOM     11  C   UNL     1       1.927   8.161  19.070  0.00  0.00    +0.000 C 
ATOM     12  N   UNL     1       2.362   6.943  19.251  0.00  0.00    +0.000 NA
BRANCH  12  13
ATOM     13  O   UNL     1       2.975   6.458  18.084  0.00  0.00    +0.000 OA
BRANCH  13  14
ATOM     14  C   UNL     1       3.553   5.174  18.310  0.00  0.00    +0.000 C 
BRANCH  14  15
ATOM     15  C   UNL     1       4.760   5.062  17.407  0.00  0.00    +0.000 A 
ATOM     16  C   UNL     1       5.842   5.947  17.542  0.00  0.00    +0.000 A 
ATOM     17  C   UNL     1       6.918   5.895  16.653  0.00  0.00    +0.000 A 
ATOM     18  C   UNL     1       6.929   4.957  15.622  0.00  0.00    +0.000 A 
ATOM     19  C   UNL     1       5.866   4.067  15.482  0.00  0.00    +0.000 A 
ATOM     20  C   UNL     1       4.786   4.121  16.366  0.00  0.00    +0.000 A 
ENDBRANCH  14  15
ENDBRANCH  13  14
ENDBRANCH  12  13
ENDBRANCH   1  11
BRANCH   7  21
ATOM     21  C   UNL     1      -0.901  12.797  20.149  0.00  0.00    +0.000 C 
BRANCH  21  22
ATOM     22  C   UNL     1      -2.217  12.471  19.491  0.00  0.00    +0.000 A 
ATOM     23  C   UNL     1      -2.220  11.842  18.245  0.00  0.00    +0.000 A 
ATOM     24  C   UNL     1      -3.411  11.349  17.713  0.00  0.00    +0.000 A 
ATOM     25  C   UNL     1      -4.615  11.485  18.381  0.00  0.00    +0.000 A 
ATOM     26  N   UNL     1      -5.688  10.822  17.922  0.00  0.00    +0.000 NA
ATOM     27  C   UNL     1      -6.861  11.007  18.561  0.00  0.00    +0.000 A 
ATOM     28  C   UNL     1      -7.049  11.942  19.560  0.00  0.00    +0.000 A 
ATOM     29  C   UNL     1      -5.925  12.591  20.061  0.00  0.00    +0.000 A 
ATOM     30  C   UNL     1      -4.657  12.301  19.527  0.00  0.00    +0.000 A 
ATOM     31  C   UNL     1      -3.450  12.762  20.099  0.00  0.00    +0.000 A 
ENDBRANCH  21  22
ENDBRANCH   7  21
TORSDOF 6
ENDMDL
MODEL 9
REMARK VINA RESULT:      -8.5      2.459      9.113
REMARK  Name = 
REMARK  7 active torsions:
REMARK  status: ('A' for Active; 'I' for Inactive)
REMARK    1  A    between atoms: C_1  and  C_2
REMARK    2  A    between atoms: C_2  and  C_12
REMARK    3  A    between atoms: N_3  and  O_4
REMARK    4  A    between atoms: O_4  and  C_5
REMARK    5  A    between atoms: C_5  and  C_6
REMARK    6  A    between atoms: N_18  and  C_19
REMARK    7  A    between atoms: C_19  and  C_20
REMARK                            x       y       z     vdW  Elec       q    Type
REMARK                         _______ _______ _______ _____ _____    ______ ____
ROOT
ATOM      1  C   UNL     1       1.362   8.797  20.207  0.00  0.00    +0.000 A 
ATOM      2  C   UNL     1       1.459   8.220  21.478  0.00  0.00    +0.000 A 
ATOM      3  N   UNL     1       0.915   8.737  22.613  0.00  0.00    +0.000 NA
ATOM      4  C   UNL     1       0.258   9.897  22.389  0.00  0.00    +0.000 A 
ATOM      5  N   UNL     1      -0.399  10.674  23.300  0.00  0.00    +0.000 NA
ATOM      6  N   UNL     1      -0.904  11.719  22.653  0.00  0.00    +0.000 NA
ATOM      7  N   UNL     1      -0.551  11.598  21.349  0.00  0.00    +0.000 N 
ATOM      8  C   UNL     1       0.162  10.459  21.119  0.00  0.00    +0.000 A 
ATOM      9  N   UNL     1       0.684   9.958  19.966  0.00  0.00    +0.000 NA
ENDROOT
BRANCH   1  11
ATOM     10  C   UNL     1       2.252   9.017  17.801  0.00  0.00    +0.000 C 
ATOM     11  C   UNL     1       2.029   8.143  19.030  0.00  0.00    +0.000 C 
ATOM     12  N   UNL     1       2.379   6.887  19.093  0.00  0.00    +0.000 NA
BRANCH  12  13
ATOM     13  O   UNL     1       3.007   6.488  17.901  0.00  0.00    +0.000 OA
BRANCH  13  14
ATOM     14  C   UNL     1       3.827   5.341  18.118  0.00  0.00    +0.000 C 
BRANCH  14  15
ATOM     15  C   UNL     1       5.262   5.816  18.135  0.00  0.00    +0.000 A 
ATOM     16  C   UNL     1       6.183   5.285  19.053  0.00  0.00    +0.000 A 
ATOM     17  C   UNL     1       7.486   5.785  19.123  0.00  0.00    +0.000 A 
ATOM     18  C   UNL     1       7.886   6.816  18.275  0.00  0.00    +0.000 A 
ATOM     19  C   UNL     1       6.986   7.345  17.352  0.00  0.00    +0.000 A 
ATOM     20  C   UNL     1       5.681   6.851  17.285  0.00  0.00    +0.000 A 
ENDBRANCH  14  15
ENDBRANCH  13  14
ENDBRANCH  12  13
ENDBRANCH   1  11
BRANCH   7  21
ATOM     21  C   UNL     1      -0.967  12.595  20.393  0.00  0.00    +0.000 C 
BRANCH  21  22
ATOM     22  C   UNL     1      -1.946  12.031  19.395  0.00  0.00    +0.000 A 
ATOM     23  C   UNL     1      -3.309  12.285  19.557  0.00  0.00    +0.000 A 
ATOM     24  C   UNL     1      -4.208  11.951  18.545  0.00  0.00    +0.000 A 
ATOM     25  C   UNL     1      -3.790  11.345  17.374  0.00  0.00    +0.000 A 
ATOM     26  N   UNL     1      -4.660  11.227  16.359  0.00  0.00    +0.000 NA
ATOM     27  C   UNL     1      -4.244  10.592  15.245  0.00  0.00    +0.000 A 
ATOM     28  C   UNL     1      -3.035   9.933  15.148  0.00  0.00    +0.000 A 
ATOM     29  C   UNL     1      -2.121  10.097  16.183  0.00  0.00    +0.000 A 
ATOM     30  C   UNL     1      -2.459  10.892  17.292  0.00  0.00    +0.000 A 
ATOM     31  C   UNL     1      -1.532  11.270  18.289  0.00  0.00    +0.000 A 
ENDBRANCH  21  22
ENDBRANCH   7  21
TORSDOF 6
ENDMDL
