MODEL 1
REMARK VINA RESULT:      -8.1      0.000      0.000
REMARK  Name = 
REMARK  8 active torsions:
REMARK  status: ('A' for Active; 'I' for Inactive)
REMARK    1  A    between atoms: C_1  and  C_2
REMARK    2  A    between atoms: C_2  and  C_3
REMARK    3  A    between atoms: C_2  and  C_4
REMARK    4  A    between atoms: C_4  and  C_5
REMARK    5  A    between atoms: N_7  and  C_8
REMARK    6  A    between atoms: C_21  and  C_22
REMARK    7  A    between atoms: C_21  and  C_23
REMARK    8  A    between atoms: C_24  and  O_25
REMARK                            x       y       z     vdW  Elec       q    Type
REMARK                         _______ _______ _______ _____ _____    ______ ____
ROOT
ATOM      1  C   UNL     1       3.656   4.925  17.484  0.00  0.00    +0.000 C 
ATOM      2  C   UNL     1       2.956   5.377  18.733  0.00  0.00    +0.000 A 
ATOM      3  C   UNL     1       2.896   4.504  19.816  0.00  0.00    +0.000 A 
ATOM      4  C   UNL     1       2.221   4.836  20.988  0.00  0.00    +0.000 A 
ATOM      5  C   UNL     1       1.600   6.078  21.095  0.00  0.00    +0.000 A 
ATOM      6  C   UNL     1       1.733   7.011  20.064  0.00  0.00    +0.000 A 
ATOM      7  C   UNL     1       1.222   8.365  20.201  0.00  0.00    +0.000 A 
ATOM      8  C   UNL     1       1.512   9.272  19.264  0.00  0.00    +0.000 A 
ATOM      9  C   UNL     1       2.286   8.941  18.054  0.00  0.00    +0.000 A 
ATOM     10  O   UNL     1       2.595   9.810  17.247  0.00  0.00    +0.000 OA
ATOM     11  O   UNL     1       2.624   7.606  17.880  0.00  0.00    +0.000 OA
ATOM     12  C   UNL     1       2.419   6.655  18.898  0.00  0.00    +0.000 A 
ATOM     13  O   UNL     1       3.508   3.283  19.762  0.00  0.00    +0.000 OA
ATOM     14  C   UNL     1       3.163   2.564  18.560  0.00  0.00    +0.000 C 
ATOM     15  C   UNL     1       1.658   2.212  18.653  0.00  0.00    +0.000 C 
ATOM     16  C   UNL     1       3.929   1.233  18.634  0.00  0.00    +0.000 C 
ATOM     17  C   UNL     1       3.501   3.378  17.260  0.00  0.00    +0.000 C 
ENDROOT
BRANCH   1  20
ATOM     18  C   UNL     1       5.728   5.733  16.371  0.00  0.00    +0.000 C 
ATOM     19  O   UNL     1       5.274   5.529  15.248  0.00  0.00    +0.000 OA
ATOM     20  N   UNL     1       5.035   5.414  17.511  0.00  0.00    +0.000 N 
ATOM     21  H   UNL     1       5.479   5.538  18.411  0.00  0.00    +0.000 HD
BRANCH  18  22
ATOM     22  C   UNL     1       7.106   6.327  16.606  0.00  0.00    +0.000 C 
BRANCH  22  24
ATOM     23  C   UNL     1       7.978   6.163  18.979  0.00  0.00    +0.000 C 
ATOM     24  C   UNL     1       7.231   7.032  17.964  0.00  0.00    +0.000 C 
ATOM     25  C   UNL     1       7.949   8.375  17.810  0.00  0.00    +0.000 C 
ENDBRANCH  22  24
ENDBRANCH  18  22
ENDBRANCH   1  20
BRANCH  17  26
ATOM     26  O   UNL     1       4.642   2.832  16.575  0.00  0.00    +0.000 OA
ATOM     27  H   UNL     1       4.423   1.901  16.360  0.00  0.00    +0.000 HD
ENDBRANCH  17  26
TORSDOF 4
ENDMDL
MODEL 2
REMARK VINA RESULT:      -7.5      0.942      1.214
REMARK  Name = 
REMARK  8 active torsions:
REMARK  status: ('A' for Active; 'I' for Inactive)
REMARK    1  A    between atoms: C_1  and  C_2
REMARK    2  A    between atoms: C_2  and  C_3
REMARK    3  A    between atoms: C_2  and  C_4
REMARK    4  A    between atoms: C_4  and  C_5
REMARK    5  A    between atoms: N_7  and  C_8
REMARK    6  A    between atoms: C_21  and  C_22
REMARK    7  A    between atoms: C_21  and  C_23
REMARK    8  A    between atoms: C_24  and  O_25
REMARK                            x       y       z     vdW  Elec       q    Type
REMARK                         _______ _______ _______ _____ _____    ______ ____
ROOT
ATOM      1  C   UNL     1       3.404   5.766  17.669  0.00  0.00    +0.000 C 
ATOM      2  C   UNL     1       2.596   6.227  18.848  0.00  0.00    +0.000 A 
ATOM      3  C   UNL     1       2.375   5.333  19.893  0.00  0.00    +0.000 A 
ATOM      4  C   UNL     1       1.595   5.673  20.995  0.00  0.00    +0.000 A 
ATOM      5  C   UNL     1       1.029   6.944  21.070  0.00  0.00    +0.000 A 
ATOM      6  C   UNL     1       1.320   7.892  20.087  0.00  0.00    +0.000 A 
ATOM      7  C   UNL     1       0.865   9.267  20.206  0.00  0.00    +0.000 A 
ATOM      8  C   UNL     1       1.301  10.179  19.332  0.00  0.00    +0.000 A 
ATOM      9  C   UNL     1       2.183   9.835  18.203  0.00  0.00    +0.000 A 
ATOM     10  O   UNL     1       2.621  10.705  17.459  0.00  0.00    +0.000 OA
ATOM     11  O   UNL     1       2.471   8.489  18.028  0.00  0.00    +0.000 OA
ATOM     12  C   UNL     1       2.109   7.527  18.991  0.00  0.00    +0.000 A 
ATOM     13  O   UNL     1       2.927   4.083  19.870  0.00  0.00    +0.000 OA
ATOM     14  C   UNL     1       2.679   3.411  18.618  0.00  0.00    +0.000 C 
ATOM     15  C   UNL     1       1.157   3.137  18.539  0.00  0.00    +0.000 C 
ATOM     16  C   UNL     1       3.365   2.040  18.735  0.00  0.00    +0.000 C 
ATOM     17  C   UNL     1       3.197   4.236  17.385  0.00  0.00    +0.000 C 
ENDROOT
BRANCH   1  20
ATOM     18  C   UNL     1       5.589   6.596  16.818  0.00  0.00    +0.000 C 
ATOM     19  O   UNL     1       5.218   6.547  15.648  0.00  0.00    +0.000 OA
ATOM     20  N   UNL     1       4.794   6.181  17.857  0.00  0.00    +0.000 N 
ATOM     21  H   UNL     1       5.169   6.178  18.796  0.00  0.00    +0.000 HD
BRANCH  18  22
ATOM     22  C   UNL     1       6.966   7.091  17.225  0.00  0.00    +0.000 C 
BRANCH  22  24
ATOM     23  C   UNL     1       7.621   5.886  19.355  0.00  0.00    +0.000 C 
ATOM     24  C   UNL     1       7.840   5.990  17.844  0.00  0.00    +0.000 C 
ATOM     25  C   UNL     1       7.548   4.638  17.188  0.00  0.00    +0.000 C 
ENDBRANCH  22  24
ENDBRANCH  18  22
ENDBRANCH   1  20
BRANCH  17  26
ATOM     26  O   UNL     1       4.376   3.646  16.811  0.00  0.00    +0.000 OA
ATOM     27  H   UNL     1       4.170   3.461  15.870  0.00  0.00    +0.000 HD
ENDBRANCH  17  26
TORSDOF 4
ENDMDL
MODEL 3
REMARK VINA RESULT:      -7.0      2.007      5.335
REMARK  Name = 
REMARK  8 active torsions:
REMARK  status: ('A' for Active; 'I' for Inactive)
REMARK    1  A    between atoms: C_1  and  C_2
REMARK    2  A    between atoms: C_2  and  C_3
REMARK    3  A    between atoms: C_2  and  C_4
REMARK    4  A    between atoms: C_4  and  C_5
REMARK    5  A    between atoms: N_7  and  C_8
REMARK    6  A    between atoms: C_21  and  C_22
REMARK    7  A    between atoms: C_21  and  C_23
REMARK    8  A    between atoms: C_24  and  O_25
REMARK                            x       y       z     vdW  Elec       q    Type
REMARK                         _______ _______ _______ _____ _____    ______ ____
ROOT
ATOM      1  C   UNL     1       3.169   5.965  19.290  0.00  0.00    +0.000 C 
ATOM      2  C   UNL     1       3.890   5.046  18.346  0.00  0.00    +0.000 A 
ATOM      3  C   UNL     1       3.291   3.835  18.008  0.00  0.00    +0.000 A 
ATOM      4  C   UNL     1       3.922   2.913  17.178  0.00  0.00    +0.000 A 
ATOM      5  C   UNL     1       5.179   3.207  16.654  0.00  0.00    +0.000 A 
ATOM      6  C   UNL     1       5.755   4.456  16.893  0.00  0.00    +0.000 A 
ATOM      7  C   UNL     1       6.996   4.851  16.248  0.00  0.00    +0.000 A 
ATOM      8  C   UNL     1       7.427   6.110  16.373  0.00  0.00    +0.000 A 
ATOM      9  C   UNL     1       6.724   7.110  17.197  0.00  0.00    +0.000 A 
ATOM     10  O   UNL     1       7.106   8.274  17.236  0.00  0.00    +0.000 OA
ATOM     11  O   UNL     1       5.631   6.657  17.923  0.00  0.00    +0.000 OA
ATOM     12  C   UNL     1       5.100   5.367  17.728  0.00  0.00    +0.000 A 
ATOM     13  O   UNL     1       2.051   3.514  18.483  0.00  0.00    +0.000 OA
ATOM     14  C   UNL     1       1.959   3.701  19.911  0.00  0.00    +0.000 C 
ATOM     15  C   UNL     1       2.884   2.648  20.570  0.00  0.00    +0.000 C 
ATOM     16  C   UNL     1       0.520   3.318  20.292  0.00  0.00    +0.000 C 
ATOM     17  C   UNL     1       2.325   5.165  20.346  0.00  0.00    +0.000 C 
ENDROOT
BRANCH   1  20
ATOM     18  C   UNL     1       1.987   8.139  19.043  0.00  0.00    +0.000 C 
ATOM     19  O   UNL     1       2.111   8.408  20.236  0.00  0.00    +0.000 OA
ATOM     20  N   UNL     1       2.419   6.950  18.512  0.00  0.00    +0.000 N 
ATOM     21  H   UNL     1       2.233   6.747  17.538  0.00  0.00    +0.000 HD
BRANCH  18  22
ATOM     22  C   UNL     1       1.321   9.078  18.053  0.00  0.00    +0.000 C 
BRANCH  22  24
ATOM     23  C   UNL     1       0.952  11.449  18.866  0.00  0.00    +0.000 C 
ATOM     24  C   UNL     1       0.340  10.054  18.718  0.00  0.00    +0.000 C 
ATOM     25  C   UNL     1      -0.959  10.145  17.914  0.00  0.00    +0.000 C 
ENDBRANCH  22  24
ENDBRANCH  18  22
ENDBRANCH   1  20
BRANCH  17  26
ATOM     26  O   UNL     1       1.159   5.903  20.751  0.00  0.00    +0.000 OA
ATOM     27  H   UNL     1       1.233   6.794  20.346  0.00  0.00    +0.000 HD
ENDBRANCH  17  26
TORSDOF 4
ENDMDL
MODEL 4
REMARK VINA RESULT:      -6.6      5.347      9.473
REMARK  Name = 
REMARK  8 active torsions:
REMARK  status: ('A' for Active; 'I' for Inactive)
REMARK    1  A    between atoms: C_1  and  C_2
REMARK    2  A    between atoms: C_2  and  C_3
REMARK    3  A    between atoms: C_2  and  C_4
REMARK    4  A    between atoms: C_4  and  C_5
REMARK    5  A    between atoms: N_7  and  C_8
REMARK    6  A    between atoms: C_21  and  C_22
REMARK    7  A    between atoms: C_21  and  C_23
REMARK    8  A    between atoms: C_24  and  O_25
REMARK                            x       y       z     vdW  Elec       q    Type
REMARK                         _______ _______ _______ _____ _____    ______ ____
ROOT
ATOM      1  C   UNL     1      -1.483  12.557  20.237  0.00  0.00    +0.000 C 
ATOM      2  C   UNL     1      -1.003  11.488  21.176  0.00  0.00    +0.000 A 
ATOM      3  C   UNL     1      -1.553  11.426  22.453  0.00  0.00    +0.000 A 
ATOM      4  C   UNL     1      -1.122  10.494  23.392  0.00  0.00    +0.000 A 
ATOM      5  C   UNL     1      -0.125   9.584  23.050  0.00  0.00    +0.000 A 
ATOM      6  C   UNL     1       0.370   9.556  21.744  0.00  0.00    +0.000 A 
ATOM      7  C   UNL     1       1.304   8.531  21.312  0.00  0.00    +0.000 A 
ATOM      8  C   UNL     1       1.626   8.440  20.019  0.00  0.00    +0.000 A 
ATOM      9  C   UNL     1       1.116   9.385  19.008  0.00  0.00    +0.000 A 
ATOM     10  O   UNL     1       1.374   9.235  17.819  0.00  0.00    +0.000 OA
ATOM     11  O   UNL     1       0.353  10.444  19.479  0.00  0.00    +0.000 OA
ATOM     12  C   UNL     1      -0.082  10.502  20.817  0.00  0.00    +0.000 A 
ATOM     13  O   UNL     1      -2.548  12.287  22.826  0.00  0.00    +0.000 OA
ATOM     14  C   UNL     1      -2.211  13.657  22.525  0.00  0.00    +0.000 C 
ATOM     15  C   UNL     1      -1.027  14.050  23.444  0.00  0.00    +0.000 C 
ATOM     16  C   UNL     1      -3.416  14.495  22.982  0.00  0.00    +0.000 C 
ATOM     17  C   UNL     1      -1.876  13.869  21.005  0.00  0.00    +0.000 C 
ENDROOT
BRANCH   1  20
ATOM     18  C   UNL     1      -2.404  11.910  18.019  0.00  0.00    +0.000 C 
ATOM     19  O   UNL     1      -1.445  12.388  17.417  0.00  0.00    +0.000 OA
ATOM     20  N   UNL     1      -2.532  12.001  19.382  0.00  0.00    +0.000 N 
ATOM     21  H   UNL     1      -3.372  11.652  19.825  0.00  0.00    +0.000 HD
BRANCH  18  22
ATOM     22  C   UNL     1      -3.550  11.205  17.315  0.00  0.00    +0.000 C 
BRANCH  22  24
ATOM     23  C   UNL     1      -2.989  10.470  14.956  0.00  0.00    +0.000 C 
ATOM     24  C   UNL     1      -3.083  10.045  16.424  0.00  0.00    +0.000 C 
ATOM     25  C   UNL     1      -1.725   9.517  16.894  0.00  0.00    +0.000 C 
ENDBRANCH  22  24
ENDBRANCH  18  22
ENDBRANCH   1  20
BRANCH  17  26
ATOM     26  O   UNL     1      -2.926  14.579  20.326  0.00  0.00    +0.000 OA
ATOM     27  H   UNL     1      -2.513  15.368  19.914  0.00  0.00    +0.000 HD
ENDBRANCH  17  26
TORSDOF 4
ENDMDL
MODEL 5
REMARK VINA RESULT:      -6.5      5.696     10.020
REMARK  Name = 
REMARK  8 active torsions:
REMARK  status: ('A' for Active; 'I' for Inactive)
REMARK    1  A    between atoms: C_1  and  C_2
REMARK    2  A    between atoms: C_2  and  C_3
REMARK    3  A    between atoms: C_2  and  C_4
REMARK    4  A    between atoms: C_4  and  C_5
REMARK    5  A    between atoms: N_7  and  C_8
REMARK    6  A    between atoms: C_21  and  C_22
REMARK    7  A    between atoms: C_21  and  C_23
REMARK    8  A    between atoms: C_24  and  O_25
REMARK                            x       y       z     vdW  Elec       q    Type
REMARK                         _______ _______ _______ _____ _____    ______ ____
ROOT
ATOM      1  C   UNL     1      -1.601  12.611  20.258  0.00  0.00    +0.000 C 
ATOM      2  C   UNL     1      -1.071  11.545  21.174  0.00  0.00    +0.000 A 
ATOM      3  C   UNL     1      -1.557  11.486  22.478  0.00  0.00    +0.000 A 
ATOM      4  C   UNL     1      -1.077  10.557  23.396  0.00  0.00    +0.000 A 
ATOM      5  C   UNL     1      -0.096   9.648  23.006  0.00  0.00    +0.000 A 
ATOM      6  C   UNL     1       0.333   9.619  21.678  0.00  0.00    +0.000 A 
ATOM      7  C   UNL     1       1.247   8.594  21.202  0.00  0.00    +0.000 A 
ATOM      8  C   UNL     1       1.503   8.501  19.894  0.00  0.00    +0.000 A 
ATOM      9  C   UNL     1       0.941   9.442  18.908  0.00  0.00    +0.000 A 
ATOM     10  O   UNL     1       1.139   9.289  17.708  0.00  0.00    +0.000 OA
ATOM     11  O   UNL     1       0.199  10.500  19.414  0.00  0.00    +0.000 OA
ATOM     12  C   UNL     1      -0.167  10.561  20.772  0.00  0.00    +0.000 A 
ATOM     13  O   UNL     1      -2.533  12.346  22.898  0.00  0.00    +0.000 OA
ATOM     14  C   UNL     1      -2.215  13.715  22.577  0.00  0.00    +0.000 C 
ATOM     15  C   UNL     1      -0.988  14.113  23.434  0.00  0.00    +0.000 C 
ATOM     16  C   UNL     1      -3.398  14.552  23.092  0.00  0.00    +0.000 C 
ATOM     17  C   UNL     1      -1.957  13.925  21.042  0.00  0.00    +0.000 C 
ENDROOT
BRANCH   1  20
ATOM     18  C   UNL     1      -2.571  11.808  18.113  0.00  0.00    +0.000 C 
ATOM     19  O   UNL     1      -1.579  12.145  17.472  0.00  0.00    +0.000 OA
ATOM     20  N   UNL     1      -2.690  12.050  19.459  0.00  0.00    +0.000 N 
ATOM     21  H   UNL     1      -3.554  11.815  19.929  0.00  0.00    +0.000 HD
BRANCH  18  22
ATOM     22  C   UNL     1      -3.768  11.122  17.479  0.00  0.00    +0.000 C 
BRANCH  22  24
ATOM     23  C   UNL     1      -5.857  12.482  17.028  0.00  0.00    +0.000 C 
ATOM     24  C   UNL     1      -5.109  11.614  18.042  0.00  0.00    +0.000 C 
ATOM     25  C   UNL     1      -5.988  10.430  18.452  0.00  0.00    +0.000 C 
ENDBRANCH  22  24
ENDBRANCH  18  22
ENDBRANCH   1  20
BRANCH  17  26
ATOM     26  O   UNL     1      -3.042  14.630  20.414  0.00  0.00    +0.000 OA
ATOM     27  H   UNL     1      -3.159  14.235  19.524  0.00  0.00    +0.000 HD
ENDBRANCH  17  26
TORSDOF 4
ENDMDL
MODEL 6
REMARK VINA RESULT:      -6.5      8.703     12.034
REMARK  Name = 
REMARK  8 active torsions:
REMARK  status: ('A' for Active; 'I' for Inactive)
REMARK    1  A    between atoms: C_1  and  C_2
REMARK    2  A    between atoms: C_2  and  C_3
REMARK    3  A    between atoms: C_2  and  C_4
REMARK    4  A    between atoms: C_4  and  C_5
REMARK    5  A    between atoms: N_7  and  C_8
REMARK    6  A    between atoms: C_21  and  C_22
REMARK    7  A    between atoms: C_21  and  C_23
REMARK    8  A    between atoms: C_24  and  O_25
REMARK                            x       y       z     vdW  Elec       q    Type
REMARK                         _______ _______ _______ _____ _____    ______ ____
ROOT
ATOM      1  C   UNL     1      -5.038  12.034  18.999  0.00  0.00    +0.000 C 
ATOM      2  C   UNL     1      -3.858  12.197  19.914  0.00  0.00    +0.000 A 
ATOM      3  C   UNL     1      -2.582  12.218  19.358  0.00  0.00    +0.000 A 
ATOM      4  C   UNL     1      -1.440  12.317  20.148  0.00  0.00    +0.000 A 
ATOM      5  C   UNL     1      -1.568  12.412  21.532  0.00  0.00    +0.000 A 
ATOM      6  C   UNL     1      -2.838  12.496  22.107  0.00  0.00    +0.000 A 
ATOM      7  C   UNL     1      -3.008  12.739  23.529  0.00  0.00    +0.000 A 
ATOM      8  C   UNL     1      -4.231  12.977  24.011  0.00  0.00    +0.000 A 
ATOM      9  C   UNL     1      -5.437  12.942  23.164  0.00  0.00    +0.000 A 
ATOM     10  O   UNL     1      -6.536  13.232  23.621  0.00  0.00    +0.000 OA
ATOM     11  O   UNL     1      -5.256  12.554  21.844  0.00  0.00    +0.000 OA
ATOM     12  C   UNL     1      -3.970  12.398  21.291  0.00  0.00    +0.000 A 
ATOM     13  O   UNL     1      -2.410  12.148  18.004  0.00  0.00    +0.000 OA
ATOM     14  C   UNL     1      -3.155  11.056  17.426  0.00  0.00    +0.000 C 
ATOM     15  C   UNL     1      -2.517   9.742  17.942  0.00  0.00    +0.000 C 
ATOM     16  C   UNL     1      -2.878  11.113  15.915  0.00  0.00    +0.000 C 
ATOM     17  C   UNL     1      -4.689  11.139  17.757  0.00  0.00    +0.000 C 
ENDROOT
BRANCH   1  20
ATOM     18  C   UNL     1      -6.896  13.681  18.864  0.00  0.00    +0.000 C 
ATOM     19  O   UNL     1      -7.734  12.851  19.207  0.00  0.00    +0.000 OA
ATOM     20  N   UNL     1      -5.576  13.356  18.681  0.00  0.00    +0.000 N 
ATOM     21  H   UNL     1      -4.937  14.059  18.332  0.00  0.00    +0.000 HD
BRANCH  18  22
ATOM     22  C   UNL     1      -7.243  15.132  18.580  0.00  0.00    +0.000 C 
BRANCH  22  24
ATOM     23  C   UNL     1      -7.675  14.793  16.107  0.00  0.00    +0.000 C 
ATOM     24  C   UNL     1      -6.874  15.570  17.155  0.00  0.00    +0.000 C 
ATOM     25  C   UNL     1      -7.110  17.071  16.975  0.00  0.00    +0.000 C 
ENDBRANCH  22  24
ENDBRANCH  18  22
ENDBRANCH   1  20
BRANCH  17  26
ATOM     26  O   UNL     1      -5.459  11.521  16.604  0.00  0.00    +0.000 OA
ATOM     27  H   UNL     1      -6.378  11.217  16.764  0.00  0.00    +0.000 HD
ENDBRANCH  17  26
TORSDOF 4
ENDMDL
MODEL 7
REMARK VINA RESULT:      -6.3      7.046     10.664
REMARK  Name = 
REMARK  8 active torsions:
REMARK  status: ('A' for Active; 'I' for Inactive)
REMARK    1  A    between atoms: C_1  and  C_2
REMARK    2  A    between atoms: C_2  and  C_3
REMARK    3  A    between atoms: C_2  and  C_4
REMARK    4  A    between atoms: C_4  and  C_5
REMARK    5  A    between atoms: N_7  and  C_8
REMARK    6  A    between atoms: C_21  and  C_22
REMARK    7  A    between atoms: C_21  and  C_23
REMARK    8  A    between atoms: C_24  and  O_25
REMARK                            x       y       z     vdW  Elec       q    Type
REMARK                         _______ _______ _______ _____ _____    ______ ____
ROOT
ATOM      1  C   UNL     1      -3.736  12.560  20.145  0.00  0.00    +0.000 C 
ATOM      2  C   UNL     1      -3.098  11.740  19.061  0.00  0.00    +0.000 A 
ATOM      3  C   UNL     1      -3.791  11.563  17.865  0.00  0.00    +0.000 A 
ATOM      4  C   UNL     1      -3.284  10.776  16.835  0.00  0.00    +0.000 A 
ATOM      5  C   UNL     1      -2.046  10.156  16.988  0.00  0.00    +0.000 A 
ATOM      6  C   UNL     1      -1.286  10.400  18.134  0.00  0.00    +0.000 A 
ATOM      7  C   UNL     1       0.068   9.888  18.265  0.00  0.00    +0.000 A 
ATOM      8  C   UNL     1       0.819  10.279  19.298  0.00  0.00    +0.000 A 
ATOM      9  C   UNL     1       0.308  11.168  20.357  0.00  0.00    +0.000 A 
ATOM     10  O   UNL     1       1.042  11.565  21.255  0.00  0.00    +0.000 OA
ATOM     11  O   UNL     1      -1.034  11.513  20.283  0.00  0.00    +0.000 OA
ATOM     12  C   UNL     1      -1.815  11.198  19.154  0.00  0.00    +0.000 A 
ATOM     13  O   UNL     1      -5.000  12.168  17.664  0.00  0.00    +0.000 OA
ATOM     14  C   UNL     1      -5.902  11.942  18.767  0.00  0.00    +0.000 C 
ATOM     15  C   UNL     1      -6.248  10.432  18.773  0.00  0.00    +0.000 C 
ATOM     16  C   UNL     1      -7.198  12.686  18.407  0.00  0.00    +0.000 C 
ATOM     17  C   UNL     1      -5.299  12.417  20.137  0.00  0.00    +0.000 C 
ENDROOT
BRANCH   1  20
ATOM     18  C   UNL     1      -2.542  14.534  21.075  0.00  0.00    +0.000 C 
ATOM     19  O   UNL     1      -2.386  13.997  22.169  0.00  0.00    +0.000 OA
ATOM     20  N   UNL     1      -3.237  13.932  20.056  0.00  0.00    +0.000 N 
ATOM     21  H   UNL     1      -3.397  14.442  19.197  0.00  0.00    +0.000 HD
BRANCH  18  22
ATOM     22  C   UNL     1      -2.012  15.921  20.755  0.00  0.00    +0.000 C 
BRANCH  22  24
ATOM     23  C   UNL     1      -0.980  17.185  18.817  0.00  0.00    +0.000 C 
ATOM     24  C   UNL     1      -0.929  15.912  19.666  0.00  0.00    +0.000 C 
ATOM     25  C   UNL     1       0.461  15.764  20.289  0.00  0.00    +0.000 C 
ENDBRANCH  22  24
ENDBRANCH  18  22
ENDBRANCH   1  20
BRANCH  17  26
ATOM     26  O   UNL     1      -5.937  13.617  20.608  0.00  0.00    +0.000 OA
ATOM     27  H   UNL     1      -6.830  13.640  20.205  0.00  0.00    +0.000 HD
ENDBRANCH  17  26
TORSDOF 4
ENDMDL
MODEL 8
REMARK VINA RESULT:      -6.3      7.879     11.396
REMARK  Name = 
REMARK  8 active torsions:
REMARK  status: ('A' for Active; 'I' for Inactive)
REMARK    1  A    between atoms: C_1  and  C_2
REMARK    2  A    between atoms: C_2  and  C_3
REMARK    3  A    between atoms: C_2  and  C_4
REMARK    4  A    between atoms: C_4  and  C_5
REMARK    5  A    between atoms: N_7  and  C_8
REMARK    6  A    between atoms: C_21  and  C_22
REMARK    7  A    between atoms: C_21  and  C_23
REMARK    8  A    between atoms: C_24  and  O_25
REMARK                            x       y       z     vdW  Elec       q    Type
REMARK                         _______ _______ _______ _____ _____    ______ ____
ROOT
ATOM      1  C   UNL     1      -3.211  13.261  20.602  0.00  0.00    +0.000 C 
ATOM      2  C   UNL     1      -2.216  12.203  20.219  0.00  0.00    +0.000 A 
ATOM      3  C   UNL     1      -1.256  11.822  21.153  0.00  0.00    +0.000 A 
ATOM      4  C   UNL     1      -0.273  10.884  20.852  0.00  0.00    +0.000 A 
ATOM      5  C   UNL     1      -0.249  10.294  19.590  0.00  0.00    +0.000 A 
ATOM      6  C   UNL     1      -1.261  10.581  18.671  0.00  0.00    +0.000 A 
ATOM      7  C   UNL     1      -1.350   9.879  17.402  0.00  0.00    +0.000 A 
ATOM      8  C   UNL     1      -2.421  10.063  16.625  0.00  0.00    +0.000 A 
ATOM      9  C   UNL     1      -3.499  11.005  16.974  0.00  0.00    +0.000 A 
ATOM     10  O   UNL     1      -4.502  11.102  16.275  0.00  0.00    +0.000 OA
ATOM     11  O   UNL     1      -3.307  11.773  18.114  0.00  0.00    +0.000 OA
ATOM     12  C   UNL     1      -2.240  11.525  18.999  0.00  0.00    +0.000 A 
ATOM     13  O   UNL     1      -1.253  12.361  22.409  0.00  0.00    +0.000 OA
ATOM     14  C   UNL     1      -1.329  13.801  22.374  0.00  0.00    +0.000 C 
ATOM     15  C   UNL     1      -0.005  14.314  21.756  0.00  0.00    +0.000 C 
ATOM     16  C   UNL     1      -1.332  14.256  23.843  0.00  0.00    +0.000 C 
ATOM     17  C   UNL     1      -2.588  14.314  21.586  0.00  0.00    +0.000 C 
ENDROOT
BRANCH   1  20
ATOM     18  C   UNL     1      -5.683  13.116  20.826  0.00  0.00    +0.000 C 
ATOM     19  O   UNL     1      -5.855  14.201  20.276  0.00  0.00    +0.000 OA
ATOM     20  N   UNL     1      -4.432  12.612  21.077  0.00  0.00    +0.000 N 
ATOM     21  H   UNL     1      -4.342  11.747  21.594  0.00  0.00    +0.000 HD
BRANCH  18  22
ATOM     22  C   UNL     1      -6.832  12.246  21.306  0.00  0.00    +0.000 C 
BRANCH  22  24
ATOM     23  C   UNL     1      -6.798  11.695  18.833  0.00  0.00    +0.000 C 
ATOM     24  C   UNL     1      -7.504  11.460  20.171  0.00  0.00    +0.000 C 
ATOM     25  C   UNL     1      -7.521   9.963  20.488  0.00  0.00    +0.000 C 
ENDBRANCH  22  24
ENDBRANCH  18  22
ENDBRANCH   1  20
BRANCH  17  26
ATOM     26  O   UNL     1      -3.583  14.854  22.472  0.00  0.00    +0.000 OA
ATOM     27  H   UNL     1      -3.840  14.132  23.084  0.00  0.00    +0.000 HD
ENDBRANCH  17  26
TORSDOF 4
ENDMDL
MODEL 9
REMARK VINA RESULT:      -6.2      6.953     10.333
REMARK  Name = 
REMARK  8 active torsions:
REMARK  status: ('A' for Active; 'I' for Inactive)
REMARK    1  A    between atoms: C_1  and  C_2
REMARK    2  A    between atoms: C_2  and  C_3
REMARK    3  A    between atoms: C_2  and  C_4
REMARK    4  A    between atoms: C_4  and  C_5
REMARK    5  A    between atoms: N_7  and  C_8
REMARK    6  A    between atoms: C_21  and  C_22
REMARK    7  A    between atoms: C_21  and  C_23
REMARK    8  A    between atoms: C_24  and  O_25
REMARK                            x       y       z     vdW  Elec       q    Type
REMARK                         _______ _______ _______ _____ _____    ______ ____
ROOT
ATOM      1  C   UNL     1      -0.619  13.745  19.849  0.00  0.00    +0.000 C 
ATOM      2  C   UNL     1      -0.497  12.372  19.253  0.00  0.00    +0.000 A 
ATOM      3  C   UNL     1       0.721  11.705  19.360  0.00  0.00    +0.000 A 
ATOM      4  C   UNL     1       0.921  10.451  18.790  0.00  0.00    +0.000 A 
ATOM      5  C   UNL     1      -0.122   9.833  18.105  0.00  0.00    +0.000 A 
ATOM      6  C   UNL     1      -1.382  10.433  18.071  0.00  0.00    +0.000 A 
ATOM      7  C   UNL     1      -2.527   9.753  17.491  0.00  0.00    +0.000 A 
ATOM      8  C   UNL     1      -3.744  10.289  17.625  0.00  0.00    +0.000 A 
ATOM      9  C   UNL     1      -3.970  11.584  18.290  0.00  0.00    +0.000 A 
ATOM     10  O   UNL     1      -5.105  12.016  18.459  0.00  0.00    +0.000 OA
ATOM     11  O   UNL     1      -2.839  12.280  18.694  0.00  0.00    +0.000 OA
ATOM     12  C   UNL     1      -1.560  11.692  18.655  0.00  0.00    +0.000 A 
ATOM     13  O   UNL     1       1.765  12.265  20.040  0.00  0.00    +0.000 OA
ATOM     14  C   UNL     1       2.009  13.624  19.621  0.00  0.00    +0.000 C 
ATOM     15  C   UNL     1       2.517  13.568  18.159  0.00  0.00    +0.000 C 
ATOM     16  C   UNL     1       3.188  14.120  20.474  0.00  0.00    +0.000 C 
ATOM     17  C   UNL     1       0.737  14.533  19.772  0.00  0.00    +0.000 C 
ENDROOT
BRANCH   1  20
ATOM     18  C   UNL     1      -2.261  14.387  21.603  0.00  0.00    +0.000 C 
ATOM     19  O   UNL     1      -2.735  15.286  20.912  0.00  0.00    +0.000 OA
ATOM     20  N   UNL     1      -1.195  13.630  21.189  0.00  0.00    +0.000 N 
ATOM     21  H   UNL     1      -0.797  12.947  21.821  0.00  0.00    +0.000 HD
BRANCH  18  22
ATOM     22  C   UNL     1      -2.787  14.049  22.987  0.00  0.00    +0.000 C 
BRANCH  22  24
ATOM     23  C   UNL     1      -4.139  12.454  24.418  0.00  0.00    +0.000 C 
ATOM     24  C   UNL     1      -3.553  12.718  23.029  0.00  0.00    +0.000 C 
ATOM     25  C   UNL     1      -4.675  12.710  21.987  0.00  0.00    +0.000 C 
ENDBRANCH  22  24
ENDBRANCH  18  22
ENDBRANCH   1  20
BRANCH  17  26
ATOM     26  O   UNL     1       0.871  15.453  20.869  0.00  0.00    +0.000 OA
ATOM     27  H   UNL     1       0.817  14.922  21.692  0.00  0.00    +0.000 HD
ENDBRANCH  17  26
TORSDOF 4
ENDMDL
