MODEL 1
REMARK VINA RESULT:      -9.8      0.000      0.000
REMARK  Name = 
REMARK  6 active torsions:
REMARK  status: ('A' for Active; 'I' for Inactive)
REMARK    1  A    between atoms: C_2  and  C_25
REMARK    2  A    between atoms: N_3  and  C_4
REMARK    3  A    between atoms: C_8  and  C_9
REMARK    4  A    between atoms: C_9  and  N_10
REMARK    5  A    between atoms: C_13  and  C_14
REMARK    6  A    between atoms: N_16  and  C_17
REMARK                            x       y       z     vdW  Elec       q    Type
REMARK                         _______ _______ _______ _____ _____    ______ ____
ROOT
ATOM      1  C   UNL     1       1.553   5.119  20.607  0.00  0.00    +0.000 A 
ATOM      2  C   UNL     1       0.823   3.921  20.634  0.00  0.00    +0.000 A 
ATOM      3  C   UNL     1       1.408   2.716  20.239  0.00  0.00    +0.000 A 
ATOM      4  C   UNL     1       2.735   2.696  19.822  0.00  0.00    +0.000 A 
ATOM      5  C   UNL     1       3.473   3.885  19.749  0.00  0.00    +0.000 A 
ATOM      6  C   UNL     1       2.850   5.099  20.091  0.00  0.00    +0.000 A 
ENDROOT
BRANCH   1   9
ATOM      7  O   UNL     1       2.257   7.784  19.766  0.00  0.00    +0.000 OA
ATOM      8  C   UNL     1       1.406   7.579  20.646  0.00  0.00    +0.000 C 
ATOM      9  N   UNL     1       1.095   6.338  21.162  0.00  0.00    +0.000 N 
ATOM     10  H   UNL     1       0.325   6.259  21.814  0.00  0.00    +0.000 HD
BRANCH   8  11
ATOM     11  C   UNL     1       0.668   8.774  21.099  0.00  0.00    +0.000 A 
ATOM     12  C   UNL     1       0.940   9.188  22.401  0.00  0.00    +0.000 A 
ATOM     13  N   UNL     1       0.273  10.154  23.060  0.00  0.00    +0.000 NA
ATOM     14  C   UNL     1      -0.575  10.895  22.351  0.00  0.00    +0.000 A 
ATOM     15  C   UNL     1      -1.224  11.924  23.006  0.00  0.00    +0.000 A 
ATOM     16  C   UNL     1      -1.883  12.920  22.293  0.00  0.00    +0.000 A 
ATOM     17  C   UNL     1      -1.926  12.853  20.905  0.00  0.00    +0.000 A 
ATOM     18  C   UNL     1      -1.435  11.722  20.243  0.00  0.00    +0.000 A 
ATOM     19  C   UNL     1      -0.772  10.713  20.965  0.00  0.00    +0.000 A 
ATOM     20  C   UNL     1      -0.229   9.554  20.365  0.00  0.00    +0.000 A 
ENDBRANCH   8  11
ENDBRANCH   1   9
BRANCH   5  21
ATOM     21  C   UNL     1       4.933   3.868  19.355  0.00  0.00    +0.000 C 
BRANCH  21  22
ATOM     22  N   UNL     1       5.365   5.065  18.584  0.00  0.00    +0.000 NA
ATOM     23  C   UNL     1       6.820   5.043  18.356  0.00  0.00    +0.000 C 
ATOM     24  C   UNL     1       7.308   6.174  17.445  0.00  0.00    +0.000 C 
ATOM     25  C   UNL     1       6.569   6.210  16.111  0.00  0.00    +0.000 C 
ATOM     26  C   UNL     1       5.059   6.217  16.375  0.00  0.00    +0.000 C 
ATOM     27  C   UNL     1       4.613   5.097  17.318  0.00  0.00    +0.000 C 
BRANCH  25  28
ATOM     28  C   UNL     1       6.973   5.094  15.140  0.00  0.00    +0.000 C 
ATOM     29  O   UNL     1       7.947   4.371  15.331  0.00  0.00    +0.000 OA
ATOM     30  N   UNL     1       6.110   4.897  14.073  0.00  0.00    +0.000 N 
ATOM     31  H   UNL     1       5.401   5.587  13.860  0.00  0.00    +0.000 HD
BRANCH  30  32
ATOM     32  C   UNL     1       6.246   3.724  13.233  0.00  0.00    +0.000 C 
ATOM     33  C   UNL     1       4.972   3.319  12.495  0.00  0.00    +0.000 C 
ATOM     34  C   UNL     1       5.476   2.277  11.499  0.00  0.00    +0.000 C 
ATOM     35  C   UNL     1       6.925   2.668  11.190  0.00  0.00    +0.000 C 
ATOM     36  C   UNL     1       7.232   3.876  12.078  0.00  0.00    +0.000 C 
ENDBRANCH  30  32
ENDBRANCH  25  28
ENDBRANCH  21  22
ENDBRANCH   5  21
TORSDOF 6
ENDMDL
MODEL 2
REMARK VINA RESULT:      -9.4      0.857      1.210
REMARK  Name = 
REMARK  6 active torsions:
REMARK  status: ('A' for Active; 'I' for Inactive)
REMARK    1  A    between atoms: C_2  and  C_25
REMARK    2  A    between atoms: N_3  and  C_4
REMARK    3  A    between atoms: C_8  and  C_9
REMARK    4  A    between atoms: C_9  and  N_10
REMARK    5  A    between atoms: C_13  and  C_14
REMARK    6  A    between atoms: N_16  and  C_17
REMARK                            x       y       z     vdW  Elec       q    Type
REMARK                         _______ _______ _______ _____ _____    ______ ____
ROOT
ATOM      1  C   UNL     1       1.889   5.031  20.718  0.00  0.00    +0.000 A 
ATOM      2  C   UNL     1       1.249   3.865  21.165  0.00  0.00    +0.000 A 
ATOM      3  C   UNL     1       1.761   2.604  20.858  0.00  0.00    +0.000 A 
ATOM      4  C   UNL     1       2.928   2.495  20.108  0.00  0.00    +0.000 A 
ATOM      5  C   UNL     1       3.564   3.644  19.617  0.00  0.00    +0.000 A 
ATOM      6  C   UNL     1       3.000   4.905  19.883  0.00  0.00    +0.000 A 
ENDROOT
BRANCH   1   9
ATOM      7  O   UNL     1       2.285   7.488  19.265  0.00  0.00    +0.000 OA
ATOM      8  C   UNL     1       1.679   7.459  20.349  0.00  0.00    +0.000 C 
ATOM      9  N   UNL     1       1.541   6.337  21.139  0.00  0.00    +0.000 N 
ATOM     10  H   UNL     1       0.955   6.389  21.962  0.00  0.00    +0.000 HD
BRANCH   8  11
ATOM     11  C   UNL     1       1.035   8.726  20.745  0.00  0.00    +0.000 A 
ATOM     12  C   UNL     1       1.021   9.721  19.770  0.00  0.00    +0.000 A 
ATOM     13  N   UNL     1       0.623  10.993  19.969  0.00  0.00    +0.000 NA
ATOM     14  C   UNL     1       0.021  11.264  21.125  0.00  0.00    +0.000 A 
ATOM     15  C   UNL     1      -0.440  12.552  21.315  0.00  0.00    +0.000 A 
ATOM     16  C   UNL     1      -1.332  12.846  22.341  0.00  0.00    +0.000 A 
ATOM     17  C   UNL     1      -1.729  11.837  23.212  0.00  0.00    +0.000 A 
ATOM     18  C   UNL     1      -1.128  10.576  23.143  0.00  0.00    +0.000 A 
ATOM     19  C   UNL     1      -0.223  10.280  22.107  0.00  0.00    +0.000 A 
ATOM     20  C   UNL     1       0.406   9.023  21.957  0.00  0.00    +0.000 A 
ENDBRANCH   8  11
ENDBRANCH   1   9
BRANCH   5  21
ATOM     21  C   UNL     1       4.864   3.541  18.851  0.00  0.00    +0.000 C 
BRANCH  21  22
ATOM     22  N   UNL     1       5.296   4.818  18.221  0.00  0.00    +0.000 NA
ATOM     23  C   UNL     1       6.750   4.817  17.982  0.00  0.00    +0.000 C 
ATOM     24  C   UNL     1       7.237   6.044  17.204  0.00  0.00    +0.000 C 
ATOM     25  C   UNL     1       6.489   6.237  15.888  0.00  0.00    +0.000 C 
ATOM     26  C   UNL     1       4.981   6.218  16.161  0.00  0.00    +0.000 C 
ATOM     27  C   UNL     1       4.536   4.998  16.972  0.00  0.00    +0.000 C 
BRANCH  25  28
ATOM     28  C   UNL     1       6.883   5.238  14.792  0.00  0.00    +0.000 C 
ATOM     29  O   UNL     1       8.042   4.877  14.611  0.00  0.00    +0.000 OA
ATOM     30  N   UNL     1       5.825   4.701  14.076  0.00  0.00    +0.000 N 
ATOM     31  H   UNL     1       4.904   5.112  14.144  0.00  0.00    +0.000 HD
BRANCH  30  32
ATOM     32  C   UNL     1       6.043   3.573  13.191  0.00  0.00    +0.000 C 
ATOM     33  C   UNL     1       4.850   3.219  12.305  0.00  0.00    +0.000 C 
ATOM     34  C   UNL     1       5.451   2.228  11.311  0.00  0.00    +0.000 C 
ATOM     35  C   UNL     1       6.925   2.622  11.174  0.00  0.00    +0.000 C 
ATOM     36  C   UNL     1       7.143   3.778  12.154  0.00  0.00    +0.000 C 
ENDBRANCH  30  32
ENDBRANCH  25  28
ENDBRANCH  21  22
ENDBRANCH   5  21
TORSDOF 6
ENDMDL
MODEL 3
REMARK VINA RESULT:      -9.3      2.515     11.137
REMARK  Name = 
REMARK  6 active torsions:
REMARK  status: ('A' for Active; 'I' for Inactive)
REMARK    1  A    between atoms: C_2  and  C_25
REMARK    2  A    between atoms: N_3  and  C_4
REMARK    3  A    between atoms: C_8  and  C_9
REMARK    4  A    between atoms: C_9  and  N_10
REMARK    5  A    between atoms: C_13  and  C_14
REMARK    6  A    between atoms: N_16  and  C_17
REMARK                            x       y       z     vdW  Elec       q    Type
REMARK                         _______ _______ _______ _____ _____    ______ ____
ROOT
ATOM      1  C   UNL     1       2.949   6.339  19.019  0.00  0.00    +0.000 A 
ATOM      2  C   UNL     1       2.436   5.228  19.704  0.00  0.00    +0.000 A 
ATOM      3  C   UNL     1       1.509   5.387  20.736  0.00  0.00    +0.000 A 
ATOM      4  C   UNL     1       1.078   6.662  21.087  0.00  0.00    +0.000 A 
ATOM      5  C   UNL     1       1.606   7.791  20.444  0.00  0.00    +0.000 A 
ATOM      6  C   UNL     1       2.584   7.616  19.449  0.00  0.00    +0.000 A 
ENDROOT
BRANCH   1   9
ATOM      7  O   UNL     1       5.482   4.995  18.732  0.00  0.00    +0.000 OA
ATOM      8  C   UNL     1       4.903   5.512  17.763  0.00  0.00    +0.000 C 
ATOM      9  N   UNL     1       3.742   6.252  17.849  0.00  0.00    +0.000 N 
ATOM     10  H   UNL     1       3.295   6.559  16.995  0.00  0.00    +0.000 HD
BRANCH   8  11
ATOM     11  C   UNL     1       5.510   5.240  16.447  0.00  0.00    +0.000 A 
ATOM     12  C   UNL     1       6.851   5.598  16.320  0.00  0.00    +0.000 A 
ATOM     13  N   UNL     1       7.551   5.578  15.170  0.00  0.00    +0.000 NA
ATOM     14  C   UNL     1       6.977   4.990  14.123  0.00  0.00    +0.000 A 
ATOM     15  C   UNL     1       7.709   4.916  12.954  0.00  0.00    +0.000 A 
ATOM     16  C   UNL     1       7.319   4.070  11.921  0.00  0.00    +0.000 A 
ATOM     17  C   UNL     1       6.153   3.324  12.050  0.00  0.00    +0.000 A 
ATOM     18  C   UNL     1       5.309   3.531  13.147  0.00  0.00    +0.000 A 
ATOM     19  C   UNL     1       5.701   4.389  14.190  0.00  0.00    +0.000 A 
ATOM     20  C   UNL     1       4.914   4.630  15.340  0.00  0.00    +0.000 A 
ENDBRANCH   8  11
ENDBRANCH   1   9
BRANCH   5  21
ATOM     21  C   UNL     1       1.102   9.177  20.776  0.00  0.00    +0.000 C 
BRANCH  21  22
ATOM     22  N   UNL     1       0.723   9.984  19.585  0.00  0.00    +0.000 NA
ATOM     23  C   UNL     1      -0.712   9.833  19.286  0.00  0.00    +0.000 C 
ATOM     24  C   UNL     1      -1.196  10.750  18.158  0.00  0.00    +0.000 C 
ATOM     25  C   UNL     1      -0.865  12.217  18.414  0.00  0.00    +0.000 C 
ATOM     26  C   UNL     1       0.629  12.345  18.738  0.00  0.00    +0.000 C 
ATOM     27  C   UNL     1       1.084  11.388  19.842  0.00  0.00    +0.000 C 
BRANCH  25  28
ATOM     28  C   UNL     1      -1.739  12.879  19.487  0.00  0.00    +0.000 C 
ATOM     29  O   UNL     1      -1.359  13.838  20.152  0.00  0.00    +0.000 OA
ATOM     30  N   UNL     1      -3.026  12.375  19.592  0.00  0.00    +0.000 N 
ATOM     31  H   UNL     1      -3.269  11.503  19.141  0.00  0.00    +0.000 HD
BRANCH  30  32
ATOM     32  C   UNL     1      -4.018  13.072  20.388  0.00  0.00    +0.000 C 
ATOM     33  C   UNL     1      -5.465  12.737  20.035  0.00  0.00    +0.000 C 
ATOM     34  C   UNL     1      -6.247  13.364  21.188  0.00  0.00    +0.000 C 
ATOM     35  C   UNL     1      -5.305  13.326  22.396  0.00  0.00    +0.000 C 
ATOM     36  C   UNL     1      -3.984  12.749  21.879  0.00  0.00    +0.000 C 
ENDBRANCH  30  32
ENDBRANCH  25  28
ENDBRANCH  21  22
ENDBRANCH   5  21
TORSDOF 6
ENDMDL
MODEL 4
REMARK VINA RESULT:      -9.1      2.663      4.490
REMARK  Name = 
REMARK  6 active torsions:
REMARK  status: ('A' for Active; 'I' for Inactive)
REMARK    1  A    between atoms: C_2  and  C_25
REMARK    2  A    between atoms: N_3  and  C_4
REMARK    3  A    between atoms: C_8  and  C_9
REMARK    4  A    between atoms: C_9  and  N_10
REMARK    5  A    between atoms: C_13  and  C_14
REMARK    6  A    between atoms: N_16  and  C_17
REMARK                            x       y       z     vdW  Elec       q    Type
REMARK                         _______ _______ _______ _____ _____    ______ ____
ROOT
ATOM      1  C   UNL     1       1.137   8.685  20.115  0.00  0.00    +0.000 A 
ATOM      2  C   UNL     1       1.818   8.918  18.910  0.00  0.00    +0.000 A 
ATOM      3  C   UNL     1       2.584   7.915  18.314  0.00  0.00    +0.000 A 
ATOM      4  C   UNL     1       2.670   6.663  18.912  0.00  0.00    +0.000 A 
ATOM      5  C   UNL     1       2.031   6.417  20.137  0.00  0.00    +0.000 A 
ATOM      6  C   UNL     1       1.314   7.457  20.755  0.00  0.00    +0.000 A 
ENDROOT
BRANCH   1   9
ATOM      7  O   UNL     1       1.183   9.800  22.772  0.00  0.00    +0.000 OA
ATOM      8  C   UNL     1       0.336  10.145  21.933  0.00  0.00    +0.000 C 
ATOM      9  N   UNL     1       0.199   9.581  20.681  0.00  0.00    +0.000 N 
ATOM     10  H   UNL     1      -0.462   9.988  20.032  0.00  0.00    +0.000 HD
BRANCH   8  11
ATOM     11  C   UNL     1      -0.523  11.276  22.331  0.00  0.00    +0.000 A 
ATOM     12  C   UNL     1      -0.186  12.509  21.776  0.00  0.00    +0.000 A 
ATOM     13  N   UNL     1      -0.737  13.688  22.120  0.00  0.00    +0.000 NA
ATOM     14  C   UNL     1      -1.813  13.647  22.903  0.00  0.00    +0.000 A 
ATOM     15  C   UNL     1      -2.418  14.849  23.217  0.00  0.00    +0.000 A 
ATOM     16  C   UNL     1      -3.695  14.882  23.766  0.00  0.00    +0.000 A 
ATOM     17  C   UNL     1      -4.352  13.688  24.044  0.00  0.00    +0.000 A 
ATOM     18  C   UNL     1      -3.678  12.470  23.904  0.00  0.00    +0.000 A 
ATOM     19  C   UNL     1      -2.384  12.437  23.352  0.00  0.00    +0.000 A 
ATOM     20  C   UNL     1      -1.649  11.245  23.158  0.00  0.00    +0.000 A 
ENDBRANCH   8  11
ENDBRANCH   1   9
BRANCH   5  21
ATOM     21  C   UNL     1       2.067   5.043  20.767  0.00  0.00    +0.000 C 
BRANCH  21  22
ATOM     22  N   UNL     1       2.230   3.933  19.789  0.00  0.00    +0.000 NA
ATOM     23  C   UNL     1       1.988   4.408  18.415  0.00  0.00    +0.000 C 
ATOM     24  C   UNL     1       2.281   3.348  17.348  0.00  0.00    +0.000 C 
ATOM     25  C   UNL     1       3.690   2.775  17.464  0.00  0.00    +0.000 C 
ATOM     26  C   UNL     1       3.922   2.304  18.904  0.00  0.00    +0.000 C 
ATOM     27  C   UNL     1       3.584   3.374  19.944  0.00  0.00    +0.000 C 
BRANCH  25  28
ATOM     28  C   UNL     1       4.795   3.727  16.990  0.00  0.00    +0.000 C 
ATOM     29  O   UNL     1       4.845   4.165  15.845  0.00  0.00    +0.000 OA
ATOM     30  N   UNL     1       5.685   4.133  17.972  0.00  0.00    +0.000 N 
ATOM     31  H   UNL     1       5.711   3.656  18.863  0.00  0.00    +0.000 HD
BRANCH  30  32
ATOM     32  C   UNL     1       6.615   5.214  17.710  0.00  0.00    +0.000 C 
ATOM     33  C   UNL     1       5.957   6.547  17.359  0.00  0.00    +0.000 C 
ATOM     34  C   UNL     1       7.125   7.528  17.427  0.00  0.00    +0.000 C 
ATOM     35  C   UNL     1       8.094   6.946  18.463  0.00  0.00    +0.000 C 
ATOM     36  C   UNL     1       7.488   5.608  18.897  0.00  0.00    +0.000 C 
ENDBRANCH  30  32
ENDBRANCH  25  28
ENDBRANCH  21  22
ENDBRANCH   5  21
TORSDOF 6
ENDMDL
MODEL 5
REMARK VINA RESULT:      -9.1      2.685      9.782
REMARK  Name = 
REMARK  6 active torsions:
REMARK  status: ('A' for Active; 'I' for Inactive)
REMARK    1  A    between atoms: C_2  and  C_25
REMARK    2  A    between atoms: N_3  and  C_4
REMARK    3  A    between atoms: C_8  and  C_9
REMARK    4  A    between atoms: C_9  and  N_10
REMARK    5  A    between atoms: C_13  and  C_14
REMARK    6  A    between atoms: N_16  and  C_17
REMARK                            x       y       z     vdW  Elec       q    Type
REMARK                         _______ _______ _______ _____ _____    ______ ____
ROOT
ATOM      1  C   UNL     1       2.882   5.033  18.677  0.00  0.00    +0.000 A 
ATOM      2  C   UNL     1       2.168   3.851  18.928  0.00  0.00    +0.000 A 
ATOM      3  C   UNL     1       1.221   3.789  19.952  0.00  0.00    +0.000 A 
ATOM      4  C   UNL     1       0.969   4.915  20.729  0.00  0.00    +0.000 A 
ATOM      5  C   UNL     1       1.696   6.096  20.523  0.00  0.00    +0.000 A 
ATOM      6  C   UNL     1       2.691   6.122  19.529  0.00  0.00    +0.000 A 
ENDROOT
BRANCH   1   9
ATOM      7  O   UNL     1       5.597   4.128  18.345  0.00  0.00    +0.000 OA
ATOM      8  C   UNL     1       4.978   4.688  17.426  0.00  0.00    +0.000 C 
ATOM      9  N   UNL     1       3.715   5.230  17.550  0.00  0.00    +0.000 N 
ATOM     10  H   UNL     1       3.254   5.587  16.723  0.00  0.00    +0.000 HD
BRANCH   8  11
ATOM     11  C   UNL     1       5.662   4.698  16.119  0.00  0.00    +0.000 A 
ATOM     12  C   UNL     1       6.902   5.332  16.098  0.00  0.00    +0.000 A 
ATOM     13  N   UNL     1       7.621   5.587  14.987  0.00  0.00    +0.000 NA
ATOM     14  C   UNL     1       7.207   5.021  13.856  0.00  0.00    +0.000 A 
ATOM     15  C   UNL     1       7.968   5.232  12.723  0.00  0.00    +0.000 A 
ATOM     16  C   UNL     1       7.788   4.450  11.587  0.00  0.00    +0.000 A 
ATOM     17  C   UNL     1       6.797   3.474  11.578  0.00  0.00    +0.000 A 
ATOM     18  C   UNL     1       5.901   3.378  12.648  0.00  0.00    +0.000 A 
ATOM     19  C   UNL     1       6.082   4.171  13.796  0.00  0.00    +0.000 A 
ATOM     20  C   UNL     1       5.233   4.113  14.925  0.00  0.00    +0.000 A 
ENDBRANCH   8  11
ENDBRANCH   1   9
BRANCH   5  21
ATOM     21  C   UNL     1       1.390   7.343  21.322  0.00  0.00    +0.000 C 
BRANCH  21  22
ATOM     22  N   UNL     1       1.693   8.610  20.603  0.00  0.00    +0.000 NA
ATOM     23  C   UNL     1       1.433   8.468  19.160  0.00  0.00    +0.000 C 
ATOM     24  C   UNL     1       1.587   9.779  18.384  0.00  0.00    +0.000 C 
ATOM     25  C   UNL     1       0.734  10.905  18.962  0.00  0.00    +0.000 C 
ATOM     26  C   UNL     1       1.012  11.022  20.465  0.00  0.00    +0.000 C 
ATOM     27  C   UNL     1       0.885   9.686  21.201  0.00  0.00    +0.000 C 
BRANCH  25  28
ATOM     28  C   UNL     1      -0.765  10.770  18.667  0.00  0.00    +0.000 C 
ATOM     29  O   UNL     1      -1.628  11.247  19.397  0.00  0.00    +0.000 OA
ATOM     30  N   UNL     1      -1.077  10.146  17.469  0.00  0.00    +0.000 N 
ATOM     31  H   UNL     1      -0.365   9.641  16.959  0.00  0.00    +0.000 HD
BRANCH  30  32
ATOM     32  C   UNL     1      -2.436  10.178  16.964  0.00  0.00    +0.000 C 
ATOM     33  C   UNL     1      -3.203  11.460  17.283  0.00  0.00    +0.000 C 
ATOM     34  C   UNL     1      -4.446  11.337  16.405  0.00  0.00    +0.000 C 
ATOM     35  C   UNL     1      -4.013  10.512  15.188  0.00  0.00    +0.000 C 
ATOM     36  C   UNL     1      -2.554  10.122  15.444  0.00  0.00    +0.000 C 
ENDBRANCH  30  32
ENDBRANCH  25  28
ENDBRANCH  21  22
ENDBRANCH   5  21
TORSDOF 6
ENDMDL
MODEL 6
REMARK VINA RESULT:      -9.1      3.154     11.538
REMARK  Name = 
REMARK  6 active torsions:
REMARK  status: ('A' for Active; 'I' for Inactive)
REMARK    1  A    between atoms: C_2  and  C_25
REMARK    2  A    between atoms: N_3  and  C_4
REMARK    3  A    between atoms: C_8  and  C_9
REMARK    4  A    between atoms: C_9  and  N_10
REMARK    5  A    between atoms: C_13  and  C_14
REMARK    6  A    between atoms: N_16  and  C_17
REMARK                            x       y       z     vdW  Elec       q    Type
REMARK                         _______ _______ _______ _____ _____    ______ ____
ROOT
ATOM      1  C   UNL     1       0.560  10.173  18.655  0.00  0.00    +0.000 A 
ATOM      2  C   UNL     1      -0.639  10.415  17.966  0.00  0.00    +0.000 A 
ATOM      3  C   UNL     1      -1.498  11.441  18.362  0.00  0.00    +0.000 A 
ATOM      4  C   UNL     1      -1.162  12.246  19.445  0.00  0.00    +0.000 A 
ATOM      5  C   UNL     1       0.011  11.999  20.174  0.00  0.00    +0.000 A 
ATOM      6  C   UNL     1       0.835  10.922  19.800  0.00  0.00    +0.000 A 
ENDROOT
BRANCH   1   9
ATOM      7  O   UNL     1       1.674   7.944  20.102  0.00  0.00    +0.000 OA
ATOM      8  C   UNL     1       1.984   8.179  18.923  0.00  0.00    +0.000 C 
ATOM      9  N   UNL     1       1.564   9.282  18.207  0.00  0.00    +0.000 N 
ATOM     10  H   UNL     1       1.797   9.343  17.225  0.00  0.00    +0.000 HD
BRANCH   8  11
ATOM     11  C   UNL     1       2.817   7.150  18.273  0.00  0.00    +0.000 A 
ATOM     12  C   UNL     1       2.489   5.831  18.582  0.00  0.00    +0.000 A 
ATOM     13  N   UNL     1       3.209   4.751  18.222  0.00  0.00    +0.000 NA
ATOM     14  C   UNL     1       4.193   4.945  17.347  0.00  0.00    +0.000 A 
ATOM     15  C   UNL     1       4.901   3.835  16.930  0.00  0.00    +0.000 A 
ATOM     16  C   UNL     1       5.728   3.895  15.813  0.00  0.00    +0.000 A 
ATOM     17  C   UNL     1       5.878   5.100  15.136  0.00  0.00    +0.000 A 
ATOM     18  C   UNL     1       5.314   6.269  15.657  0.00  0.00    +0.000 A 
ATOM     19  C   UNL     1       4.480   6.209  16.789  0.00  0.00    +0.000 A 
ATOM     20  C   UNL     1       3.856   7.343  17.359  0.00  0.00    +0.000 A 
ENDBRANCH   8  11
ENDBRANCH   1   9
BRANCH   5  21
ATOM     21  C   UNL     1       0.417  12.902  21.317  0.00  0.00    +0.000 C 
BRANCH  21  22
ATOM     22  N   UNL     1      -0.503  12.849  22.485  0.00  0.00    +0.000 NA
ATOM     23  C   UNL     1      -1.130  14.162  22.717  0.00  0.00    +0.000 C 
ATOM     24  C   UNL     1      -2.197  14.138  23.816  0.00  0.00    +0.000 C 
ATOM     25  C   UNL     1      -3.269  13.081  23.568  0.00  0.00    +0.000 C 
ATOM     26  C   UNL     1      -2.591  11.729  23.314  0.00  0.00    +0.000 C 
ATOM     27  C   UNL     1      -1.506  11.799  22.237  0.00  0.00    +0.000 C 
BRANCH  25  28
ATOM     28  C   UNL     1      -4.258  13.442  22.452  0.00  0.00    +0.000 C 
ATOM     29  O   UNL     1      -4.413  14.591  22.052  0.00  0.00    +0.000 OA
ATOM     30  N   UNL     1      -4.902  12.364  21.863  0.00  0.00    +0.000 N 
ATOM     31  H   UNL     1      -4.867  11.452  22.298  0.00  0.00    +0.000 HD
BRANCH  30  32
ATOM     32  C   UNL     1      -5.665  12.550  20.645  0.00  0.00    +0.000 C 
ATOM     33  C   UNL     1      -4.873  12.326  19.358  0.00  0.00    +0.000 C 
ATOM     34  C   UNL     1      -5.965  12.298  18.291  0.00  0.00    +0.000 C 
ATOM     35  C   UNL     1      -7.217  11.764  18.994  0.00  0.00    +0.000 C 
ATOM     36  C   UNL     1      -6.826  11.576  20.463  0.00  0.00    +0.000 C 
ENDBRANCH  30  32
ENDBRANCH  25  28
ENDBRANCH  21  22
ENDBRANCH   5  21
TORSDOF 6
ENDMDL
MODEL 7
REMARK VINA RESULT:      -9.0      2.815      4.430
REMARK  Name = 
REMARK  6 active torsions:
REMARK  status: ('A' for Active; 'I' for Inactive)
REMARK    1  A    between atoms: C_2  and  C_25
REMARK    2  A    between atoms: N_3  and  C_4
REMARK    3  A    between atoms: C_8  and  C_9
REMARK    4  A    between atoms: C_9  and  N_10
REMARK    5  A    between atoms: C_13  and  C_14
REMARK    6  A    between atoms: N_16  and  C_17
REMARK                            x       y       z     vdW  Elec       q    Type
REMARK                         _______ _______ _______ _____ _____    ______ ____
ROOT
ATOM      1  C   UNL     1       1.712   8.396  20.043  0.00  0.00    +0.000 A 
ATOM      2  C   UNL     1       2.232   8.411  18.740  0.00  0.00    +0.000 A 
ATOM      3  C   UNL     1       2.452   7.223  18.041  0.00  0.00    +0.000 A 
ATOM      4  C   UNL     1       2.142   6.004  18.635  0.00  0.00    +0.000 A 
ATOM      5  C   UNL     1       1.657   5.960  19.951  0.00  0.00    +0.000 A 
ATOM      6  C   UNL     1       1.500   7.163  20.663  0.00  0.00    +0.000 A 
ENDROOT
BRANCH   1   9
ATOM      7  O   UNL     1      -0.435  10.177  19.317  0.00  0.00    +0.000 OA
ATOM      8  C   UNL     1       0.192  10.307  20.381  0.00  0.00    +0.000 C 
ATOM      9  N   UNL     1       1.289   9.552  20.741  0.00  0.00    +0.000 N 
ATOM     10  H   UNL     1       1.680   9.670  21.667  0.00  0.00    +0.000 HD
BRANCH   8  11
ATOM     11  C   UNL     1      -0.349  11.316  21.311  0.00  0.00    +0.000 A 
ATOM     12  C   UNL     1       0.305  12.545  21.308  0.00  0.00    +0.000 A 
ATOM     13  N   UNL     1       0.074  13.546  22.180  0.00  0.00    +0.000 NA
ATOM     14  C   UNL     1      -0.987  13.424  22.973  0.00  0.00    +0.000 A 
ATOM     15  C   UNL     1      -1.264  14.470  23.832  0.00  0.00    +0.000 A 
ATOM     16  C   UNL     1      -2.497  14.563  24.468  0.00  0.00    +0.000 A 
ATOM     17  C   UNL     1      -3.446  13.566  24.270  0.00  0.00    +0.000 A 
ATOM     18  C   UNL     1      -3.110  12.413  23.554  0.00  0.00    +0.000 A 
ATOM     19  C   UNL     1      -1.861  12.317  22.914  0.00  0.00    +0.000 A 
ATOM     20  C   UNL     1      -1.458  11.195  22.153  0.00  0.00    +0.000 A 
ENDBRANCH   8  11
ENDBRANCH   1   9
BRANCH   5  21
ATOM     21  C   UNL     1       1.261   4.646  20.586  0.00  0.00    +0.000 C 
BRANCH  21  22
ATOM     22  N   UNL     1       1.857   3.453  19.928  0.00  0.00    +0.000 NA
ATOM     23  C   UNL     1       1.662   3.508  18.468  0.00  0.00    +0.000 C 
ATOM     24  C   UNL     1       2.378   2.381  17.718  0.00  0.00    +0.000 C 
ATOM     25  C   UNL     1       3.866   2.313  18.045  0.00  0.00    +0.000 C 
ATOM     26  C   UNL     1       4.043   2.272  19.567  0.00  0.00    +0.000 C 
ATOM     27  C   UNL     1       3.284   3.390  20.287  0.00  0.00    +0.000 C 
BRANCH  25  28
ATOM     28  C   UNL     1       4.700   3.430  17.404  0.00  0.00    +0.000 C 
ATOM     29  O   UNL     1       4.339   4.030  16.397  0.00  0.00    +0.000 OA
ATOM     30  N   UNL     1       5.851   3.777  18.094  0.00  0.00    +0.000 N 
ATOM     31  H   UNL     1       6.200   3.181  18.834  0.00  0.00    +0.000 HD
BRANCH  30  32
ATOM     32  C   UNL     1       6.587   4.972  17.729  0.00  0.00    +0.000 C 
ATOM     33  C   UNL     1       5.719   6.207  17.502  0.00  0.00    +0.000 C 
ATOM     34  C   UNL     1       6.748   7.334  17.429  0.00  0.00    +0.000 C 
ATOM     35  C   UNL     1       7.919   6.880  18.306  0.00  0.00    +0.000 C 
ATOM     36  C   UNL     1       7.560   5.473  18.791  0.00  0.00    +0.000 C 
ENDBRANCH  30  32
ENDBRANCH  25  28
ENDBRANCH  21  22
ENDBRANCH   5  21
TORSDOF 6
ENDMDL
MODEL 8
REMARK VINA RESULT:      -9.0      3.376     11.604
REMARK  Name = 
REMARK  6 active torsions:
REMARK  status: ('A' for Active; 'I' for Inactive)
REMARK    1  A    between atoms: C_2  and  C_25
REMARK    2  A    between atoms: N_3  and  C_4
REMARK    3  A    between atoms: C_8  and  C_9
REMARK    4  A    between atoms: C_9  and  N_10
REMARK    5  A    between atoms: C_13  and  C_14
REMARK    6  A    between atoms: N_16  and  C_17
REMARK                            x       y       z     vdW  Elec       q    Type
REMARK                         _______ _______ _______ _____ _____    ______ ____
ROOT
ATOM      1  C   UNL     1      -0.163  10.537  19.277  0.00  0.00    +0.000 A 
ATOM      2  C   UNL     1      -0.976  11.137  18.304  0.00  0.00    +0.000 A 
ATOM      3  C   UNL     1      -1.491  12.421  18.494  0.00  0.00    +0.000 A 
ATOM      4  C   UNL     1      -1.189  13.123  19.656  0.00  0.00    +0.000 A 
ATOM      5  C   UNL     1      -0.410  12.529  20.660  0.00  0.00    +0.000 A 
ATOM      6  C   UNL     1       0.049  11.212  20.480  0.00  0.00    +0.000 A 
ENDROOT
BRANCH   1   9
ATOM      7  O   UNL     1       2.067  10.094  17.506  0.00  0.00    +0.000 OA
ATOM      8  C   UNL     1       1.663   9.213  18.281  0.00  0.00    +0.000 C 
ATOM      9  N   UNL     1       0.544   9.326  19.080  0.00  0.00    +0.000 N 
ATOM     10  H   UNL     1       0.342   8.590  19.745  0.00  0.00    +0.000 HD
BRANCH   8  11
ATOM     11  C   UNL     1       2.503   8.003  18.353  0.00  0.00    +0.000 A 
ATOM     12  C   UNL     1       2.271   7.177  19.450  0.00  0.00    +0.000 A 
ATOM     13  N   UNL     1       3.022   6.111  19.788  0.00  0.00    +0.000 NA
ATOM     14  C   UNL     1       3.930   5.706  18.903  0.00  0.00    +0.000 A 
ATOM     15  C   UNL     1       4.667   4.581  19.217  0.00  0.00    +0.000 A 
ATOM     16  C   UNL     1       5.408   3.920  18.244  0.00  0.00    +0.000 A 
ATOM     17  C   UNL     1       5.443   4.426  16.949  0.00  0.00    +0.000 A 
ATOM     18  C   UNL     1       4.854   5.662  16.665  0.00  0.00    +0.000 A 
ATOM     19  C   UNL     1       4.107   6.332  17.651  0.00  0.00    +0.000 A 
ATOM     20  C   UNL     1       3.463   7.572  17.433  0.00  0.00    +0.000 A 
ENDBRANCH   8  11
ENDBRANCH   1   9
BRANCH   5  21
ATOM     21  C   UNL     1      -0.025  13.303  21.901  0.00  0.00    +0.000 C 
BRANCH  21  22
ATOM     22  N   UNL     1      -1.065  13.295  22.965  0.00  0.00    +0.000 NA
ATOM     23  C   UNL     1      -1.804  14.569  22.984  0.00  0.00    +0.000 C 
ATOM     24  C   UNL     1      -2.984  14.571  23.960  0.00  0.00    +0.000 C 
ATOM     25  C   UNL     1      -3.945  13.411  23.719  0.00  0.00    +0.000 C 
ATOM     26  C   UNL     1      -3.151  12.101  23.689  0.00  0.00    +0.000 C 
ATOM     27  C   UNL     1      -1.958  12.147  22.730  0.00  0.00    +0.000 C 
BRANCH  25  28
ATOM     28  C   UNL     1      -4.824  13.575  22.473  0.00  0.00    +0.000 C 
ATOM     29  O   UNL     1      -5.063  14.669  21.970  0.00  0.00    +0.000 OA
ATOM     30  N   UNL     1      -5.259  12.391  21.897  0.00  0.00    +0.000 N 
ATOM     31  H   UNL     1      -5.170  11.519  22.401  0.00  0.00    +0.000 HD
BRANCH  30  32
ATOM     32  C   UNL     1      -5.882  12.404  20.588  0.00  0.00    +0.000 C 
ATOM     33  C   UNL     1      -4.907  12.284  19.419  0.00  0.00    +0.000 C 
ATOM     34  C   UNL     1      -5.834  12.033  18.231  0.00  0.00    +0.000 C 
ATOM     35  C   UNL     1      -7.056  11.308  18.807  0.00  0.00    +0.000 C 
ATOM     36  C   UNL     1      -6.827  11.236  20.319  0.00  0.00    +0.000 C 
ENDBRANCH  30  32
ENDBRANCH  25  28
ENDBRANCH  21  22
ENDBRANCH   5  21
TORSDOF 6
ENDMDL
MODEL 9
REMARK VINA RESULT:      -8.9      5.291     11.241
REMARK  Name = 
REMARK  6 active torsions:
REMARK  status: ('A' for Active; 'I' for Inactive)
REMARK    1  A    between atoms: C_2  and  C_25
REMARK    2  A    between atoms: N_3  and  C_4
REMARK    3  A    between atoms: C_8  and  C_9
REMARK    4  A    between atoms: C_9  and  N_10
REMARK    5  A    between atoms: C_13  and  C_14
REMARK    6  A    between atoms: N_16  and  C_17
REMARK                            x       y       z     vdW  Elec       q    Type
REMARK                         _______ _______ _______ _____ _____    ______ ____
ROOT
ATOM      1  C   UNL     1      -2.879  12.598  22.392  0.00  0.00    +0.000 A 
ATOM      2  C   UNL     1      -3.317  12.235  23.674  0.00  0.00    +0.000 A 
ATOM      3  C   UNL     1      -4.454  12.820  24.236  0.00  0.00    +0.000 A 
ATOM      4  C   UNL     1      -5.172  13.768  23.514  0.00  0.00    +0.000 A 
ATOM      5  C   UNL     1      -4.733  14.176  22.247  0.00  0.00    +0.000 A 
ATOM      6  C   UNL     1      -3.551  13.623  21.722  0.00  0.00    +0.000 A 
ENDROOT
BRANCH   1   9
ATOM      7  O   UNL     1      -0.824  10.909  23.499  0.00  0.00    +0.000 OA
ATOM      8  C   UNL     1      -0.959  11.057  22.274  0.00  0.00    +0.000 C 
ATOM      9  N   UNL     1      -1.856  11.924  21.684  0.00  0.00    +0.000 N 
ATOM     10  H   UNL     1      -1.956  11.912  20.678  0.00  0.00    +0.000 HD
BRANCH   8  11
ATOM     11  C   UNL     1      -0.116  10.183  21.437  0.00  0.00    +0.000 A 
ATOM     12  C   UNL     1       0.093   8.898  21.934  0.00  0.00    +0.000 A 
ATOM     13  N   UNL     1       0.945   7.996  21.411  0.00  0.00    +0.000 NA
ATOM     14  C   UNL     1       1.478   8.284  20.225  0.00  0.00    +0.000 A 
ATOM     15  C   UNL     1       2.310   7.341  19.656  0.00  0.00    +0.000 A 
ATOM     16  C   UNL     1       2.663   7.420  18.312  0.00  0.00    +0.000 A 
ATOM     17  C   UNL     1       2.208   8.487  17.547  0.00  0.00    +0.000 A 
ATOM     18  C   UNL     1       1.520   9.542  18.156  0.00  0.00    +0.000 A 
ATOM     19  C   UNL     1       1.166   9.464  19.516  0.00  0.00    +0.000 A 
ATOM     20  C   UNL     1       0.453  10.478  20.195  0.00  0.00    +0.000 A 
ENDBRANCH   8  11
ENDBRANCH   1   9
BRANCH   5  21
ATOM     21  C   UNL     1      -5.537  15.162  21.429  0.00  0.00    +0.000 C 
BRANCH  21  22
ATOM     22  N   UNL     1      -6.589  14.531  20.587  0.00  0.00    +0.000 NA
ATOM     23  C   UNL     1      -6.164  14.470  19.177  0.00  0.00    +0.000 C 
ATOM     24  C   UNL     1      -7.142  13.702  18.283  0.00  0.00    +0.000 C 
ATOM     25  C   UNL     1      -7.433  12.298  18.804  0.00  0.00    +0.000 C 
ATOM     26  C   UNL     1      -7.857  12.387  20.275  0.00  0.00    +0.000 C 
ATOM     27  C   UNL     1      -6.877  13.193  21.131  0.00  0.00    +0.000 C 
BRANCH  25  28
ATOM     28  C   UNL     1      -6.283  11.303  18.602  0.00  0.00    +0.000 C 
ATOM     29  O   UNL     1      -6.290  10.176  19.086  0.00  0.00    +0.000 OA
ATOM     30  N   UNL     1      -5.271  11.735  17.758  0.00  0.00    +0.000 N 
ATOM     31  H   UNL     1      -5.216  12.708  17.487  0.00  0.00    +0.000 HD
BRANCH  30  32
ATOM     32  C   UNL     1      -4.263  10.802  17.294  0.00  0.00    +0.000 C 
ATOM     33  C   UNL     1      -3.796  11.032  15.858  0.00  0.00    +0.000 C 
ATOM     34  C   UNL     1      -2.570  10.128  15.753  0.00  0.00    +0.000 C 
ATOM     35  C   UNL     1      -1.987  10.056  17.169  0.00  0.00    +0.000 C 
ATOM     36  C   UNL     1      -2.942  10.857  18.057  0.00  0.00    +0.000 C 
ENDBRANCH  30  32
ENDBRANCH  25  28
ENDBRANCH  21  22
ENDBRANCH   5  21
TORSDOF 6
ENDMDL
