MODEL 1
REMARK VINA RESULT:      -7.6      0.000      0.000
REMARK  Name = 
REMARK  7 active torsions:
REMARK  status: ('A' for Active; 'I' for Inactive)
REMARK    1  A    between atoms: C_2  and  O_3
REMARK    2  A    between atoms: C_2  and  C_4
REMARK    3  A    between atoms: C_4  and  O_5
REMARK    4  A    between atoms: C_6  and  C_7
REMARK    5  A    between atoms: C_7  and  C_9
REMARK    6  A    between atoms: N_11  and  C_12
REMARK    7  A    between atoms: C_12  and  C_13
REMARK                            x       y       z     vdW  Elec       q    Type
REMARK                         _______ _______ _______ _____ _____    ______ ____
ROOT
ATOM      1  C   UNL     1       2.427   6.860  18.405  0.00  0.00    +0.000 A 
ATOM      2  C   UNL     1       2.861   5.910  17.567  0.00  0.00    +0.000 A 
ATOM      3  N   UNL     1       3.073   4.557  17.837  0.00  0.00    +0.000 N 
ATOM      4  C   UNL     1       2.813   4.055  19.145  0.00  0.00    +0.000 A 
ATOM      5  C   UNL     1       2.980   2.727  19.623  0.00  0.00    +0.000 A 
ATOM      6 CL   UNL     1       3.631   1.387  18.737  0.00  0.00    +0.000 Cl
ATOM      7  C   UNL     1       2.626   2.365  20.941  0.00  0.00    +0.000 A 
ATOM      8  C   UNL     1       2.127   3.293  21.838  0.00  0.00    +0.000 A 
ATOM      9  C   UNL     1       1.991   4.607  21.430  0.00  0.00    +0.000 A 
ATOM     10  C   UNL     1       2.324   4.981  20.114  0.00  0.00    +0.000 A 
ATOM     11  C   UNL     1       2.149   6.422  19.785  0.00  0.00    +0.000 A 
ATOM     12  O   UNL     1       1.787   7.221  20.646  0.00  0.00    +0.000 OA
ENDROOT
BRANCH   1  13
ATOM     13  C   UNL     1       2.309   8.261  17.901  0.00  0.00    +0.000 C 
ATOM     14  O   UNL     1       3.302   8.883  17.538  0.00  0.00    +0.000 OA
BRANCH  13  16
ATOM     15  C   UNL     1       0.528   9.950  18.372  0.00  0.00    +0.000 C 
ATOM     16  C   UNL     1       0.932   8.819  17.774  0.00  0.00    +0.000 C 
BRANCH  15  18
ATOM     17  O   UNL     1      -1.576  10.050  17.313  0.00  0.00    +0.000 OA
ATOM     18  C   UNL     1      -0.845  10.509  18.182  0.00  0.00    +0.000 C 
BRANCH  18  19
ATOM     19  O   UNL     1      -1.190  11.544  18.965  0.00  0.00    +0.000 OA
ATOM     20  H   UNL     1      -1.714  11.319  19.756  0.00  0.00    +0.000 HD
ENDBRANCH  18  19
ENDBRANCH  15  18
BRANCH  15  21
ATOM     21  O   UNL     1       1.378  10.711  19.156  0.00  0.00    +0.000 OA
ATOM     22  H   UNL     1       1.592  11.509  18.626  0.00  0.00    +0.000 HD
ENDBRANCH  15  21
ENDBRANCH  13  16
ENDBRANCH   1  13
BRANCH   3  23
ATOM     23  C   UNL     1       3.627   3.711  16.748  0.00  0.00    +0.000 C 
BRANCH  23  24
ATOM     24  C   UNL     1       4.983   4.164  16.249  0.00  0.00    +0.000 A 
ATOM     25  C   UNL     1       5.257   4.467  14.907  0.00  0.00    +0.000 A 
ATOM     26  C   UNL     1       6.524   4.911  14.517  0.00  0.00    +0.000 A 
ATOM     27  C   UNL     1       7.541   5.041  15.459  0.00  0.00    +0.000 A 
ATOM     28  C   UNL     1       7.298   4.708  16.789  0.00  0.00    +0.000 A 
ATOM     29  C   UNL     1       6.032   4.269  17.170  0.00  0.00    +0.000 A 
ATOM     30  F   UNL     1       5.822   3.947  18.454  0.00  0.00    +0.000 F 
ENDBRANCH  23  24
ENDBRANCH   3  23
TORSDOF 7
ENDMDL
MODEL 2
REMARK VINA RESULT:      -7.6      1.159      1.610
REMARK  Name = 
REMARK  7 active torsions:
REMARK  status: ('A' for Active; 'I' for Inactive)
REMARK    1  A    between atoms: C_2  and  O_3
REMARK    2  A    between atoms: C_2  and  C_4
REMARK    3  A    between atoms: C_4  and  O_5
REMARK    4  A    between atoms: C_6  and  C_7
REMARK    5  A    between atoms: C_7  and  C_9
REMARK    6  A    between atoms: N_11  and  C_12
REMARK    7  A    between atoms: C_12  and  C_13
REMARK                            x       y       z     vdW  Elec       q    Type
REMARK                         _______ _______ _______ _____ _____    ______ ____
ROOT
ATOM      1  C   UNL     1       2.262   6.888  18.690  0.00  0.00    +0.000 A 
ATOM      2  C   UNL     1       2.739   6.053  17.758  0.00  0.00    +0.000 A 
ATOM      3  N   UNL     1       2.985   4.684  17.877  0.00  0.00    +0.000 N 
ATOM      4  C   UNL     1       2.714   4.029  19.112  0.00  0.00    +0.000 A 
ATOM      5  C   UNL     1       2.911   2.659  19.440  0.00  0.00    +0.000 A 
ATOM      6 CL   UNL     1       3.616   1.447  18.421  0.00  0.00    +0.000 Cl
ATOM      7  C   UNL     1       2.541   2.139  20.699  0.00  0.00    +0.000 A 
ATOM      8  C   UNL     1       1.998   2.944  21.685  0.00  0.00    +0.000 A 
ATOM      9  C   UNL     1       1.833   4.292  21.427  0.00  0.00    +0.000 A 
ATOM     10  C   UNL     1       2.180   4.824  20.170  0.00  0.00    +0.000 A 
ATOM     11  C   UNL     1       1.970   6.288  20.004  0.00  0.00    +0.000 A 
ATOM     12  O   UNL     1       1.568   6.972  20.942  0.00  0.00    +0.000 OA
ENDROOT
BRANCH   1  13
ATOM     13  C   UNL     1       2.113   8.334  18.346  0.00  0.00    +0.000 C 
ATOM     14  O   UNL     1       2.557   8.778  17.291  0.00  0.00    +0.000 OA
BRANCH  13  16
ATOM     15  C   UNL     1       0.331   9.991  18.915  0.00  0.00    +0.000 C 
ATOM     16  C   UNL     1       1.327   9.176  19.293  0.00  0.00    +0.000 C 
BRANCH  15  18
ATOM     17  O   UNL     1      -0.540  10.417  21.064  0.00  0.00    +0.000 OA
ATOM     18  C   UNL     1      -0.471  10.782  19.897  0.00  0.00    +0.000 C 
BRANCH  18  19
ATOM     19  O   UNL     1      -1.130  11.850  19.419  0.00  0.00    +0.000 OA
ATOM     20  H   UNL     1      -1.705  12.313  20.057  0.00  0.00    +0.000 HD
ENDBRANCH  18  19
ENDBRANCH  15  18
BRANCH  15  21
ATOM     21  O   UNL     1      -0.065  10.106  17.592  0.00  0.00    +0.000 OA
ATOM     22  H   UNL     1       0.510  10.797  17.198  0.00  0.00    +0.000 HD
ENDBRANCH  15  21
ENDBRANCH  13  16
ENDBRANCH   1  13
BRANCH   3  23
ATOM     23  C   UNL     1       3.584   3.983  16.711  0.00  0.00    +0.000 C 
BRANCH  23  24
ATOM     24  C   UNL     1       5.052   4.290  16.499  0.00  0.00    +0.000 A 
ATOM     25  C   UNL     1       5.964   4.491  17.546  0.00  0.00    +0.000 A 
ATOM     26  C   UNL     1       7.313   4.740  17.282  0.00  0.00    +0.000 A 
ATOM     27  C   UNL     1       7.769   4.812  15.968  0.00  0.00    +0.000 A 
ATOM     28  C   UNL     1       6.871   4.653  14.916  0.00  0.00    +0.000 A 
ATOM     29  C   UNL     1       5.528   4.401  15.187  0.00  0.00    +0.000 A 
ATOM     30  F   UNL     1       4.679   4.259  14.159  0.00  0.00    +0.000 F 
ENDBRANCH  23  24
ENDBRANCH   3  23
TORSDOF 7
ENDMDL
MODEL 3
REMARK VINA RESULT:      -7.6      3.825      6.157
REMARK  Name = 
REMARK  7 active torsions:
REMARK  status: ('A' for Active; 'I' for Inactive)
REMARK    1  A    between atoms: C_2  and  O_3
REMARK    2  A    between atoms: C_2  and  C_4
REMARK    3  A    between atoms: C_4  and  O_5
REMARK    4  A    between atoms: C_6  and  C_7
REMARK    5  A    between atoms: C_7  and  C_9
REMARK    6  A    between atoms: N_11  and  C_12
REMARK    7  A    between atoms: C_12  and  C_13
REMARK                            x       y       z     vdW  Elec       q    Type
REMARK                         _______ _______ _______ _____ _____    ______ ____
ROOT
ATOM      1  C   UNL     1       5.530   5.237  17.398  0.00  0.00    +0.000 A 
ATOM      2  C   UNL     1       4.916   5.935  18.362  0.00  0.00    +0.000 A 
ATOM      3  N   UNL     1       3.737   5.613  19.037  0.00  0.00    +0.000 N 
ATOM      4  C   UNL     1       3.053   4.406  18.714  0.00  0.00    +0.000 A 
ATOM      5  C   UNL     1       1.841   3.911  19.268  0.00  0.00    +0.000 A 
ATOM      6 CL   UNL     1       0.839   4.710  20.436  0.00  0.00    +0.000 Cl
ATOM      7  C   UNL     1       1.308   2.662  18.884  0.00  0.00    +0.000 A 
ATOM      8  C   UNL     1       1.924   1.874  17.927  0.00  0.00    +0.000 A 
ATOM      9  C   UNL     1       3.080   2.337  17.328  0.00  0.00    +0.000 A 
ATOM     10  C   UNL     1       3.635   3.573  17.712  0.00  0.00    +0.000 A 
ATOM     11  C   UNL     1       4.874   3.980  16.996  0.00  0.00    +0.000 A 
ATOM     12  O   UNL     1       5.330   3.283  16.092  0.00  0.00    +0.000 OA
ENDROOT
BRANCH   1  13
ATOM     13  C   UNL     1       6.773   5.798  16.789  0.00  0.00    +0.000 C 
ATOM     14  O   UNL     1       7.444   5.134  16.005  0.00  0.00    +0.000 OA
BRANCH  13  16
ATOM     15  C   UNL     1       7.906   7.591  18.112  0.00  0.00    +0.000 C 
ATOM     16  C   UNL     1       7.099   7.218  17.107  0.00  0.00    +0.000 C 
BRANCH  15  18
ATOM     17  O   UNL     1       7.800   9.900  17.647  0.00  0.00    +0.000 OA
ATOM     18  C   UNL     1       8.252   9.021  18.371  0.00  0.00    +0.000 C 
BRANCH  18  19
ATOM     19  O   UNL     1       9.103   9.265  19.381  0.00  0.00    +0.000 OA
ATOM     20  H   UNL     1       9.891   8.690  19.419  0.00  0.00    +0.000 HD
ENDBRANCH  18  19
ENDBRANCH  15  18
BRANCH  15  21
ATOM     21  O   UNL     1       8.524   6.669  18.940  0.00  0.00    +0.000 OA
ATOM     22  H   UNL     1       7.824   6.335  19.542  0.00  0.00    +0.000 HD
ENDBRANCH  15  21
ENDBRANCH  13  16
ENDBRANCH   1  13
BRANCH   3  23
ATOM     23  C   UNL     1       3.217   6.591  20.028  0.00  0.00    +0.000 C 
BRANCH  23  24
ATOM     24  C   UNL     1       2.367   7.686  19.420  0.00  0.00    +0.000 A 
ATOM     25  C   UNL     1       2.404   8.037  18.061  0.00  0.00    +0.000 A 
ATOM     26  C   UNL     1       1.569   9.038  17.557  0.00  0.00    +0.000 A 
ATOM     27  C   UNL     1       0.699   9.718  18.405  0.00  0.00    +0.000 A 
ATOM     28  C   UNL     1       0.676   9.410  19.762  0.00  0.00    +0.000 A 
ATOM     29  C   UNL     1       1.508   8.408  20.258  0.00  0.00    +0.000 A 
ATOM     30  F   UNL     1       1.475   8.133  21.569  0.00  0.00    +0.000 F 
ENDBRANCH  23  24
ENDBRANCH   3  23
TORSDOF 7
ENDMDL
MODEL 4
REMARK VINA RESULT:      -7.6      2.215      2.668
REMARK  Name = 
REMARK  7 active torsions:
REMARK  status: ('A' for Active; 'I' for Inactive)
REMARK    1  A    between atoms: C_2  and  O_3
REMARK    2  A    between atoms: C_2  and  C_4
REMARK    3  A    between atoms: C_4  and  O_5
REMARK    4  A    between atoms: C_6  and  C_7
REMARK    5  A    between atoms: C_7  and  C_9
REMARK    6  A    between atoms: N_11  and  C_12
REMARK    7  A    between atoms: C_12  and  C_13
REMARK                            x       y       z     vdW  Elec       q    Type
REMARK                         _______ _______ _______ _____ _____    ______ ____
ROOT
ATOM      1  C   UNL     1       1.974   7.333  19.495  0.00  0.00    +0.000 A 
ATOM      2  C   UNL     1       2.863   6.956  18.566  0.00  0.00    +0.000 A 
ATOM      3  N   UNL     1       3.269   5.660  18.242  0.00  0.00    +0.000 N 
ATOM      4  C   UNL     1       2.707   4.555  18.944  0.00  0.00    +0.000 A 
ATOM      5  C   UNL     1       2.997   3.173  18.779  0.00  0.00    +0.000 A 
ATOM      6 CL   UNL     1       4.187   2.490  17.719  0.00  0.00    +0.000 Cl
ATOM      7  C   UNL     1       2.314   2.181  19.514  0.00  0.00    +0.000 A 
ATOM      8  C   UNL     1       1.352   2.507  20.453  0.00  0.00    +0.000 A 
ATOM      9  C   UNL     1       1.070   3.842  20.681  0.00  0.00    +0.000 A 
ATOM     10  C   UNL     1       1.729   4.844  19.943  0.00  0.00    +0.000 A 
ATOM     11  C   UNL     1       1.358   6.246  20.276  0.00  0.00    +0.000 A 
ATOM     12  O   UNL     1       0.561   6.483  21.181  0.00  0.00    +0.000 OA
ENDROOT
BRANCH   1  13
ATOM     13  C   UNL     1       1.721   8.792  19.692  0.00  0.00    +0.000 C 
ATOM     14  O   UNL     1       1.822   9.579  18.756  0.00  0.00    +0.000 OA
BRANCH  13  16
ATOM     15  C   UNL     1       0.127   9.911  21.258  0.00  0.00    +0.000 C 
ATOM     16  C   UNL     1       1.256   9.220  21.043  0.00  0.00    +0.000 C 
BRANCH  15  18
ATOM     17  O   UNL     1      -0.387  11.458  22.961  0.00  0.00    +0.000 OA
ATOM     18  C   UNL     1      -0.336  10.280  22.630  0.00  0.00    +0.000 C 
BRANCH  18  19
ATOM     19  O   UNL     1      -0.632   9.267  23.461  0.00  0.00    +0.000 OA
ATOM     20  H   UNL     1      -0.746   8.394  23.041  0.00  0.00    +0.000 HD
ENDBRANCH  18  19
ENDBRANCH  15  18
BRANCH  15  21
ATOM     21  O   UNL     1      -0.721  10.275  20.225  0.00  0.00    +0.000 OA
ATOM     22  H   UNL     1      -0.145  10.640  19.519  0.00  0.00    +0.000 HD
ENDBRANCH  15  21
ENDBRANCH  13  16
ENDBRANCH   1  13
BRANCH   3  23
ATOM     23  C   UNL     1       4.327   5.503  17.212  0.00  0.00    +0.000 C 
BRANCH  23  24
ATOM     24  C   UNL     1       5.666   6.083  17.615  0.00  0.00    +0.000 A 
ATOM     25  C   UNL     1       6.242   7.208  17.006  0.00  0.00    +0.000 A 
ATOM     26  C   UNL     1       7.469   7.712  17.448  0.00  0.00    +0.000 A 
ATOM     27  C   UNL     1       8.148   7.089  18.491  0.00  0.00    +0.000 A 
ATOM     28  C   UNL     1       7.610   5.948  19.081  0.00  0.00    +0.000 A 
ATOM     29  C   UNL     1       6.385   5.453  18.638  0.00  0.00    +0.000 A 
ATOM     30  F   UNL     1       5.890   4.350  19.215  0.00  0.00    +0.000 F 
ENDBRANCH  23  24
ENDBRANCH   3  23
TORSDOF 7
ENDMDL
MODEL 5
REMARK VINA RESULT:      -7.3      1.943      2.600
REMARK  Name = 
REMARK  7 active torsions:
REMARK  status: ('A' for Active; 'I' for Inactive)
REMARK    1  A    between atoms: C_2  and  O_3
REMARK    2  A    between atoms: C_2  and  C_4
REMARK    3  A    between atoms: C_4  and  O_5
REMARK    4  A    between atoms: C_6  and  C_7
REMARK    5  A    between atoms: C_7  and  C_9
REMARK    6  A    between atoms: N_11  and  C_12
REMARK    7  A    between atoms: C_12  and  C_13
REMARK                            x       y       z     vdW  Elec       q    Type
REMARK                         _______ _______ _______ _____ _____    ______ ____
ROOT
ATOM      1  C   UNL     1       2.267   6.675  19.505  0.00  0.00    +0.000 A 
ATOM      2  C   UNL     1       3.175   6.754  18.523  0.00  0.00    +0.000 A 
ATOM      3  N   UNL     1       3.757   5.709  17.804  0.00  0.00    +0.000 N 
ATOM      4  C   UNL     1       3.383   4.365  18.096  0.00  0.00    +0.000 A 
ATOM      5  C   UNL     1       3.867   3.171  17.497  0.00  0.00    +0.000 A 
ATOM      6 CL   UNL     1       5.113   3.052  16.298  0.00  0.00    +0.000 Cl
ATOM      7  C   UNL     1       3.357   1.904  17.855  0.00  0.00    +0.000 A 
ATOM      8  C   UNL     1       2.384   1.763  18.828  0.00  0.00    +0.000 A 
ATOM      9  C   UNL     1       1.917   2.894  19.471  0.00  0.00    +0.000 A 
ATOM     10  C   UNL     1       2.401   4.167  19.113  0.00  0.00    +0.000 A 
ATOM     11  C   UNL     1       1.838   5.314  19.876  0.00  0.00    +0.000 A 
ATOM     12  O   UNL     1       1.041   5.125  20.792  0.00  0.00    +0.000 OA
ENDROOT
BRANCH   1  13
ATOM     13  C   UNL     1       1.809   7.936  20.160  0.00  0.00    +0.000 C 
ATOM     14  O   UNL     1       1.823   8.050  21.382  0.00  0.00    +0.000 OA
BRANCH  13  16
ATOM     15  C   UNL     1       0.446   9.935  19.533  0.00  0.00    +0.000 C 
ATOM     16  C   UNL     1       1.431   9.065  19.262  0.00  0.00    +0.000 C 
BRANCH  15  18
ATOM     17  O   UNL     1      -1.025  11.267  18.262  0.00  0.00    +0.000 OA
ATOM     18  C   UNL     1       0.127  11.086  18.636  0.00  0.00    +0.000 C 
BRANCH  18  19
ATOM     19  O   UNL     1       1.159  11.849  18.239  0.00  0.00    +0.000 OA
ATOM     20  H   UNL     1       0.921  12.700  17.825  0.00  0.00    +0.000 HD
ENDBRANCH  18  19
ENDBRANCH  15  18
BRANCH  15  21
ATOM     21  O   UNL     1      -0.301   9.861  20.697  0.00  0.00    +0.000 OA
ATOM     22  H   UNL     1      -1.011   9.207  20.521  0.00  0.00    +0.000 HD
ENDBRANCH  15  21
ENDBRANCH  13  16
ENDBRANCH   1  13
BRANCH   3  23
ATOM     23  C   UNL     1       4.798   6.052  16.801  0.00  0.00    +0.000 C 
BRANCH  23  24
ATOM     24  C   UNL     1       6.066   6.618  17.403  0.00  0.00    +0.000 A 
ATOM     25  C   UNL     1       6.584   7.882  17.082  0.00  0.00    +0.000 A 
ATOM     26  C   UNL     1       7.744   8.359  17.699  0.00  0.00    +0.000 A 
ATOM     27  C   UNL     1       8.416   7.573  18.631  0.00  0.00    +0.000 A 
ATOM     28  C   UNL     1       7.938   6.300  18.933  0.00  0.00    +0.000 A 
ATOM     29  C   UNL     1       6.779   5.833  18.318  0.00  0.00    +0.000 A 
ATOM     30  F   UNL     1       6.341   4.602  18.618  0.00  0.00    +0.000 F 
ENDBRANCH  23  24
ENDBRANCH   3  23
TORSDOF 7
ENDMDL
MODEL 6
REMARK VINA RESULT:      -7.3      3.609      7.049
REMARK  Name = 
REMARK  7 active torsions:
REMARK  status: ('A' for Active; 'I' for Inactive)
REMARK    1  A    between atoms: C_2  and  O_3
REMARK    2  A    between atoms: C_2  and  C_4
REMARK    3  A    between atoms: C_4  and  O_5
REMARK    4  A    between atoms: C_6  and  C_7
REMARK    5  A    between atoms: C_7  and  C_9
REMARK    6  A    between atoms: N_11  and  C_12
REMARK    7  A    between atoms: C_12  and  C_13
REMARK                            x       y       z     vdW  Elec       q    Type
REMARK                         _______ _______ _______ _____ _____    ______ ____
ROOT
ATOM      1  C   UNL     1       5.606   5.273  16.696  0.00  0.00    +0.000 A 
ATOM      2  C   UNL     1       5.193   4.697  17.832  0.00  0.00    +0.000 A 
ATOM      3  N   UNL     1       4.240   5.167  18.737  0.00  0.00    +0.000 N 
ATOM      4  C   UNL     1       3.582   6.404  18.481  0.00  0.00    +0.000 A 
ATOM      5  C   UNL     1       2.604   7.059  19.278  0.00  0.00    +0.000 A 
ATOM      6 CL   UNL     1       2.022   6.539  20.826  0.00  0.00    +0.000 Cl
ATOM      7  C   UNL     1       1.997   8.264  18.864  0.00  0.00    +0.000 A 
ATOM      8  C   UNL     1       2.348   8.882  17.677  0.00  0.00    +0.000 A 
ATOM      9  C   UNL     1       3.329   8.305  16.891  0.00  0.00    +0.000 A 
ATOM     10  C   UNL     1       3.932   7.094  17.281  0.00  0.00    +0.000 A 
ATOM     11  C   UNL     1       4.982   6.567  16.367  0.00  0.00    +0.000 A 
ATOM     12  O   UNL     1       5.318   7.202  15.370  0.00  0.00    +0.000 OA
ENDROOT
BRANCH   1  13
ATOM     13  C   UNL     1       6.673   4.599  15.898  0.00  0.00    +0.000 C 
ATOM     14  O   UNL     1       7.843   4.622  16.267  0.00  0.00    +0.000 OA
BRANCH  13  16
ATOM     15  C   UNL     1       6.590   4.138  13.443  0.00  0.00    +0.000 C 
ATOM     16  C   UNL     1       6.235   3.829  14.699  0.00  0.00    +0.000 C 
BRANCH  15  18
ATOM     17  O   UNL     1       5.025   3.380  11.851  0.00  0.00    +0.000 OA
ATOM     18  C   UNL     1       6.175   3.314  12.268  0.00  0.00    +0.000 C 
BRANCH  18  19
ATOM     19  O   UNL     1       7.099   2.487  11.751  0.00  0.00    +0.000 OA
ATOM     20  H   UNL     1       6.787   1.590  11.530  0.00  0.00    +0.000 HD
ENDBRANCH  18  19
ENDBRANCH  15  18
BRANCH  15  21
ATOM     21  O   UNL     1       7.421   5.208  13.156  0.00  0.00    +0.000 OA
ATOM     22  H   UNL     1       8.154   4.844  12.614  0.00  0.00    +0.000 HD
ENDBRANCH  15  21
ENDBRANCH  13  16
ENDBRANCH   1  13
BRANCH   3  23
ATOM     23  C   UNL     1       4.002   4.371  19.969  0.00  0.00    +0.000 C 
BRANCH  23  24
ATOM     24  C   UNL     1       2.743   3.531  19.924  0.00  0.00    +0.000 A 
ATOM     25  C   UNL     1       2.180   3.037  18.738  0.00  0.00    +0.000 A 
ATOM     26  C   UNL     1       1.032   2.240  18.768  0.00  0.00    +0.000 A 
ATOM     27  C   UNL     1       0.419   1.940  19.981  0.00  0.00    +0.000 A 
ATOM     28  C   UNL     1       0.942   2.453  21.165  0.00  0.00    +0.000 A 
ATOM     29  C   UNL     1       2.088   3.244  21.128  0.00  0.00    +0.000 A 
ATOM     30  F   UNL     1       2.571   3.734  22.278  0.00  0.00    +0.000 F 
ENDBRANCH  23  24
ENDBRANCH   3  23
TORSDOF 7
ENDMDL
MODEL 7
REMARK VINA RESULT:      -7.3      2.320      2.862
REMARK  Name = 
REMARK  7 active torsions:
REMARK  status: ('A' for Active; 'I' for Inactive)
REMARK    1  A    between atoms: C_2  and  O_3
REMARK    2  A    between atoms: C_2  and  C_4
REMARK    3  A    between atoms: C_4  and  O_5
REMARK    4  A    between atoms: C_6  and  C_7
REMARK    5  A    between atoms: C_7  and  C_9
REMARK    6  A    between atoms: N_11  and  C_12
REMARK    7  A    between atoms: C_12  and  C_13
REMARK                            x       y       z     vdW  Elec       q    Type
REMARK                         _______ _______ _______ _____ _____    ______ ____
ROOT
ATOM      1  C   UNL     1       1.933   7.282  19.542  0.00  0.00    +0.000 A 
ATOM      2  C   UNL     1       2.840   6.884  18.640  0.00  0.00    +0.000 A 
ATOM      3  N   UNL     1       3.270   5.584  18.371  0.00  0.00    +0.000 N 
ATOM      4  C   UNL     1       2.716   4.497  19.106  0.00  0.00    +0.000 A 
ATOM      5  C   UNL     1       3.030   3.115  18.998  0.00  0.00    +0.000 A 
ATOM      6 CL   UNL     1       4.245   2.411  17.981  0.00  0.00    +0.000 Cl
ATOM      7  C   UNL     1       2.353   2.140  19.761  0.00  0.00    +0.000 A 
ATOM      8  C   UNL     1       1.372   2.486  20.674  0.00  0.00    +0.000 A 
ATOM      9  C   UNL     1       1.067   3.824  20.847  0.00  0.00    +0.000 A 
ATOM     10  C   UNL     1       1.721   4.807  20.081  0.00  0.00    +0.000 A 
ATOM     11  C   UNL     1       1.323   6.215  20.355  0.00  0.00    +0.000 A 
ATOM     12  O   UNL     1       0.510   6.474  21.240  0.00  0.00    +0.000 OA
ENDROOT
BRANCH   1  13
ATOM     13  C   UNL     1       1.654   8.743  19.680  0.00  0.00    +0.000 C 
ATOM     14  O   UNL     1       1.725   9.491  18.710  0.00  0.00    +0.000 OA
BRANCH  13  16
ATOM     15  C   UNL     1       0.091   9.946  21.215  0.00  0.00    +0.000 C 
ATOM     16  C   UNL     1       1.203   9.221  21.019  0.00  0.00    +0.000 C 
BRANCH  15  18
ATOM     17  O   UNL     1      -0.363  11.550  22.882  0.00  0.00    +0.000 OA
ATOM     18  C   UNL     1      -0.360  10.364  22.577  0.00  0.00    +0.000 C 
BRANCH  18  19
ATOM     19  O   UNL     1      -0.700   9.384  23.430  0.00  0.00    +0.000 OA
ATOM     20  H   UNL     1       0.040   8.961  23.905  0.00  0.00    +0.000 HD
ENDBRANCH  18  19
ENDBRANCH  15  18
BRANCH  15  21
ATOM     21  O   UNL     1      -0.749  10.303  20.173  0.00  0.00    +0.000 OA
ATOM     22  H   UNL     1      -1.650  10.351  20.558  0.00  0.00    +0.000 HD
ENDBRANCH  15  21
ENDBRANCH  13  16
ENDBRANCH   1  13
BRANCH   3  23
ATOM     23  C   UNL     1       4.345   5.405  17.361  0.00  0.00    +0.000 C 
BRANCH  23  24
ATOM     24  C   UNL     1       5.702   5.897  17.816  0.00  0.00    +0.000 A 
ATOM     25  C   UNL     1       6.401   5.356  18.906  0.00  0.00    +0.000 A 
ATOM     26  C   UNL     1       7.666   5.836  19.255  0.00  0.00    +0.000 A 
ATOM     27  C   UNL     1       8.245   6.877  18.533  0.00  0.00    +0.000 A 
ATOM     28  C   UNL     1       7.550   7.451  17.472  0.00  0.00    +0.000 A 
ATOM     29  C   UNL     1       6.291   6.965  17.127  0.00  0.00    +0.000 A 
ATOM     30  F   UNL     1       5.637   7.537  16.107  0.00  0.00    +0.000 F 
ENDBRANCH  23  24
ENDBRANCH   3  23
TORSDOF 7
ENDMDL
MODEL 8
REMARK VINA RESULT:      -7.3      3.688      6.050
REMARK  Name = 
REMARK  7 active torsions:
REMARK  status: ('A' for Active; 'I' for Inactive)
REMARK    1  A    between atoms: C_2  and  O_3
REMARK    2  A    between atoms: C_2  and  C_4
REMARK    3  A    between atoms: C_4  and  O_5
REMARK    4  A    between atoms: C_6  and  C_7
REMARK    5  A    between atoms: C_7  and  C_9
REMARK    6  A    between atoms: N_11  and  C_12
REMARK    7  A    between atoms: C_12  and  C_13
REMARK                            x       y       z     vdW  Elec       q    Type
REMARK                         _______ _______ _______ _____ _____    ______ ____
ROOT
ATOM      1  C   UNL     1       4.557   5.778  17.091  0.00  0.00    +0.000 A 
ATOM      2  C   UNL     1       3.861   6.287  18.116  0.00  0.00    +0.000 A 
ATOM      3  N   UNL     1       3.040   5.609  19.018  0.00  0.00    +0.000 N 
ATOM      4  C   UNL     1       2.879   4.199  18.895  0.00  0.00    +0.000 A 
ATOM      5  C   UNL     1       2.081   3.335  19.693  0.00  0.00    +0.000 A 
ATOM      6 CL   UNL     1       1.027   3.807  20.986  0.00  0.00    +0.000 Cl
ATOM      7  C   UNL     1       2.065   1.939  19.484  0.00  0.00    +0.000 A 
ATOM      8  C   UNL     1       2.801   1.349  18.472  0.00  0.00    +0.000 A 
ATOM      9  C   UNL     1       3.555   2.157  17.640  0.00  0.00    +0.000 A 
ATOM     10  C   UNL     1       3.597   3.549  17.847  0.00  0.00    +0.000 A 
ATOM     11  C   UNL     1       4.431   4.323  16.888  0.00  0.00    +0.000 A 
ATOM     12  O   UNL     1       4.994   3.759  15.952  0.00  0.00    +0.000 OA
ENDROOT
BRANCH   1  13
ATOM     13  C   UNL     1       5.347   6.707  16.230  0.00  0.00    +0.000 C 
ATOM     14  O   UNL     1       5.253   6.663  15.007  0.00  0.00    +0.000 OA
BRANCH  13  16
ATOM     15  C   UNL     1       7.347   7.480  17.513  0.00  0.00    +0.000 C 
ATOM     16  C   UNL     1       6.169   7.738  16.926  0.00  0.00    +0.000 C 
BRANCH  15  18
ATOM     17  O   UNL     1       8.111   9.698  17.742  0.00  0.00    +0.000 OA
ATOM     18  C   UNL     1       8.171   8.548  18.157  0.00  0.00    +0.000 C 
BRANCH  18  19
ATOM     19  O   UNL     1       8.990   8.164  19.150  0.00  0.00    +0.000 OA
ATOM     20  H   UNL     1       9.919   8.011  18.897  0.00  0.00    +0.000 HD
ENDBRANCH  18  19
ENDBRANCH  15  18
BRANCH  15  21
ATOM     21  O   UNL     1       7.911   6.215  17.507  0.00  0.00    +0.000 OA
ATOM     22  H   UNL     1       8.346   6.118  16.632  0.00  0.00    +0.000 HD
ENDBRANCH  15  21
ENDBRANCH  13  16
ENDBRANCH   1  13
BRANCH   3  23
ATOM     23  C   UNL     1       2.315   6.414  20.036  0.00  0.00    +0.000 C 
BRANCH  23  24
ATOM     24  C   UNL     1       1.888   7.781  19.547  0.00  0.00    +0.000 A 
ATOM     25  C   UNL     1       2.080   8.232  18.232  0.00  0.00    +0.000 A 
ATOM     26  C   UNL     1       1.633   9.496  17.836  0.00  0.00    +0.000 A 
ATOM     27  C   UNL     1       1.005  10.336  18.751  0.00  0.00    +0.000 A 
ATOM     28  C   UNL     1       0.840   9.920  20.070  0.00  0.00    +0.000 A 
ATOM     29  C   UNL     1       1.285   8.658  20.457  0.00  0.00    +0.000 A 
ATOM     30  F   UNL     1       1.123   8.281  21.733  0.00  0.00    +0.000 F 
ENDBRANCH  23  24
ENDBRANCH   3  23
TORSDOF 7
ENDMDL
MODEL 9
REMARK VINA RESULT:      -7.2      3.686      7.116
REMARK  Name = 
REMARK  7 active torsions:
REMARK  status: ('A' for Active; 'I' for Inactive)
REMARK    1  A    between atoms: C_2  and  O_3
REMARK    2  A    between atoms: C_2  and  C_4
REMARK    3  A    between atoms: C_4  and  O_5
REMARK    4  A    between atoms: C_6  and  C_7
REMARK    5  A    between atoms: C_7  and  C_9
REMARK    6  A    between atoms: N_11  and  C_12
REMARK    7  A    between atoms: C_12  and  C_13
REMARK                            x       y       z     vdW  Elec       q    Type
REMARK                         _______ _______ _______ _____ _____    ______ ____
ROOT
ATOM      1  C   UNL     1       5.626   5.201  16.129  0.00  0.00    +0.000 A 
ATOM      2  C   UNL     1       5.380   4.459  17.217  0.00  0.00    +0.000 A 
ATOM      3  N   UNL     1       4.548   4.765  18.295  0.00  0.00    +0.000 N 
ATOM      4  C   UNL     1       3.839   6.000  18.304  0.00  0.00    +0.000 A 
ATOM      5  C   UNL     1       2.965   6.502  19.306  0.00  0.00    +0.000 A 
ATOM      6 CL   UNL     1       2.605   5.754  20.827  0.00  0.00    +0.000 Cl
ATOM      7  C   UNL     1       2.286   7.729  19.149  0.00  0.00    +0.000 A 
ATOM      8  C   UNL     1       2.463   8.517  18.025  0.00  0.00    +0.000 A 
ATOM      9  C   UNL     1       3.340   8.091  17.045  0.00  0.00    +0.000 A 
ATOM     10  C   UNL     1       4.012   6.861  17.178  0.00  0.00    +0.000 A 
ATOM     11  C   UNL     1       4.940   6.504  16.071  0.00  0.00    +0.000 A 
ATOM     12  O   UNL     1       5.128   7.282  15.138  0.00  0.00    +0.000 OA
ENDROOT
BRANCH   1  13
ATOM     13  C   UNL     1       6.590   4.683  15.112  0.00  0.00    +0.000 C 
ATOM     14  O   UNL     1       7.779   4.978  15.166  0.00  0.00    +0.000 OA
BRANCH  13  16
ATOM     15  C   UNL     1       6.426   3.721  12.812  0.00  0.00    +0.000 C 
ATOM     16  C   UNL     1       6.054   3.728  14.100  0.00  0.00    +0.000 C 
BRANCH  15  18
ATOM     17  O   UNL     1       4.742   2.771  11.462  0.00  0.00    +0.000 OA
ATOM     18  C   UNL     1       5.908   2.716  11.835  0.00  0.00    +0.000 C 
BRANCH  18  19
ATOM     19  O   UNL     1       6.760   1.752  11.448  0.00  0.00    +0.000 OA
ATOM     20  H   UNL     1       6.549   0.852  11.758  0.00  0.00    +0.000 HD
ENDBRANCH  18  19
ENDBRANCH  15  18
BRANCH  15  21
ATOM     21  O   UNL     1       7.366   4.607  12.312  0.00  0.00    +0.000 OA
ATOM     22  H   UNL     1       6.923   5.482  12.283  0.00  0.00    +0.000 HD
ENDBRANCH  15  21
ENDBRANCH  13  16
ENDBRANCH   1  13
BRANCH   3  23
ATOM     23  C   UNL     1       4.492   3.799  19.423  0.00  0.00    +0.000 C 
BRANCH  23  24
ATOM     24  C   UNL     1       3.121   3.198  19.649  0.00  0.00    +0.000 A 
ATOM     25  C   UNL     1       2.563   2.985  20.918  0.00  0.00    +0.000 A 
ATOM     26  C   UNL     1       1.278   2.454  21.056  0.00  0.00    +0.000 A 
ATOM     27  C   UNL     1       0.537   2.109  19.928  0.00  0.00    +0.000 A 
ATOM     28  C   UNL     1       1.090   2.277  18.661  0.00  0.00    +0.000 A 
ATOM     29  C   UNL     1       2.371   2.811  18.532  0.00  0.00    +0.000 A 
ATOM     30  F   UNL     1       2.886   2.957  17.303  0.00  0.00    +0.000 F 
ENDBRANCH  23  24
ENDBRANCH   3  23
TORSDOF 7
ENDMDL
