MODEL 1
REMARK VINA RESULT:      -8.4      0.000      0.000
REMARK  Name = 
REMARK  8 active torsions:
REMARK  status: ('A' for Active; 'I' for Inactive)
REMARK    1  A    between atoms: C_1  and  C_2
REMARK    2  A    between atoms: C_4  and  C_5
REMARK    3  A    between atoms: N_6  and  C_7
REMARK    4  A    between atoms: C_7  and  C_8
REMARK    5  A    between atoms: C_8  and  C_9
REMARK    6  A    between atoms: N_11  and  N_12
REMARK    7  A    between atoms: C_13  and  C_14
REMARK    8  A    between atoms: C_15  and  O_16
REMARK                            x       y       z     vdW  Elec       q    Type
REMARK                         _______ _______ _______ _____ _____    ______ ____
ROOT
ATOM      1  N   UNL     1       6.019   6.439  17.217  0.00  0.00    +0.000 NA
ATOM      2  C   UNL     1       4.768   6.385  17.563  0.00  0.00    +0.000 C 
ENDROOT
BRANCH   2   3
ATOM      3  C   UNL     1       4.071   5.070  17.662  0.00  0.00    +0.000 A 
ATOM      4  C   UNL     1       4.401   4.056  16.748  0.00  0.00    +0.000 A 
ATOM      5  C   UNL     1       3.767   2.818  16.799  0.00  0.00    +0.000 A 
ATOM      6  C   UNL     1       2.787   2.580  17.759  0.00  0.00    +0.000 A 
ATOM      7  C   UNL     1       2.435   3.569  18.689  0.00  0.00    +0.000 A 
ATOM      8  C   UNL     1       1.438   3.299  19.643  0.00  0.00    +0.000 A 
ATOM      9  C   UNL     1       1.055   4.264  20.572  0.00  0.00    +0.000 A 
ATOM     10  C   UNL     1       1.660   5.512  20.557  0.00  0.00    +0.000 A 
ATOM     11  C   UNL     1       2.652   5.797  19.613  0.00  0.00    +0.000 A 
ATOM     12  C   UNL     1       3.076   4.840  18.659  0.00  0.00    +0.000 A 
BRANCH   4  13
ATOM     13  O   UNL     1       5.356   4.201  15.778  0.00  0.00    +0.000 OA
ATOM     14  H   UNL     1       5.951   3.417  15.818  0.00  0.00    +0.000 HD
ENDBRANCH   4  13
ENDBRANCH   2   3
BRANCH   1  17
ATOM     15  C   UNL     1       7.735   7.952  17.868  0.00  0.00    +0.000 C 
ATOM     16  O   UNL     1       8.236   7.151  18.658  0.00  0.00    +0.000 OA
ATOM     17  N   UNL     1       6.605   7.675  17.099  0.00  0.00    +0.000 N 
ATOM     18  H   UNL     1       6.261   8.335  16.410  0.00  0.00    +0.000 HD
BRANCH  15  19
ATOM     19  C   UNL     1       8.304   9.347  17.675  0.00  0.00    +0.000 C 
BRANCH  19  20
ATOM     20  C   UNL     1       9.012   9.816  18.959  0.00  0.00    +0.000 C 
BRANCH  20  26
ATOM     21  C   UNL     1      11.849  13.182  16.893  0.00  0.00    +0.000 C 
ATOM     22  C   UNL     1      11.077  12.486  17.947  0.00  0.00    +0.000 A 
ATOM     23  C   UNL     1      10.915  12.876  19.289  0.00  0.00    +0.000 A 
ATOM     24  C   UNL     1      10.112  11.913  19.858  0.00  0.00    +0.000 A 
ATOM     25  C   UNL     1       9.607  11.804  21.248  0.00  0.00    +0.000 C 
ATOM     26  N   UNL     1       9.836  11.012  18.851  0.00  0.00    +0.000 N 
ATOM     27  N   UNL     1      10.419  11.345  17.680  0.00  0.00    +0.000 NA
ENDBRANCH  20  26
ENDBRANCH  19  20
ENDBRANCH  15  19
ENDBRANCH   1  17
TORSDOF 6
ENDMDL
MODEL 2
REMARK VINA RESULT:      -8.1      4.791      7.401
REMARK  Name = 
REMARK  8 active torsions:
REMARK  status: ('A' for Active; 'I' for Inactive)
REMARK    1  A    between atoms: C_1  and  C_2
REMARK    2  A    between atoms: C_4  and  C_5
REMARK    3  A    between atoms: N_6  and  C_7
REMARK    4  A    between atoms: C_7  and  C_8
REMARK    5  A    between atoms: C_8  and  C_9
REMARK    6  A    between atoms: N_11  and  N_12
REMARK    7  A    between atoms: C_13  and  C_14
REMARK    8  A    between atoms: C_15  and  O_16
REMARK                            x       y       z     vdW  Elec       q    Type
REMARK                         _______ _______ _______ _____ _____    ______ ____
ROOT
ATOM      1  N   UNL     1       2.055   6.882  19.105  0.00  0.00    +0.000 NA
ATOM      2  C   UNL     1       2.098   7.819  20.004  0.00  0.00    +0.000 C 
ENDROOT
BRANCH   2   3
ATOM      3  C   UNL     1       1.256   9.042  19.856  0.00  0.00    +0.000 A 
ATOM      4  C   UNL     1       1.218   9.695  18.613  0.00  0.00    +0.000 A 
ATOM      5  C   UNL     1       0.455  10.844  18.436  0.00  0.00    +0.000 A 
ATOM      6  C   UNL     1      -0.276  11.363  19.502  0.00  0.00    +0.000 A 
ATOM      7  C   UNL     1      -0.264  10.735  20.756  0.00  0.00    +0.000 A 
ATOM      8  C   UNL     1      -1.008  11.286  21.813  0.00  0.00    +0.000 A 
ATOM      9  C   UNL     1      -1.007  10.695  23.075  0.00  0.00    +0.000 A 
ATOM     10  C   UNL     1      -0.259   9.548  23.297  0.00  0.00    +0.000 A 
ATOM     11  C   UNL     1       0.489   8.988  22.255  0.00  0.00    +0.000 A 
ATOM     12  C   UNL     1       0.506   9.554  20.957  0.00  0.00    +0.000 A 
BRANCH   4  13
ATOM     13  O   UNL     1       1.898   9.251  17.511  0.00  0.00    +0.000 OA
ATOM     14  H   UNL     1       1.827   9.940  16.812  0.00  0.00    +0.000 HD
ENDBRANCH   4  13
ENDBRANCH   2   3
BRANCH   1  17
ATOM     15  C   UNL     1       2.689   4.689  18.436  0.00  0.00    +0.000 C 
ATOM     16  O   UNL     1       1.816   4.627  17.570  0.00  0.00    +0.000 OA
ATOM     17  N   UNL     1       2.879   5.796  19.264  0.00  0.00    +0.000 N 
ATOM     18  H   UNL     1       3.652   5.838  19.919  0.00  0.00    +0.000 HD
BRANCH  15  19
ATOM     19  C   UNL     1       3.643   3.536  18.694  0.00  0.00    +0.000 C 
BRANCH  19  20
ATOM     20  C   UNL     1       5.089   4.054  18.799  0.00  0.00    +0.000 C 
BRANCH  20  26
ATOM     21  C   UNL     1       6.045   3.897  14.034  0.00  0.00    +0.000 C 
ATOM     22  C   UNL     1       6.193   4.266  15.459  0.00  0.00    +0.000 A 
ATOM     23  C   UNL     1       7.164   5.111  16.029  0.00  0.00    +0.000 A 
ATOM     24  C   UNL     1       6.879   5.143  17.376  0.00  0.00    +0.000 A 
ATOM     25  C   UNL     1       7.566   5.872  18.470  0.00  0.00    +0.000 C 
ATOM     26  N   UNL     1       5.775   4.334  17.545  0.00  0.00    +0.000 N 
ATOM     27  N   UNL     1       5.346   3.789  16.387  0.00  0.00    +0.000 NA
ENDBRANCH  20  26
ENDBRANCH  19  20
ENDBRANCH  15  19
ENDBRANCH   1  17
TORSDOF 6
ENDMDL
MODEL 3
REMARK VINA RESULT:      -7.9      5.582      8.166
REMARK  Name = 
REMARK  8 active torsions:
REMARK  status: ('A' for Active; 'I' for Inactive)
REMARK    1  A    between atoms: C_1  and  C_2
REMARK    2  A    between atoms: C_4  and  C_5
REMARK    3  A    between atoms: N_6  and  C_7
REMARK    4  A    between atoms: C_7  and  C_8
REMARK    5  A    between atoms: C_8  and  C_9
REMARK    6  A    between atoms: N_11  and  N_12
REMARK    7  A    between atoms: C_13  and  C_14
REMARK    8  A    between atoms: C_15  and  O_16
REMARK                            x       y       z     vdW  Elec       q    Type
REMARK                         _______ _______ _______ _____ _____    ______ ____
ROOT
ATOM      1  N   UNL     1       2.367   7.678  19.180  0.00  0.00    +0.000 NA
ATOM      2  C   UNL     1       2.011   6.820  18.272  0.00  0.00    +0.000 C 
ENDROOT
BRANCH   2   3
ATOM      3  C   UNL     1       2.914   5.688  17.911  0.00  0.00    +0.000 A 
ATOM      4  C   UNL     1       4.126   5.969  17.261  0.00  0.00    +0.000 A 
ATOM      5  C   UNL     1       4.993   4.942  16.896  0.00  0.00    +0.000 A 
ATOM      6  C   UNL     1       4.654   3.620  17.169  0.00  0.00    +0.000 A 
ATOM      7  C   UNL     1       3.452   3.304  17.819  0.00  0.00    +0.000 A 
ATOM      8  C   UNL     1       3.136   1.959  18.076  0.00  0.00    +0.000 A 
ATOM      9  C   UNL     1       1.945   1.609  18.709  0.00  0.00    +0.000 A 
ATOM     10  C   UNL     1       1.052   2.600  19.088  0.00  0.00    +0.000 A 
ATOM     11  C   UNL     1       1.350   3.944  18.838  0.00  0.00    +0.000 A 
ATOM     12  C   UNL     1       2.555   4.339  18.207  0.00  0.00    +0.000 A 
BRANCH   4  13
ATOM     13  O   UNL     1       4.542   7.238  16.961  0.00  0.00    +0.000 OA
ATOM     14  H   UNL     1       3.754   7.828  16.975  0.00  0.00    +0.000 HD
ENDBRANCH   4  13
ENDBRANCH   2   3
BRANCH   1  17
ATOM     15  C   UNL     1       1.471   9.789  18.549  0.00  0.00    +0.000 C 
ATOM     16  O   UNL     1       2.152   9.850  17.525  0.00  0.00    +0.000 OA
ATOM     17  N   UNL     1       1.520   8.724  19.448  0.00  0.00    +0.000 N 
ATOM     18  H   UNL     1       0.894   8.678  20.245  0.00  0.00    +0.000 HD
BRANCH  15  19
ATOM     19  C   UNL     1       0.512  10.901  18.938  0.00  0.00    +0.000 C 
BRANCH  19  20
ATOM     20  C   UNL     1      -0.903  10.333  19.152  0.00  0.00    +0.000 C 
BRANCH  20  26
ATOM     21  C   UNL     1      -3.035  10.017  14.793  0.00  0.00    +0.000 C 
ATOM     22  C   UNL     1      -2.809  10.449  16.190  0.00  0.00    +0.000 A 
ATOM     23  C   UNL     1      -3.603  11.324  16.955  0.00  0.00    +0.000 A 
ATOM     24  C   UNL     1      -2.984  11.403  18.183  0.00  0.00    +0.000 A 
ATOM     25  C   UNL     1      -3.373  12.174  19.389  0.00  0.00    +0.000 C 
ATOM     26  N   UNL     1      -1.875  10.588  18.098  0.00  0.00    +0.000 N 
ATOM     27  N   UNL     1      -1.752  10.001  16.888  0.00  0.00    +0.000 NA
ENDBRANCH  20  26
ENDBRANCH  19  20
ENDBRANCH  15  19
ENDBRANCH   1  17
TORSDOF 6
ENDMDL
MODEL 4
REMARK VINA RESULT:      -7.9      5.601      8.456
REMARK  Name = 
REMARK  8 active torsions:
REMARK  status: ('A' for Active; 'I' for Inactive)
REMARK    1  A    between atoms: C_1  and  C_2
REMARK    2  A    between atoms: C_4  and  C_5
REMARK    3  A    between atoms: N_6  and  C_7
REMARK    4  A    between atoms: C_7  and  C_8
REMARK    5  A    between atoms: C_8  and  C_9
REMARK    6  A    between atoms: N_11  and  N_12
REMARK    7  A    between atoms: C_13  and  C_14
REMARK    8  A    between atoms: C_15  and  O_16
REMARK                            x       y       z     vdW  Elec       q    Type
REMARK                         _______ _______ _______ _____ _____    ______ ____
ROOT
ATOM      1  N   UNL     1       2.375   8.109  18.789  0.00  0.00    +0.000 NA
ATOM      2  C   UNL     1       2.385   7.005  18.105  0.00  0.00    +0.000 C 
ENDROOT
BRANCH   2   3
ATOM      3  C   UNL     1       3.264   5.873  18.518  0.00  0.00    +0.000 A 
ATOM      4  C   UNL     1       4.602   5.861  18.091  0.00  0.00    +0.000 A 
ATOM      5  C   UNL     1       5.453   4.818  18.444  0.00  0.00    +0.000 A 
ATOM      6  C   UNL     1       4.976   3.767  19.223  0.00  0.00    +0.000 A 
ATOM      7  C   UNL     1       3.647   3.748  19.669  0.00  0.00    +0.000 A 
ATOM      8  C   UNL     1       3.193   2.671  20.449  0.00  0.00    +0.000 A 
ATOM      9  C   UNL     1       1.876   2.614  20.898  0.00  0.00    +0.000 A 
ATOM     10  C   UNL     1       0.992   3.632  20.568  0.00  0.00    +0.000 A 
ATOM     11  C   UNL     1       1.427   4.710  19.790  0.00  0.00    +0.000 A 
ATOM     12  C   UNL     1       2.761   4.808  19.325  0.00  0.00    +0.000 A 
BRANCH   4  13
ATOM     13  O   UNL     1       5.156   6.856  17.330  0.00  0.00    +0.000 OA
ATOM     14  H   UNL     1       4.463   7.534  17.163  0.00  0.00    +0.000 HD
ENDBRANCH   4  13
ENDBRANCH   2   3
BRANCH   1  17
ATOM     15  C   UNL     1       0.880   9.891  19.288  0.00  0.00    +0.000 C 
ATOM     16  O   UNL     1       0.927   9.683  20.500  0.00  0.00    +0.000 OA
ATOM     17  N   UNL     1       1.580   9.137  18.346  0.00  0.00    +0.000 N 
ATOM     18  H   UNL     1       1.570   9.382  17.362  0.00  0.00    +0.000 HD
BRANCH  15  19
ATOM     19  C   UNL     1       0.023  10.999  18.699  0.00  0.00    +0.000 C 
BRANCH  19  20
ATOM     20  C   UNL     1      -1.465  10.733  18.993  0.00  0.00    +0.000 C 
BRANCH  20  26
ATOM     21  C   UNL     1      -3.097  10.056  14.462  0.00  0.00    +0.000 C 
ATOM     22  C   UNL     1      -3.090  10.497  15.875  0.00  0.00    +0.000 A 
ATOM     23  C   UNL     1      -4.117  11.165  16.568  0.00  0.00    +0.000 A 
ATOM     24  C   UNL     1      -3.638  11.349  17.847  0.00  0.00    +0.000 A 
ATOM     25  C   UNL     1      -4.286  11.994  19.014  0.00  0.00    +0.000 C 
ATOM     26  N   UNL     1      -2.376  10.794  17.858  0.00  0.00    +0.000 N 
ATOM     27  N   UNL     1      -2.025  10.273  16.663  0.00  0.00    +0.000 NA
ENDBRANCH  20  26
ENDBRANCH  19  20
ENDBRANCH  15  19
ENDBRANCH   1  17
TORSDOF 6
ENDMDL
MODEL 5
REMARK VINA RESULT:      -7.9      4.596      7.379
REMARK  Name = 
REMARK  8 active torsions:
REMARK  status: ('A' for Active; 'I' for Inactive)
REMARK    1  A    between atoms: C_1  and  C_2
REMARK    2  A    between atoms: C_4  and  C_5
REMARK    3  A    between atoms: N_6  and  C_7
REMARK    4  A    between atoms: C_7  and  C_8
REMARK    5  A    between atoms: C_8  and  C_9
REMARK    6  A    between atoms: N_11  and  N_12
REMARK    7  A    between atoms: C_13  and  C_14
REMARK    8  A    between atoms: C_15  and  O_16
REMARK                            x       y       z     vdW  Elec       q    Type
REMARK                         _______ _______ _______ _____ _____    ______ ____
ROOT
ATOM      1  N   UNL     1       1.954   6.750  19.260  0.00  0.00    +0.000 NA
ATOM      2  C   UNL     1       2.286   7.888  19.792  0.00  0.00    +0.000 C 
ENDROOT
BRANCH   2   3
ATOM      3  C   UNL     1       1.359   9.055  19.713  0.00  0.00    +0.000 A 
ATOM      4  C   UNL     1       1.208   9.720  18.485  0.00  0.00    +0.000 A 
ATOM      5  C   UNL     1       0.363  10.819  18.370  0.00  0.00    +0.000 A 
ATOM      6  C   UNL     1      -0.337  11.274  19.484  0.00  0.00    +0.000 A 
ATOM      7  C   UNL     1      -0.212  10.633  20.725  0.00  0.00    +0.000 A 
ATOM      8  C   UNL     1      -0.928  11.120  21.832  0.00  0.00    +0.000 A 
ATOM      9  C   UNL     1      -0.817  10.514  23.082  0.00  0.00    +0.000 A 
ATOM     10  C   UNL     1       0.016   9.416  23.242  0.00  0.00    +0.000 A 
ATOM     11  C   UNL     1       0.737   8.920  22.150  0.00  0.00    +0.000 A 
ATOM     12  C   UNL     1       0.642   9.502  20.863  0.00  0.00    +0.000 A 
BRANCH   4  13
ATOM     13  O   UNL     1       1.851   9.336  17.339  0.00  0.00    +0.000 OA
ATOM     14  H   UNL     1       2.183   8.418  17.469  0.00  0.00    +0.000 HD
ENDBRANCH   4  13
ENDBRANCH   2   3
BRANCH   1  17
ATOM     15  C   UNL     1       2.425   4.434  18.991  0.00  0.00    +0.000 C 
ATOM     16  O   UNL     1       1.272   4.169  18.649  0.00  0.00    +0.000 OA
ATOM     17  N   UNL     1       2.856   5.719  19.323  0.00  0.00    +0.000 N 
ATOM     18  H   UNL     1       3.830   5.909  19.534  0.00  0.00    +0.000 HD
BRANCH  15  19
ATOM     19  C   UNL     1       3.494   3.361  19.099  0.00  0.00    +0.000 C 
BRANCH  19  20
ATOM     20  C   UNL     1       4.292   3.270  17.786  0.00  0.00    +0.000 C 
BRANCH  20  26
ATOM     21  C   UNL     1       8.016   6.087  19.148  0.00  0.00    +0.000 C 
ATOM     22  C   UNL     1       7.063   5.398  18.248  0.00  0.00    +0.000 A 
ATOM     23  C   UNL     1       7.034   5.435  16.842  0.00  0.00    +0.000 A 
ATOM     24  C   UNL     1       5.975   4.635  16.474  0.00  0.00    +0.000 A 
ATOM     25  C   UNL     1       5.469   4.300  15.121  0.00  0.00    +0.000 C 
ATOM     26  N   UNL     1       5.433   4.166  17.652  0.00  0.00    +0.000 N 
ATOM     27  N   UNL     1       6.082   4.624  18.743  0.00  0.00    +0.000 NA
ENDBRANCH  20  26
ENDBRANCH  19  20
ENDBRANCH  15  19
ENDBRANCH   1  17
TORSDOF 6
ENDMDL
MODEL 6
REMARK VINA RESULT:      -7.8      1.806      9.923
REMARK  Name = 
REMARK  8 active torsions:
REMARK  status: ('A' for Active; 'I' for Inactive)
REMARK    1  A    between atoms: C_1  and  C_2
REMARK    2  A    between atoms: C_4  and  C_5
REMARK    3  A    between atoms: N_6  and  C_7
REMARK    4  A    between atoms: C_7  and  C_8
REMARK    5  A    between atoms: C_8  and  C_9
REMARK    6  A    between atoms: N_11  and  N_12
REMARK    7  A    between atoms: C_13  and  C_14
REMARK    8  A    between atoms: C_15  and  O_16
REMARK                            x       y       z     vdW  Elec       q    Type
REMARK                         _______ _______ _______ _____ _____    ______ ____
ROOT
ATOM      1  N   UNL     1       8.609   9.194  18.378  0.00  0.00    +0.000 NA
ATOM      2  C   UNL     1       8.801  10.438  18.058  0.00  0.00    +0.000 C 
ENDROOT
BRANCH   2   3
ATOM      3  C   UNL     1       9.651  11.314  18.916  0.00  0.00    +0.000 A 
ATOM      4  C   UNL     1       9.569  11.182  20.312  0.00  0.00    +0.000 A 
ATOM      5  C   UNL     1      10.336  11.987  21.149  0.00  0.00    +0.000 A 
ATOM      6  C   UNL     1      11.190  12.941  20.602  0.00  0.00    +0.000 A 
ATOM      7  C   UNL     1      11.298  13.098  19.213  0.00  0.00    +0.000 A 
ATOM      8  C   UNL     1      12.165  14.074  18.691  0.00  0.00    +0.000 A 
ATOM      9  C   UNL     1      12.287  14.265  17.317  0.00  0.00    +0.000 A 
ATOM     10  C   UNL     1      11.540  13.486  16.445  0.00  0.00    +0.000 A 
ATOM     11  C   UNL     1      10.671  12.511  16.948  0.00  0.00    +0.000 A 
ATOM     12  C   UNL     1      10.527  12.281  18.338  0.00  0.00    +0.000 A 
BRANCH   4  13
ATOM     13  O   UNL     1       8.764  10.266  20.934  0.00  0.00    +0.000 OA
ATOM     14  H   UNL     1       8.840   9.414  20.447  0.00  0.00    +0.000 HD
ENDBRANCH   4  13
ENDBRANCH   2   3
BRANCH   1  17
ATOM     15  C   UNL     1       7.588   7.098  17.907  0.00  0.00    +0.000 C 
ATOM     16  O   UNL     1       8.117   6.546  18.871  0.00  0.00    +0.000 OA
ATOM     17  N   UNL     1       7.786   8.440  17.580  0.00  0.00    +0.000 N 
ATOM     18  H   UNL     1       7.280   8.877  16.818  0.00  0.00    +0.000 HD
BRANCH  15  19
ATOM     19  C   UNL     1       6.669   6.346  16.960  0.00  0.00    +0.000 C 
BRANCH  19  20
ATOM     20  C   UNL     1       5.248   6.934  17.018  0.00  0.00    +0.000 C 
BRANCH  20  26
ATOM     21  C   UNL     1       2.909   2.714  17.620  0.00  0.00    +0.000 C 
ATOM     22  C   UNL     1       3.154   4.173  17.657  0.00  0.00    +0.000 A 
ATOM     23  C   UNL     1       2.296   5.173  18.150  0.00  0.00    +0.000 A 
ATOM     24  C   UNL     1       2.972   6.360  17.971  0.00  0.00    +0.000 A 
ATOM     25  C   UNL     1       2.558   7.744  18.307  0.00  0.00    +0.000 C 
ATOM     26  N   UNL     1       4.177   6.020  17.393  0.00  0.00    +0.000 N 
ATOM     27  N   UNL     1       4.303   4.691  17.192  0.00  0.00    +0.000 NA
ENDBRANCH  20  26
ENDBRANCH  19  20
ENDBRANCH  15  19
ENDBRANCH   1  17
TORSDOF 6
ENDMDL
MODEL 7
REMARK VINA RESULT:      -7.8      5.786      8.741
REMARK  Name = 
REMARK  8 active torsions:
REMARK  status: ('A' for Active; 'I' for Inactive)
REMARK    1  A    between atoms: C_1  and  C_2
REMARK    2  A    between atoms: C_4  and  C_5
REMARK    3  A    between atoms: N_6  and  C_7
REMARK    4  A    between atoms: C_7  and  C_8
REMARK    5  A    between atoms: C_8  and  C_9
REMARK    6  A    between atoms: N_11  and  N_12
REMARK    7  A    between atoms: C_13  and  C_14
REMARK    8  A    between atoms: C_15  and  O_16
REMARK                            x       y       z     vdW  Elec       q    Type
REMARK                         _______ _______ _______ _____ _____    ______ ____
ROOT
ATOM      1  N   UNL     1       2.497   8.158  18.565  0.00  0.00    +0.000 NA
ATOM      2  C   UNL     1       2.317   6.957  18.102  0.00  0.00    +0.000 C 
ENDROOT
BRANCH   2   3
ATOM      3  C   UNL     1       3.253   5.858  18.477  0.00  0.00    +0.000 A 
ATOM      4  C   UNL     1       4.552   5.861  17.942  0.00  0.00    +0.000 A 
ATOM      5  C   UNL     1       5.453   4.848  18.257  0.00  0.00    +0.000 A 
ATOM      6  C   UNL     1       5.066   3.814  19.106  0.00  0.00    +0.000 A 
ATOM      7  C   UNL     1       3.778   3.782  19.660  0.00  0.00    +0.000 A 
ATOM      8  C   UNL     1       3.415   2.722  20.509  0.00  0.00    +0.000 A 
ATOM      9  C   UNL     1       2.140   2.652  21.066  0.00  0.00    +0.000 A 
ATOM     10  C   UNL     1       1.209   3.640  20.777  0.00  0.00    +0.000 A 
ATOM     11  C   UNL     1       1.554   4.701  19.932  0.00  0.00    +0.000 A 
ATOM     12  C   UNL     1       2.842   4.811  19.356  0.00  0.00    +0.000 A 
BRANCH   4  13
ATOM     13  O   UNL     1       5.019   6.840  17.108  0.00  0.00    +0.000 OA
ATOM     14  H   UNL     1       5.971   6.662  16.932  0.00  0.00    +0.000 HD
ENDBRANCH   4  13
ENDBRANCH   2   3
BRANCH   1  17
ATOM     15  C   UNL     1       0.723   9.655  19.084  0.00  0.00    +0.000 C 
ATOM     16  O   UNL     1       0.643   9.266  20.249  0.00  0.00    +0.000 OA
ATOM     17  N   UNL     1       1.633   9.144  18.158  0.00  0.00    +0.000 N 
ATOM     18  H   UNL     1       1.715   9.537  17.227  0.00  0.00    +0.000 HD
BRANCH  15  19
ATOM     19  C   UNL     1      -0.195  10.735  18.537  0.00  0.00    +0.000 C 
BRANCH  19  20
ATOM     20  C   UNL     1      -1.171  10.134  17.509  0.00  0.00    +0.000 C 
BRANCH  20  26
ATOM     21  C   UNL     1      -5.177  12.404  19.073  0.00  0.00    +0.000 C 
ATOM     22  C   UNL     1      -4.259  11.709  18.143  0.00  0.00    +0.000 A 
ATOM     23  C   UNL     1      -4.478  11.412  16.785  0.00  0.00    +0.000 A 
ATOM     24  C   UNL     1      -3.337  10.769  16.360  0.00  0.00    +0.000 A 
ATOM     25  C   UNL     1      -3.000  10.229  15.020  0.00  0.00    +0.000 C 
ATOM     26  N   UNL     1      -2.506  10.715  17.459  0.00  0.00    +0.000 N 
ATOM     27  N   UNL     1      -3.054  11.280  18.555  0.00  0.00    +0.000 NA
ENDBRANCH  20  26
ENDBRANCH  19  20
ENDBRANCH  15  19
ENDBRANCH   1  17
TORSDOF 6
ENDMDL
MODEL 8
REMARK VINA RESULT:      -7.8      1.875      2.432
REMARK  Name = 
REMARK  8 active torsions:
REMARK  status: ('A' for Active; 'I' for Inactive)
REMARK    1  A    between atoms: C_1  and  C_2
REMARK    2  A    between atoms: C_4  and  C_5
REMARK    3  A    between atoms: N_6  and  C_7
REMARK    4  A    between atoms: C_7  and  C_8
REMARK    5  A    between atoms: C_8  and  C_9
REMARK    6  A    between atoms: N_11  and  N_12
REMARK    7  A    between atoms: C_13  and  C_14
REMARK    8  A    between atoms: C_15  and  O_16
REMARK                            x       y       z     vdW  Elec       q    Type
REMARK                         _______ _______ _______ _____ _____    ______ ____
ROOT
ATOM      1  N   UNL     1       7.752   6.955  17.949  0.00  0.00    +0.000 NA
ATOM      2  C   UNL     1       6.975   6.127  18.580  0.00  0.00    +0.000 C 
ENDROOT
BRANCH   2   3
ATOM      3  C   UNL     1       6.076   5.211  17.819  0.00  0.00    +0.000 A 
ATOM      4  C   UNL     1       6.597   4.501  16.726  0.00  0.00    +0.000 A 
ATOM      5  C   UNL     1       5.790   3.645  15.983  0.00  0.00    +0.000 A 
ATOM      6  C   UNL     1       4.447   3.493  16.318  0.00  0.00    +0.000 A 
ATOM      7  C   UNL     1       3.894   4.185  17.405  0.00  0.00    +0.000 A 
ATOM      8  C   UNL     1       2.534   4.016  17.714  0.00  0.00    +0.000 A 
ATOM      9  C   UNL     1       1.949   4.697  18.779  0.00  0.00    +0.000 A 
ATOM     10  C   UNL     1       2.717   5.562  19.546  0.00  0.00    +0.000 A 
ATOM     11  C   UNL     1       4.072   5.744  19.250  0.00  0.00    +0.000 A 
ATOM     12  C   UNL     1       4.704   5.061  18.182  0.00  0.00    +0.000 A 
BRANCH   4  13
ATOM     13  O   UNL     1       7.906   4.583  16.332  0.00  0.00    +0.000 OA
ATOM     14  H   UNL     1       8.007   4.065  15.501  0.00  0.00    +0.000 HD
ENDBRANCH   4  13
ENDBRANCH   2   3
BRANCH   1  17
ATOM     15  C   UNL     1       8.451   9.175  18.439  0.00  0.00    +0.000 C 
ATOM     16  O   UNL     1       7.724   9.668  17.577  0.00  0.00    +0.000 OA
ATOM     17  N   UNL     1       8.531   7.805  18.692  0.00  0.00    +0.000 N 
ATOM     18  H   UNL     1       9.091   7.443  19.457  0.00  0.00    +0.000 HD
BRANCH  15  19
ATOM     19  C   UNL     1       9.357  10.032  19.306  0.00  0.00    +0.000 C 
BRANCH  19  20
ATOM     20  C   UNL     1      10.109  11.058  18.439  0.00  0.00    +0.000 C 
BRANCH  20  26
ATOM     21  C   UNL     1      11.040  15.281  20.663  0.00  0.00    +0.000 C 
ATOM     22  C   UNL     1      10.363  14.308  19.777  0.00  0.00    +0.000 A 
ATOM     23  C   UNL     1       9.257  14.539  18.938  0.00  0.00    +0.000 A 
ATOM     24  C   UNL     1       9.006  13.335  18.318  0.00  0.00    +0.000 A 
ATOM     25  C   UNL     1       7.961  12.982  17.327  0.00  0.00    +0.000 C 
ATOM     26  N   UNL     1       9.955  12.460  18.804  0.00  0.00    +0.000 N 
ATOM     27  N   UNL     1      10.788  13.036  19.696  0.00  0.00    +0.000 NA
ENDBRANCH  20  26
ENDBRANCH  19  20
ENDBRANCH  15  19
ENDBRANCH   1  17
TORSDOF 6
ENDMDL
MODEL 9
REMARK VINA RESULT:      -7.8      5.519      7.908
REMARK  Name = 
REMARK  8 active torsions:
REMARK  status: ('A' for Active; 'I' for Inactive)
REMARK    1  A    between atoms: C_1  and  C_2
REMARK    2  A    between atoms: C_4  and  C_5
REMARK    3  A    between atoms: N_6  and  C_7
REMARK    4  A    between atoms: C_7  and  C_8
REMARK    5  A    between atoms: C_8  and  C_9
REMARK    6  A    between atoms: N_11  and  N_12
REMARK    7  A    between atoms: C_13  and  C_14
REMARK    8  A    between atoms: C_15  and  O_16
REMARK                            x       y       z     vdW  Elec       q    Type
REMARK                         _______ _______ _______ _____ _____    ______ ____
ROOT
ATOM      1  N   UNL     1       2.360   7.718  19.194  0.00  0.00    +0.000 NA
ATOM      2  C   UNL     1       2.069   6.897  18.230  0.00  0.00    +0.000 C 
ENDROOT
BRANCH   2   3
ATOM      3  C   UNL     1       2.992   5.774  17.895  0.00  0.00    +0.000 A 
ATOM      4  C   UNL     1       4.245   6.068  17.333  0.00  0.00    +0.000 A 
ATOM      5  C   UNL     1       5.131   5.050  16.996  0.00  0.00    +0.000 A 
ATOM      6  C   UNL     1       4.773   3.721  17.208  0.00  0.00    +0.000 A 
ATOM      7  C   UNL     1       3.532   3.391  17.770  0.00  0.00    +0.000 A 
ATOM      8  C   UNL     1       3.197   2.040  17.967  0.00  0.00    +0.000 A 
ATOM      9  C   UNL     1       1.967   1.676  18.510  0.00  0.00    +0.000 A 
ATOM     10  C   UNL     1       1.053   2.660  18.860  0.00  0.00    +0.000 A 
ATOM     11  C   UNL     1       1.369   4.009  18.668  0.00  0.00    +0.000 A 
ATOM     12  C   UNL     1       2.613   4.418  18.128  0.00  0.00    +0.000 A 
BRANCH   4  13
ATOM     13  O   UNL     1       4.681   7.344  17.098  0.00  0.00    +0.000 OA
ATOM     14  H   UNL     1       4.046   7.774  16.481  0.00  0.00    +0.000 HD
ENDBRANCH   4  13
ENDBRANCH   2   3
BRANCH   1  17
ATOM     15  C   UNL     1       0.997   8.921  20.728  0.00  0.00    +0.000 C 
ATOM     16  O   UNL     1       1.275   8.175  21.667  0.00  0.00    +0.000 OA
ATOM     17  N   UNL     1       1.500   8.760  19.437  0.00  0.00    +0.000 N 
ATOM     18  H   UNL     1       1.303   9.435  18.706  0.00  0.00    +0.000 HD
BRANCH  15  19
ATOM     19  C   UNL     1       0.049  10.096  20.895  0.00  0.00    +0.000 C 
BRANCH  19  20
ATOM     20  C   UNL     1       0.110  11.009  19.657  0.00  0.00    +0.000 C 
BRANCH  20  26
ATOM     21  C   UNL     1      -2.762   9.762  15.935  0.00  0.00    +0.000 C 
ATOM     22  C   UNL     1      -2.317  10.465  17.160  0.00  0.00    +0.000 A 
ATOM     23  C   UNL     1      -3.024  11.432  17.897  0.00  0.00    +0.000 A 
ATOM     24  C   UNL     1      -2.197  11.775  18.944  0.00  0.00    +0.000 A 
ATOM     25  C   UNL     1      -2.418  12.744  20.044  0.00  0.00    +0.000 C 
ATOM     26  N   UNL     1      -1.059  11.011  18.788  0.00  0.00    +0.000 N 
ATOM     27  N   UNL     1      -1.115  10.209  17.703  0.00  0.00    +0.000 NA
ENDBRANCH  20  26
ENDBRANCH  19  20
ENDBRANCH  15  19
ENDBRANCH   1  17
TORSDOF 6
ENDMDL
