MODEL 1
REMARK VINA RESULT:      -8.0      0.000      0.000
REMARK  Name = 
REMARK  7 active torsions:
REMARK  status: ('A' for Active; 'I' for Inactive)
REMARK    1  A    between atoms: C_1  and  C_2
REMARK    2  A    between atoms: C_2  and  C_3
REMARK    3  A    between atoms: C_6  and  N_7
REMARK    4  A    between atoms: C_8  and  C_10
REMARK    5  A    between atoms: C_10  and  N_11
REMARK    6  A    between atoms: N_14  and  C_15
REMARK    7  A    between atoms: C_15  and  C_16
REMARK                            x       y       z     vdW  Elec       q    Type
REMARK                         _______ _______ _______ _____ _____    ______ ____
ROOT
ATOM      1  N   UNL     1       2.142   8.034  19.403  0.00  0.00    +0.000 N 
ATOM      2  N   UNL     1       2.976   7.633  18.370  0.00  0.00    +0.000 NA
ATOM      3  C   UNL     1       2.949   6.331  18.432  0.00  0.00    +0.000 A 
ATOM      4  N   UNL     1       3.645   5.453  17.625  0.00  0.00    +0.000 N 
ATOM      5  C   UNL     1       3.533   4.053  17.763  0.00  0.00    +0.000 A 
ATOM      6  O   UNL     1       4.183   3.267  17.076  0.00  0.00    +0.000 OA
ATOM      7  C   UNL     1       2.618   3.637  18.810  0.00  0.00    +0.000 A 
ATOM      8  S   UNL     1       2.266   2.018  19.178  0.00  0.00    +0.000 S 
ATOM      9  C   UNL     1       1.204   2.486  20.444  0.00  0.00    +0.000 A 
ATOM     10  C   UNL     1       1.137   3.857  20.589  0.00  0.00    +0.000 A 
ATOM     11  C   UNL     1       1.956   4.514  19.634  0.00  0.00    +0.000 A 
ATOM     12  N   UNL     1       2.156   5.850  19.420  0.00  0.00    +0.000 N 
ATOM     13  C   UNL     1       1.664   6.926  20.110  0.00  0.00    +0.000 A 
ATOM     14  O   UNL     1       0.998   6.967  21.133  0.00  0.00    +0.000 OA
ENDROOT
BRANCH   1  15
ATOM     15  C   UNL     1       1.873   9.405  19.753  0.00  0.00    +0.000 C 
BRANCH  15  17
ATOM     16  N   UNL     1      -0.468  10.037  19.445  0.00  0.00    +0.000 N 
ATOM     17  C   UNL     1       0.783   9.954  18.846  0.00  0.00    +0.000 C 
ATOM     18  O   UNL     1       1.063  10.341  17.713  0.00  0.00    +0.000 OA
ATOM     19  H   UNL     1      -0.516   9.878  20.450  0.00  0.00    +0.000 HD
BRANCH  16  23
ATOM     20  C   UNL     1      -4.060  11.321  17.592  0.00  0.00    +0.000 A 
ATOM     21  C   UNL     1      -3.529  12.046  18.661  0.00  0.00    +0.000 A 
ATOM     22  C   UNL     1      -2.336  11.646  19.267  0.00  0.00    +0.000 A 
ATOM     23  C   UNL     1      -1.649  10.513  18.826  0.00  0.00    +0.000 A 
ATOM     24  C   UNL     1      -2.152   9.813  17.726  0.00  0.00    +0.000 A 
ATOM     25  C   UNL     1      -3.353  10.209  17.117  0.00  0.00    +0.000 A 
BRANCH  20  27
ATOM     26  C   UNL     1      -6.089  12.787  17.795  0.00  0.00    +0.000 C 
ATOM     27  C   UNL     1      -5.358  11.750  16.958  0.00  0.00    +0.000 C 
ENDBRANCH  20  27
ENDBRANCH  16  23
ENDBRANCH  15  17
ENDBRANCH   1  15
BRANCH   4  28
ATOM     28  C   UNL     1       4.678   5.955  16.730  0.00  0.00    +0.000 C 
BRANCH  28  29
ATOM     29  C   UNL     1       5.919   6.388  17.457  0.00  0.00    +0.000 A 
ATOM     30  C   UNL     1       6.746   7.467  17.186  0.00  0.00    +0.000 A 
ATOM     31  C   UNL     1       7.937   7.450  17.972  0.00  0.00    +0.000 A 
ATOM     32  C   UNL     1       7.968   6.380  18.837  0.00  0.00    +0.000 A 
ATOM     33  S   UNL     1       6.559   5.420  18.720  0.00  0.00    +0.000 S 
ENDBRANCH  28  29
ENDBRANCH   4  28
TORSDOF 6
ENDMDL
MODEL 2
REMARK VINA RESULT:      -8.0      0.771      1.141
REMARK  Name = 
REMARK  7 active torsions:
REMARK  status: ('A' for Active; 'I' for Inactive)
REMARK    1  A    between atoms: C_1  and  C_2
REMARK    2  A    between atoms: C_2  and  C_3
REMARK    3  A    between atoms: C_6  and  N_7
REMARK    4  A    between atoms: C_8  and  C_10
REMARK    5  A    between atoms: C_10  and  N_11
REMARK    6  A    between atoms: N_14  and  C_15
REMARK    7  A    between atoms: C_15  and  C_16
REMARK                            x       y       z     vdW  Elec       q    Type
REMARK                         _______ _______ _______ _____ _____    ______ ____
ROOT
ATOM      1  N   UNL     1       2.250   8.223  19.137  0.00  0.00    +0.000 N 
ATOM      2  N   UNL     1       3.064   7.704  18.140  0.00  0.00    +0.000 NA
ATOM      3  C   UNL     1       3.007   6.416  18.327  0.00  0.00    +0.000 A 
ATOM      4  N   UNL     1       3.673   5.447  17.603  0.00  0.00    +0.000 N 
ATOM      5  C   UNL     1       3.529   4.070  17.875  0.00  0.00    +0.000 A 
ATOM      6  O   UNL     1       4.154   3.206  17.262  0.00  0.00    +0.000 OA
ATOM      7  C   UNL     1       2.615   3.779  18.964  0.00  0.00    +0.000 A 
ATOM      8  S   UNL     1       2.227   2.211  19.488  0.00  0.00    +0.000 S 
ATOM      9  C   UNL     1       1.189   2.825  20.711  0.00  0.00    +0.000 A 
ATOM     10  C   UNL     1       1.157   4.205  20.724  0.00  0.00    +0.000 A 
ATOM     11  C   UNL     1       1.981   4.747  19.705  0.00  0.00    +0.000 A 
ATOM     12  N   UNL     1       2.212   6.051  19.362  0.00  0.00    +0.000 N 
ATOM     13  C   UNL     1       1.753   7.200  19.950  0.00  0.00    +0.000 A 
ATOM     14  O   UNL     1       1.097   7.355  20.969  0.00  0.00    +0.000 OA
ENDROOT
BRANCH   1  15
ATOM     15  C   UNL     1       2.018   9.627  19.356  0.00  0.00    +0.000 C 
BRANCH  15  17
ATOM     16  N   UNL     1      -0.025  10.187  18.135  0.00  0.00    +0.000 N 
ATOM     17  C   UNL     1       0.521   9.895  19.379  0.00  0.00    +0.000 C 
ATOM     18  O   UNL     1      -0.109   9.777  20.428  0.00  0.00    +0.000 OA
ATOM     19  H   UNL     1       0.570  10.049  17.320  0.00  0.00    +0.000 HD
BRANCH  16  23
ATOM     20  C   UNL     1      -4.075  11.189  17.376  0.00  0.00    +0.000 A 
ATOM     21  C   UNL     1      -3.437  10.225  16.593  0.00  0.00    +0.000 A 
ATOM     22  C   UNL     1      -2.109   9.871  16.845  0.00  0.00    +0.000 A 
ATOM     23  C   UNL     1      -1.387  10.472  17.878  0.00  0.00    +0.000 A 
ATOM     24  C   UNL     1      -2.038  11.402  18.695  0.00  0.00    +0.000 A 
ATOM     25  C   UNL     1      -3.370  11.763  18.441  0.00  0.00    +0.000 A 
BRANCH  20  27
ATOM     26  C   UNL     1      -6.455  11.121  18.175  0.00  0.00    +0.000 C 
ATOM     27  C   UNL     1      -5.501  11.577  17.083  0.00  0.00    +0.000 C 
ENDBRANCH  20  27
ENDBRANCH  16  23
ENDBRANCH  15  17
ENDBRANCH   1  15
BRANCH   4  28
ATOM     28  C   UNL     1       4.710   5.836  16.656  0.00  0.00    +0.000 C 
BRANCH  28  29
ATOM     29  C   UNL     1       5.927   6.405  17.327  0.00  0.00    +0.000 A 
ATOM     30  C   UNL     1       6.595   7.586  17.044  0.00  0.00    +0.000 A 
ATOM     31  C   UNL     1       7.823   7.702  17.761  0.00  0.00    +0.000 A 
ATOM     32  C   UNL     1       8.039   6.625  18.591  0.00  0.00    +0.000 A 
ATOM     33  S   UNL     1       6.756   5.497  18.522  0.00  0.00    +0.000 S 
ENDBRANCH  28  29
ENDBRANCH   4  28
TORSDOF 6
ENDMDL
MODEL 3
REMARK VINA RESULT:      -7.7      2.252      2.745
REMARK  Name = 
REMARK  7 active torsions:
REMARK  status: ('A' for Active; 'I' for Inactive)
REMARK    1  A    between atoms: C_1  and  C_2
REMARK    2  A    between atoms: C_2  and  C_3
REMARK    3  A    between atoms: C_6  and  N_7
REMARK    4  A    between atoms: C_8  and  C_10
REMARK    5  A    between atoms: C_10  and  N_11
REMARK    6  A    between atoms: N_14  and  C_15
REMARK    7  A    between atoms: C_15  and  C_16
REMARK                            x       y       z     vdW  Elec       q    Type
REMARK                         _______ _______ _______ _____ _____    ______ ____
ROOT
ATOM      1  N   UNL     1       2.529   8.246  18.481  0.00  0.00    +0.000 N 
ATOM      2  N   UNL     1       3.378   7.537  17.644  0.00  0.00    +0.000 NA
ATOM      3  C   UNL     1       3.241   6.300  18.031  0.00  0.00    +0.000 A 
ATOM      4  N   UNL     1       3.903   5.199  17.525  0.00  0.00    +0.000 N 
ATOM      5  C   UNL     1       3.669   3.893  18.004  0.00  0.00    +0.000 A 
ATOM      6  O   UNL     1       4.286   2.915  17.586  0.00  0.00    +0.000 OA
ATOM      7  C   UNL     1       2.671   3.823  19.056  0.00  0.00    +0.000 A 
ATOM      8  S   UNL     1       2.168   2.380  19.797  0.00  0.00    +0.000 S 
ATOM      9  C   UNL     1       1.086   3.229  20.826  0.00  0.00    +0.000 A 
ATOM     10  C   UNL     1       1.126   4.592  20.613  0.00  0.00    +0.000 A 
ATOM     11  C   UNL     1       2.042   4.925  19.583  0.00  0.00    +0.000 A 
ATOM     12  N   UNL     1       2.363   6.144  19.052  0.00  0.00    +0.000 N 
ATOM     13  C   UNL     1       1.927   7.392  19.411  0.00  0.00    +0.000 A 
ATOM     14  O   UNL     1       1.215   7.740  20.340  0.00  0.00    +0.000 OA
ENDROOT
BRANCH   1  15
ATOM     15  C   UNL     1       2.357   9.675  18.453  0.00  0.00    +0.000 C 
BRANCH  15  17
ATOM     16  N   UNL     1       1.069  10.638  20.294  0.00  0.00    +0.000 N 
ATOM     17  C   UNL     1       1.003  10.034  19.045  0.00  0.00    +0.000 C 
ATOM     18  O   UNL     1      -0.023   9.844  18.393  0.00  0.00    +0.000 OA
ATOM     19  H   UNL     1       1.988  10.923  20.627  0.00  0.00    +0.000 HD
BRANCH  16  23
ATOM     20  C   UNL     1      -2.161  11.941  22.713  0.00  0.00    +0.000 A 
ATOM     21  C   UNL     1      -1.955  12.515  21.457  0.00  0.00    +0.000 A 
ATOM     22  C   UNL     1      -0.907  12.080  20.641  0.00  0.00    +0.000 A 
ATOM     23  C   UNL     1      -0.039  11.070  21.061  0.00  0.00    +0.000 A 
ATOM     24  C   UNL     1      -0.272  10.461  22.298  0.00  0.00    +0.000 A 
ATOM     25  C   UNL     1      -1.321  10.897  23.121  0.00  0.00    +0.000 A 
BRANCH  20  27
ATOM     26  C   UNL     1      -3.452  13.938  23.519  0.00  0.00    +0.000 C 
ATOM     27  C   UNL     1      -3.283  12.430  23.593  0.00  0.00    +0.000 C 
ENDBRANCH  20  27
ENDBRANCH  16  23
ENDBRANCH  15  17
ENDBRANCH   1  15
BRANCH   4  28
ATOM     28  C   UNL     1       5.017   5.384  16.605  0.00  0.00    +0.000 C 
BRANCH  28  29
ATOM     29  C   UNL     1       6.292   5.761  17.304  0.00  0.00    +0.000 A 
ATOM     30  C   UNL     1       7.079   4.984  18.141  0.00  0.00    +0.000 A 
ATOM     31  C   UNL     1       8.110   5.741  18.774  0.00  0.00    +0.000 A 
ATOM     32  C   UNL     1       8.098   7.060  18.380  0.00  0.00    +0.000 A 
ATOM     33  S   UNL     1       6.869   7.373  17.234  0.00  0.00    +0.000 S 
ENDBRANCH  28  29
ENDBRANCH   4  28
TORSDOF 6
ENDMDL
MODEL 4
REMARK VINA RESULT:      -7.5      4.942     10.390
REMARK  Name = 
REMARK  7 active torsions:
REMARK  status: ('A' for Active; 'I' for Inactive)
REMARK    1  A    between atoms: C_1  and  C_2
REMARK    2  A    between atoms: C_2  and  C_3
REMARK    3  A    between atoms: C_6  and  N_7
REMARK    4  A    between atoms: C_8  and  C_10
REMARK    5  A    between atoms: C_10  and  N_11
REMARK    6  A    between atoms: N_14  and  C_15
REMARK    7  A    between atoms: C_15  and  C_16
REMARK                            x       y       z     vdW  Elec       q    Type
REMARK                         _______ _______ _______ _____ _____    ______ ____
ROOT
ATOM      1  N   UNL     1      -0.444  10.881  22.527  0.00  0.00    +0.000 N 
ATOM      2  N   UNL     1      -1.627  11.522  22.863  0.00  0.00    +0.000 NA
ATOM      3  C   UNL     1      -1.592  12.628  22.175  0.00  0.00    +0.000 A 
ATOM      4  N   UNL     1      -2.537  13.634  22.181  0.00  0.00    +0.000 N 
ATOM      5  C   UNL     1      -2.413  14.790  21.382  0.00  0.00    +0.000 A 
ATOM      6  O   UNL     1      -3.231  15.709  21.415  0.00  0.00    +0.000 OA
ATOM      7  C   UNL     1      -1.220  14.808  20.556  0.00  0.00    +0.000 A 
ATOM      8  S   UNL     1      -0.828  16.057  19.475  0.00  0.00    +0.000 S 
ATOM      9  C   UNL     1       0.629  15.272  19.018  0.00  0.00    +0.000 A 
ATOM     10  C   UNL     1       0.815  14.084  19.696  0.00  0.00    +0.000 A 
ATOM     11  C   UNL     1      -0.263  13.822  20.579  0.00  0.00    +0.000 A 
ATOM     12  N   UNL     1      -0.481  12.756  21.409  0.00  0.00    +0.000 N 
ATOM     13  C   UNL     1       0.316  11.670  21.659  0.00  0.00    +0.000 A 
ATOM     14  O   UNL     1       1.448  11.420  21.275  0.00  0.00    +0.000 OA
ENDROOT
BRANCH   1  15
ATOM     15  C   UNL     1      -0.017   9.615  23.066  0.00  0.00    +0.000 C 
BRANCH  15  17
ATOM     16  N   UNL     1       1.392   8.293  21.568  0.00  0.00    +0.000 N 
ATOM     17  C   UNL     1       0.088   8.596  21.942  0.00  0.00    +0.000 C 
ATOM     18  O   UNL     1      -0.928   8.069  21.493  0.00  0.00    +0.000 OA
ATOM     19  H   UNL     1       2.141   8.645  22.161  0.00  0.00    +0.000 HD
BRANCH  16  23
ATOM     20  C   UNL     1       2.637   5.644  18.500  0.00  0.00    +0.000 A 
ATOM     21  C   UNL     1       2.244   5.138  19.741  0.00  0.00    +0.000 A 
ATOM     22  C   UNL     1       1.812   5.998  20.754  0.00  0.00    +0.000 A 
ATOM     23  C   UNL     1       1.767   7.379  20.555  0.00  0.00    +0.000 A 
ATOM     24  C   UNL     1       2.114   7.885  19.298  0.00  0.00    +0.000 A 
ATOM     25  C   UNL     1       2.552   7.024  18.280  0.00  0.00    +0.000 A 
BRANCH  20  27
ATOM     26  C   UNL     1       2.392   3.375  17.451  0.00  0.00    +0.000 C 
ATOM     27  C   UNL     1       3.120   4.709  17.421  0.00  0.00    +0.000 C 
ENDBRANCH  20  27
ENDBRANCH  16  23
ENDBRANCH  15  17
ENDBRANCH   1  15
BRANCH   4  28
ATOM     28  C   UNL     1      -3.603  13.620  23.174  0.00  0.00    +0.000 C 
BRANCH  28  29
ATOM     29  C   UNL     1      -4.880  13.031  22.649  0.00  0.00    +0.000 A 
ATOM     30  C   UNL     1      -5.163  12.589  21.365  0.00  0.00    +0.000 A 
ATOM     31  C   UNL     1      -6.543  12.273  21.191  0.00  0.00    +0.000 A 
ATOM     32  C   UNL     1      -7.263  12.451  22.350  0.00  0.00    +0.000 A 
ATOM     33  S   UNL     1      -6.275  12.972  23.644  0.00  0.00    +0.000 S 
ENDBRANCH  28  29
ENDBRANCH   4  28
TORSDOF 6
ENDMDL
MODEL 5
REMARK VINA RESULT:      -7.4      2.168      2.698
REMARK  Name = 
REMARK  7 active torsions:
REMARK  status: ('A' for Active; 'I' for Inactive)
REMARK    1  A    between atoms: C_1  and  C_2
REMARK    2  A    between atoms: C_2  and  C_3
REMARK    3  A    between atoms: C_6  and  N_7
REMARK    4  A    between atoms: C_8  and  C_10
REMARK    5  A    between atoms: C_10  and  N_11
REMARK    6  A    between atoms: N_14  and  C_15
REMARK    7  A    between atoms: C_15  and  C_16
REMARK                            x       y       z     vdW  Elec       q    Type
REMARK                         _______ _______ _______ _____ _____    ______ ____
ROOT
ATOM      1  N   UNL     1       2.429   8.444  18.569  0.00  0.00    +0.000 N 
ATOM      2  N   UNL     1       3.299   7.758  17.735  0.00  0.00    +0.000 NA
ATOM      3  C   UNL     1       3.221   6.524  18.146  0.00  0.00    +0.000 A 
ATOM      4  N   UNL     1       3.924   5.443  17.652  0.00  0.00    +0.000 N 
ATOM      5  C   UNL     1       3.753   4.137  18.157  0.00  0.00    +0.000 A 
ATOM      6  O   UNL     1       4.408   3.179  17.750  0.00  0.00    +0.000 OA
ATOM      7  C   UNL     1       2.771   4.043  19.221  0.00  0.00    +0.000 A 
ATOM      8  S   UNL     1       2.339   2.594  19.994  0.00  0.00    +0.000 S 
ATOM      9  C   UNL     1       1.232   3.413  21.020  0.00  0.00    +0.000 A 
ATOM     10  C   UNL     1       1.209   4.773  20.782  0.00  0.00    +0.000 A 
ATOM     11  C   UNL     1       2.099   5.126  19.735  0.00  0.00    +0.000 A 
ATOM     12  N   UNL     1       2.361   6.348  19.179  0.00  0.00    +0.000 N 
ATOM     13  C   UNL     1       1.875   7.583  19.521  0.00  0.00    +0.000 A 
ATOM     14  O   UNL     1       1.158   7.916  20.452  0.00  0.00    +0.000 OA
ENDROOT
BRANCH   1  15
ATOM     15  C   UNL     1       2.194   9.864  18.517  0.00  0.00    +0.000 C 
BRANCH  15  17
ATOM     16  N   UNL     1       0.944  10.842  20.376  0.00  0.00    +0.000 N 
ATOM     17  C   UNL     1       0.852  10.179  19.158  0.00  0.00    +0.000 C 
ATOM     18  O   UNL     1      -0.191   9.908  18.566  0.00  0.00    +0.000 OA
ATOM     19  H   UNL     1       1.861  11.188  20.651  0.00  0.00    +0.000 HD
BRANCH  16  23
ATOM     20  C   UNL     1      -2.421  12.055  22.653  0.00  0.00    +0.000 A 
ATOM     21  C   UNL     1      -1.535  11.108  23.170  0.00  0.00    +0.000 A 
ATOM     22  C   UNL     1      -0.411  10.715  22.439  0.00  0.00    +0.000 A 
ATOM     23  C   UNL     1      -0.149  11.251  21.177  0.00  0.00    +0.000 A 
ATOM     24  C   UNL     1      -1.009  12.234  20.677  0.00  0.00    +0.000 A 
ATOM     25  C   UNL     1      -2.141  12.629  21.406  0.00  0.00    +0.000 A 
BRANCH  20  27
ATOM     26  C   UNL     1      -3.382  13.674  24.315  0.00  0.00    +0.000 C 
ATOM     27  C   UNL     1      -3.641  12.458  23.441  0.00  0.00    +0.000 C 
ENDBRANCH  20  27
ENDBRANCH  16  23
ENDBRANCH  15  17
ENDBRANCH   1  15
BRANCH   4  28
ATOM     28  C   UNL     1       5.020   5.659  16.717  0.00  0.00    +0.000 C 
BRANCH  28  29
ATOM     29  C   UNL     1       6.176   6.392  17.334  0.00  0.00    +0.000 A 
ATOM     30  C   UNL     1       6.738   7.600  16.948  0.00  0.00    +0.000 A 
ATOM     31  C   UNL     1       7.944   7.888  17.652  0.00  0.00    +0.000 A 
ATOM     32  C   UNL     1       8.249   6.913  18.574  0.00  0.00    +0.000 A 
ATOM     33  S   UNL     1       7.073   5.673  18.606  0.00  0.00    +0.000 S 
ENDBRANCH  28  29
ENDBRANCH   4  28
TORSDOF 6
ENDMDL
MODEL 6
REMARK VINA RESULT:      -7.4      4.753      8.993
REMARK  Name = 
REMARK  7 active torsions:
REMARK  status: ('A' for Active; 'I' for Inactive)
REMARK    1  A    between atoms: C_1  and  C_2
REMARK    2  A    between atoms: C_2  and  C_3
REMARK    3  A    between atoms: C_6  and  N_7
REMARK    4  A    between atoms: C_8  and  C_10
REMARK    5  A    between atoms: C_10  and  N_11
REMARK    6  A    between atoms: N_14  and  C_15
REMARK    7  A    between atoms: C_15  and  C_16
REMARK                            x       y       z     vdW  Elec       q    Type
REMARK                         _______ _______ _______ _____ _____    ______ ____
ROOT
ATOM      1  N   UNL     1       0.204  10.856  22.196  0.00  0.00    +0.000 N 
ATOM      2  N   UNL     1       0.866  11.530  21.180  0.00  0.00    +0.000 NA
ATOM      3  C   UNL     1       0.129  12.584  20.969  0.00  0.00    +0.000 A 
ATOM      4  N   UNL     1       0.348  13.568  20.026  0.00  0.00    +0.000 N 
ATOM      5  C   UNL     1      -0.503  14.684  19.889  0.00  0.00    +0.000 A 
ATOM      6  O   UNL     1      -0.337  15.541  19.023  0.00  0.00    +0.000 OA
ATOM      7  C   UNL     1      -1.606  14.700  20.832  0.00  0.00    +0.000 A 
ATOM      8  S   UNL     1      -2.768  15.935  20.918  0.00  0.00    +0.000 S 
ATOM      9  C   UNL     1      -3.592  15.139  22.197  0.00  0.00    +0.000 A 
ATOM     10  C   UNL     1      -2.994  13.942  22.537  0.00  0.00    +0.000 A 
ATOM     11  C   UNL     1      -1.842  13.701  21.745  0.00  0.00    +0.000 A 
ATOM     12  N   UNL     1      -0.959  12.656  21.774  0.00  0.00    +0.000 N 
ATOM     13  C   UNL     1      -0.977  11.521  22.541  0.00  0.00    +0.000 A 
ATOM     14  O   UNL     1      -1.820  11.115  23.325  0.00  0.00    +0.000 OA
ENDROOT
BRANCH   1  15
ATOM     15  C   UNL     1       0.629   9.600  22.758  0.00  0.00    +0.000 C 
BRANCH  15  17
ATOM     16  N   UNL     1       1.728   7.929  21.353  0.00  0.00    +0.000 N 
ATOM     17  C   UNL     1       0.516   8.510  21.704  0.00  0.00    +0.000 C 
ATOM     18  O   UNL     1      -0.590   8.168  21.289  0.00  0.00    +0.000 OA
ATOM     19  H   UNL     1       2.540   8.163  21.922  0.00  0.00    +0.000 HD
BRANCH  16  23
ATOM     20  C   UNL     1       2.384   4.893  18.466  0.00  0.00    +0.000 A 
ATOM     21  C   UNL     1       1.936   4.555  19.744  0.00  0.00    +0.000 A 
ATOM     22  C   UNL     1       1.696   5.547  20.699  0.00  0.00    +0.000 A 
ATOM     23  C   UNL     1       1.903   6.895  20.402  0.00  0.00    +0.000 A 
ATOM     24  C   UNL     1       2.306   7.241  19.109  0.00  0.00    +0.000 A 
ATOM     25  C   UNL     1       2.552   6.247  18.149  0.00  0.00    +0.000 A 
BRANCH  20  27
ATOM     26  C   UNL     1       4.070   3.897  16.893  0.00  0.00    +0.000 C 
ATOM     27  C   UNL     1       2.658   3.814  17.451  0.00  0.00    +0.000 C 
ENDBRANCH  20  27
ENDBRANCH  16  23
ENDBRANCH  15  17
ENDBRANCH   1  15
BRANCH   4  28
ATOM     28  C   UNL     1       1.367  13.376  19.002  0.00  0.00    +0.000 C 
BRANCH  28  29
ATOM     29  C   UNL     1       2.645  14.102  19.310  0.00  0.00    +0.000 A 
ATOM     30  C   UNL     1       3.318  14.189  20.519  0.00  0.00    +0.000 A 
ATOM     31  C   UNL     1       4.394  15.125  20.476  0.00  0.00    +0.000 A 
ATOM     32  C   UNL     1       4.530  15.698  19.232  0.00  0.00    +0.000 A 
ATOM     33  S   UNL     1       3.383  15.090  18.119  0.00  0.00    +0.000 S 
ENDBRANCH  28  29
ENDBRANCH   4  28
TORSDOF 6
ENDMDL
MODEL 7
REMARK VINA RESULT:      -7.3      4.120      9.836
REMARK  Name = 
REMARK  7 active torsions:
REMARK  status: ('A' for Active; 'I' for Inactive)
REMARK    1  A    between atoms: C_1  and  C_2
REMARK    2  A    between atoms: C_2  and  C_3
REMARK    3  A    between atoms: C_6  and  N_7
REMARK    4  A    between atoms: C_8  and  C_10
REMARK    5  A    between atoms: C_10  and  N_11
REMARK    6  A    between atoms: N_14  and  C_15
REMARK    7  A    between atoms: C_15  and  C_16
REMARK                            x       y       z     vdW  Elec       q    Type
REMARK                         _______ _______ _______ _____ _____    ______ ____
ROOT
ATOM      1  N   UNL     1      -0.202  10.780  20.151  0.00  0.00    +0.000 N 
ATOM      2  N   UNL     1      -1.040  11.649  20.834  0.00  0.00    +0.000 NA
ATOM      3  C   UNL     1      -2.051  11.809  20.027  0.00  0.00    +0.000 A 
ATOM      4  N   UNL     1      -3.154  12.613  20.237  0.00  0.00    +0.000 N 
ATOM      5  C   UNL     1      -4.209  12.703  19.305  0.00  0.00    +0.000 A 
ATOM      6  O   UNL     1      -5.173  13.450  19.467  0.00  0.00    +0.000 OA
ATOM      7  C   UNL     1      -4.028  11.871  18.130  0.00  0.00    +0.000 A 
ATOM      8  S   UNL     1      -5.150  11.758  16.861  0.00  0.00    +0.000 S 
ATOM      9  C   UNL     1      -4.147  10.657  16.006  0.00  0.00    +0.000 A 
ATOM     10  C   UNL     1      -2.968  10.397  16.677  0.00  0.00    +0.000 A 
ATOM     11  C   UNL     1      -2.913  11.101  17.908  0.00  0.00    +0.000 A 
ATOM     12  N   UNL     1      -1.944  11.106  18.874  0.00  0.00    +0.000 N 
ATOM     13  C   UNL     1      -0.728  10.475  18.891  0.00  0.00    +0.000 A 
ATOM     14  O   UNL     1      -0.168   9.822  18.024  0.00  0.00    +0.000 OA
ENDROOT
BRANCH   1  15
ATOM     15  C   UNL     1       1.075  10.323  20.636  0.00  0.00    +0.000 C 
BRANCH  15  17
ATOM     16  N   UNL     1       1.890   8.170  19.814  0.00  0.00    +0.000 N 
ATOM     17  C   UNL     1       1.065   8.805  20.734  0.00  0.00    +0.000 C 
ATOM     18  O   UNL     1       0.417   8.251  21.620  0.00  0.00    +0.000 OA
ATOM     19  H   UNL     1       2.527   8.754  19.276  0.00  0.00    +0.000 HD
BRANCH  16  23
ATOM     20  C   UNL     1       2.550   4.003  19.382  0.00  0.00    +0.000 A 
ATOM     21  C   UNL     1       2.106   4.516  20.603  0.00  0.00    +0.000 A 
ATOM     22  C   UNL     1       1.864   5.884  20.752  0.00  0.00    +0.000 A 
ATOM     23  C   UNL     1       2.066   6.770  19.693  0.00  0.00    +0.000 A 
ATOM     24  C   UNL     1       2.464   6.254  18.456  0.00  0.00    +0.000 A 
ATOM     25  C   UNL     1       2.711   4.881  18.303  0.00  0.00    +0.000 A 
BRANCH  20  27
ATOM     26  C   UNL     1       3.314   2.172  17.843  0.00  0.00    +0.000 C 
ATOM     27  C   UNL     1       2.825   2.528  19.237  0.00  0.00    +0.000 C 
ENDBRANCH  20  27
ENDBRANCH  16  23
ENDBRANCH  15  17
ENDBRANCH   1  15
BRANCH   4  28
ATOM     28  C   UNL     1      -3.165  13.552  21.351  0.00  0.00    +0.000 C 
BRANCH  28  29
ATOM     29  C   UNL     1      -3.967  13.059  22.520  0.00  0.00    +0.000 A 
ATOM     30  C   UNL     1      -5.316  13.246  22.782  0.00  0.00    +0.000 A 
ATOM     31  C   UNL     1      -5.685  12.796  24.084  0.00  0.00    +0.000 A 
ATOM     32  C   UNL     1      -4.618  12.254  24.764  0.00  0.00    +0.000 A 
ATOM     33  S   UNL     1      -3.190  12.263  23.825  0.00  0.00    +0.000 S 
ENDBRANCH  28  29
ENDBRANCH   4  28
TORSDOF 6
ENDMDL
MODEL 8
REMARK VINA RESULT:      -7.3      4.653      9.169
REMARK  Name = 
REMARK  7 active torsions:
REMARK  status: ('A' for Active; 'I' for Inactive)
REMARK    1  A    between atoms: C_1  and  C_2
REMARK    2  A    between atoms: C_2  and  C_3
REMARK    3  A    between atoms: C_6  and  N_7
REMARK    4  A    between atoms: C_8  and  C_10
REMARK    5  A    between atoms: C_10  and  N_11
REMARK    6  A    between atoms: N_14  and  C_15
REMARK    7  A    between atoms: C_15  and  C_16
REMARK                            x       y       z     vdW  Elec       q    Type
REMARK                         _______ _______ _______ _____ _____    ______ ____
ROOT
ATOM      1  N   UNL     1       0.406  10.481  21.811  0.00  0.00    +0.000 N 
ATOM      2  N   UNL     1       0.213  11.317  20.722  0.00  0.00    +0.000 NA
ATOM      3  C   UNL     1      -0.869  11.979  21.022  0.00  0.00    +0.000 A 
ATOM      4  N   UNL     1      -1.499  12.927  20.241  0.00  0.00    +0.000 N 
ATOM      5  C   UNL     1      -2.662  13.603  20.667  0.00  0.00    +0.000 A 
ATOM      6  O   UNL     1      -3.252  14.417  19.958  0.00  0.00    +0.000 OA
ATOM      7  C   UNL     1      -3.113  13.218  21.992  0.00  0.00    +0.000 A 
ATOM      8  S   UNL     1      -4.464  13.889  22.770  0.00  0.00    +0.000 S 
ATOM      9  C   UNL     1      -4.232  12.886  24.145  0.00  0.00    +0.000 A 
ATOM     10  C   UNL     1      -3.147  12.044  23.999  0.00  0.00    +0.000 A 
ATOM     11  C   UNL     1      -2.504  12.249  22.751  0.00  0.00    +0.000 A 
ATOM     12  N   UNL     1      -1.393  11.646  22.227  0.00  0.00    +0.000 N 
ATOM     13  C   UNL     1      -0.627  10.633  22.740  0.00  0.00    +0.000 A 
ATOM     14  O   UNL     1      -0.787   9.958  23.745  0.00  0.00    +0.000 OA
ENDROOT
BRANCH   1  15
ATOM     15  C   UNL     1       1.477   9.525  21.929  0.00  0.00    +0.000 C 
BRANCH  15  17
ATOM     16  N   UNL     1       2.135   7.462  20.794  0.00  0.00    +0.000 N 
ATOM     17  C   UNL     1       1.069   8.222  21.258  0.00  0.00    +0.000 C 
ATOM     18  O   UNL     1      -0.116   7.893  21.225  0.00  0.00    +0.000 OA
ATOM     19  H   UNL     1       3.071   7.752  21.071  0.00  0.00    +0.000 HD
BRANCH  16  23
ATOM     20  C   UNL     1       1.969   3.738  18.773  0.00  0.00    +0.000 A 
ATOM     21  C   UNL     1       1.526   3.834  20.093  0.00  0.00    +0.000 A 
ATOM     22  C   UNL     1       1.556   5.060  20.764  0.00  0.00    +0.000 A 
ATOM     23  C   UNL     1       2.033   6.212  20.137  0.00  0.00    +0.000 A 
ATOM     24  C   UNL     1       2.432   6.129  18.800  0.00  0.00    +0.000 A 
ATOM     25  C   UNL     1       2.407   4.899  18.124  0.00  0.00    +0.000 A 
BRANCH  20  27
ATOM     26  C   UNL     1       3.347   1.836  17.883  0.00  0.00    +0.000 C 
ATOM     27  C   UNL     1       1.950   2.408  18.064  0.00  0.00    +0.000 C 
ENDBRANCH  20  27
ENDBRANCH  16  23
ENDBRANCH  15  17
ENDBRANCH   1  15
BRANCH   4  28
ATOM     28  C   UNL     1      -1.088  13.114  18.856  0.00  0.00    +0.000 C 
BRANCH  28  29
ATOM     29  C   UNL     1       0.078  14.049  18.716  0.00  0.00    +0.000 A 
ATOM     30  C   UNL     1       1.419  13.738  18.553  0.00  0.00    +0.000 A 
ATOM     31  C   UNL     1       2.259  14.886  18.651  0.00  0.00    +0.000 A 
ATOM     32  C   UNL     1       1.535  16.040  18.852  0.00  0.00    +0.000 A 
ATOM     33  S   UNL     1      -0.147  15.739  18.897  0.00  0.00    +0.000 S 
ENDBRANCH  28  29
ENDBRANCH   4  28
TORSDOF 6
ENDMDL
MODEL 9
REMARK VINA RESULT:      -7.2      5.148     10.072
REMARK  Name = 
REMARK  7 active torsions:
REMARK  status: ('A' for Active; 'I' for Inactive)
REMARK    1  A    between atoms: C_1  and  C_2
REMARK    2  A    between atoms: C_2  and  C_3
REMARK    3  A    between atoms: C_6  and  N_7
REMARK    4  A    between atoms: C_8  and  C_10
REMARK    5  A    between atoms: C_10  and  N_11
REMARK    6  A    between atoms: N_14  and  C_15
REMARK    7  A    between atoms: C_15  and  C_16
REMARK                            x       y       z     vdW  Elec       q    Type
REMARK                         _______ _______ _______ _____ _____    ______ ____
ROOT
ATOM      1  N   UNL     1      -2.213  12.428  19.532  0.00  0.00    +0.000 N 
ATOM      2  N   UNL     1      -1.607  12.775  20.730  0.00  0.00    +0.000 NA
ATOM      3  C   UNL     1      -2.603  12.901  21.561  0.00  0.00    +0.000 A 
ATOM      4  N   UNL     1      -2.527  13.267  22.890  0.00  0.00    +0.000 N 
ATOM      5  C   UNL     1      -3.669  13.357  23.714  0.00  0.00    +0.000 A 
ATOM      6  O   UNL     1      -3.612  13.724  24.886  0.00  0.00    +0.000 OA
ATOM      7  C   UNL     1      -4.908  13.020  23.038  0.00  0.00    +0.000 A 
ATOM      8  S   UNL     1      -6.431  13.012  23.789  0.00  0.00    +0.000 S 
ATOM      9  C   UNL     1      -7.205  12.553  22.326  0.00  0.00    +0.000 A 
ATOM     10  C   UNL     1      -6.311  12.425  21.282  0.00  0.00    +0.000 A 
ATOM     11  C   UNL     1      -4.984  12.692  21.706  0.00  0.00    +0.000 A 
ATOM     12  N   UNL     1      -3.812  12.654  21.001  0.00  0.00    +0.000 N 
ATOM     13  C   UNL     1      -3.604  12.404  19.670  0.00  0.00    +0.000 A 
ATOM     14  O   UNL     1      -4.407  12.236  18.766  0.00  0.00    +0.000 OA
ENDROOT
BRANCH   1  15
ATOM     15  C   UNL     1      -1.511  12.205  18.294  0.00  0.00    +0.000 C 
BRANCH  15  17
ATOM     16  N   UNL     1       0.279  10.654  18.900  0.00  0.00    +0.000 N 
ATOM     17  C   UNL     1      -0.955  10.790  18.275  0.00  0.00    +0.000 C 
ATOM     18  O   UNL     1      -1.620   9.874  17.794  0.00  0.00    +0.000 OA
ATOM     19  H   UNL     1       0.621  11.450  19.436  0.00  0.00    +0.000 HD
BRANCH  16  23
ATOM     20  C   UNL     1       2.594   7.115  19.203  0.00  0.00    +0.000 A 
ATOM     21  C   UNL     1       1.870   7.571  20.306  0.00  0.00    +0.000 A 
ATOM     22  C   UNL     1       1.087   8.725  20.214  0.00  0.00    +0.000 A 
ATOM     23  C   UNL     1       1.012   9.451  19.024  0.00  0.00    +0.000 A 
ATOM     24  C   UNL     1       1.697   8.970  17.904  0.00  0.00    +0.000 A 
ATOM     25  C   UNL     1       2.488   7.814  17.994  0.00  0.00    +0.000 A 
BRANCH  20  27
ATOM     26  C   UNL     1       3.546   5.124  18.003  0.00  0.00    +0.000 C 
ATOM     27  C   UNL     1       3.451   5.880  19.318  0.00  0.00    +0.000 C 
ENDBRANCH  20  27
ENDBRANCH  16  23
ENDBRANCH  15  17
ENDBRANCH   1  15
BRANCH   4  28
ATOM     28  C   UNL     1      -1.271  13.767  23.433  0.00  0.00    +0.000 C 
BRANCH  28  29
ATOM     29  C   UNL     1      -0.972  15.175  23.005  0.00  0.00    +0.000 A 
ATOM     30  C   UNL     1      -1.802  16.285  23.047  0.00  0.00    +0.000 A 
ATOM     31  C   UNL     1      -1.238  17.410  22.376  0.00  0.00    +0.000 A 
ATOM     32  C   UNL     1       0.012  17.137  21.870  0.00  0.00    +0.000 A 
ATOM     33  S   UNL     1       0.512  15.542  22.228  0.00  0.00    +0.000 S 
ENDBRANCH  28  29
ENDBRANCH   4  28
TORSDOF 6
ENDMDL
