MODEL 1
REMARK VINA RESULT:      -7.4      0.000      0.000
REMARK  Name = 
REMARK  5 active torsions:
REMARK  status: ('A' for Active; 'I' for Inactive)
REMARK    1  A    between atoms: C_1  and  N_2
REMARK    2  A    between atoms: C_7  and  C_8
REMARK    3  A    between atoms: C_13  and  C_14
REMARK    4  A    between atoms: C_18  and  O_19
REMARK    5  A    between atoms: O_19  and  C_20
REMARK                            x       y       z     vdW  Elec       q    Type
REMARK                         _______ _______ _______ _____ _____    ______ ____
ROOT
ATOM      1  C   UNL     1       0.823   2.358  22.630  0.00  0.00    +0.000 C 
ATOM      2  N   UNL     1       2.095   2.433  21.956  0.00  0.00    +0.000 N 
ATOM      3  C   UNL     1       2.384   3.465  21.085  0.00  0.00    +0.000 A 
ATOM      4  N   UNL     1       1.831   4.637  21.230  0.00  0.00    +0.000 NA
ATOM      5  C   UNL     1       2.125   5.664  20.310  0.00  0.00    +0.000 A 
ATOM      6  C   UNL     1       1.518   6.905  20.541  0.00  0.00    +0.000 A 
ATOM      7  C   UNL     1       1.722   7.984  19.676  0.00  0.00    +0.000 A 
ATOM      8  C   UNL     1       1.094   9.319  19.946  0.00  0.00    +0.000 C 
ATOM      9  C   UNL     1       2.516   7.793  18.541  0.00  0.00    +0.000 A 
ATOM     10  C   UNL     1       3.102   6.548  18.277  0.00  0.00    +0.000 A 
ATOM     11  C   UNL     1       2.958   5.501  19.187  0.00  0.00    +0.000 A 
ATOM     12  N   UNL     1       3.608   4.242  19.074  0.00  0.00    +0.000 N 
ATOM     13  C   UNL     1       4.567   3.692  18.216  0.00  0.00    +0.000 A 
ATOM     14  C   UNL     1       4.683   2.377  18.656  0.00  0.00    +0.000 A 
ATOM     15  N   UNL     1       3.902   2.110  19.737  0.00  0.00    +0.000 NA
ATOM     16  C   UNL     1       3.305   3.256  19.987  0.00  0.00    +0.000 A 
ATOM     17  H   UNL     1       2.465   1.543  21.632  0.00  0.00    +0.000 HD
ENDROOT
BRANCH  13  18
ATOM     18  C   UNL     1       5.338   4.300  17.126  0.00  0.00    +0.000 A 
ATOM     19  C   UNL     1       5.188   3.820  15.815  0.00  0.00    +0.000 A 
ATOM     20  C   UNL     1       5.941   4.349  14.766  0.00  0.00    +0.000 A 
ATOM     21  C   UNL     1       6.830   5.392  15.011  0.00  0.00    +0.000 A 
ATOM     22  C   UNL     1       7.004   5.879  16.307  0.00  0.00    +0.000 A 
ATOM     23  C   UNL     1       6.303   5.288  17.362  0.00  0.00    +0.000 A 
BRANCH  22  24
ATOM     24  O   UNL     1       7.886   6.917  16.421  0.00  0.00    +0.000 OA
ATOM     25  C   UNL     1       7.695   7.794  17.526  0.00  0.00    +0.000 C 
ENDBRANCH  22  24
ENDBRANCH  13  18
TORSDOF 2
ENDMDL
MODEL 2
REMARK VINA RESULT:      -7.2      4.739      7.632
REMARK  Name = 
REMARK  5 active torsions:
REMARK  status: ('A' for Active; 'I' for Inactive)
REMARK    1  A    between atoms: C_1  and  N_2
REMARK    2  A    between atoms: C_7  and  C_8
REMARK    3  A    between atoms: C_13  and  C_14
REMARK    4  A    between atoms: C_18  and  O_19
REMARK    5  A    between atoms: O_19  and  C_20
REMARK                            x       y       z     vdW  Elec       q    Type
REMARK                         _______ _______ _______ _____ _____    ______ ____
ROOT
ATOM      1  C   UNL     1      -3.460  13.520  22.478  0.00  0.00    +0.000 C 
ATOM      2  N   UNL     1      -2.127  13.057  22.185  0.00  0.00    +0.000 N 
ATOM      3  C   UNL     1      -1.870  12.259  21.088  0.00  0.00    +0.000 A 
ATOM      4  N   UNL     1      -2.613  12.332  20.020  0.00  0.00    +0.000 NA
ATOM      5  C   UNL     1      -2.343  11.486  18.925  0.00  0.00    +0.000 A 
ATOM      6  C   UNL     1      -3.162  11.637  17.798  0.00  0.00    +0.000 A 
ATOM      7  C   UNL     1      -2.997  10.832  16.668  0.00  0.00    +0.000 A 
ATOM      8  C   UNL     1      -3.857  11.020  15.454  0.00  0.00    +0.000 C 
ATOM      9  C   UNL     1      -2.018   9.835  16.693  0.00  0.00    +0.000 A 
ATOM     10  C   UNL     1      -1.213   9.647  17.824  0.00  0.00    +0.000 A 
ATOM     11  C   UNL     1      -1.332  10.507  18.916  0.00  0.00    +0.000 A 
ATOM     12  N   UNL     1      -0.486  10.479  20.058  0.00  0.00    +0.000 N 
ATOM     13  C   UNL     1       0.668   9.775  20.423  0.00  0.00    +0.000 A 
ATOM     14  C   UNL     1       0.916  10.207  21.722  0.00  0.00    +0.000 A 
ATOM     15  N   UNL     1       0.028  11.147  22.146  0.00  0.00    +0.000 NA
ATOM     16  C   UNL     1      -0.769  11.317  21.113  0.00  0.00    +0.000 A 
ATOM     17  H   UNL     1      -1.577  12.781  22.997  0.00  0.00    +0.000 HD
ENDROOT
BRANCH  13  18
ATOM     18  C   UNL     1       1.494   8.830  19.664  0.00  0.00    +0.000 A 
ATOM     19  C   UNL     1       1.873   9.138  18.348  0.00  0.00    +0.000 A 
ATOM     20  C   UNL     1       2.622   8.239  17.586  0.00  0.00    +0.000 A 
ATOM     21  C   UNL     1       3.030   7.032  18.147  0.00  0.00    +0.000 A 
ATOM     22  C   UNL     1       2.656   6.699  19.449  0.00  0.00    +0.000 A 
ATOM     23  C   UNL     1       1.840   7.572  20.175  0.00  0.00    +0.000 A 
BRANCH  22  24
ATOM     24  O   UNL     1       3.133   5.498  19.899  0.00  0.00    +0.000 OA
ATOM     25  C   UNL     1       4.330   5.023  19.294  0.00  0.00    +0.000 C 
ENDBRANCH  22  24
ENDBRANCH  13  18
TORSDOF 2
ENDMDL
MODEL 3
REMARK VINA RESULT:      -6.9      2.479      5.642
REMARK  Name = 
REMARK  5 active torsions:
REMARK  status: ('A' for Active; 'I' for Inactive)
REMARK    1  A    between atoms: C_1  and  N_2
REMARK    2  A    between atoms: C_7  and  C_8
REMARK    3  A    between atoms: C_13  and  C_14
REMARK    4  A    between atoms: C_18  and  O_19
REMARK    5  A    between atoms: O_19  and  C_20
REMARK                            x       y       z     vdW  Elec       q    Type
REMARK                         _______ _______ _______ _____ _____    ______ ____
ROOT
ATOM      1  C   UNL     1       4.900   1.234  20.653  0.00  0.00    +0.000 C 
ATOM      2  N   UNL     1       3.804   2.164  20.543  0.00  0.00    +0.000 N 
ATOM      3  C   UNL     1       3.880   3.265  19.712  0.00  0.00    +0.000 A 
ATOM      4  N   UNL     1       4.619   3.243  18.639  0.00  0.00    +0.000 NA
ATOM      5  C   UNL     1       4.698   4.390  17.824  0.00  0.00    +0.000 A 
ATOM      6  C   UNL     1       5.488   4.288  16.672  0.00  0.00    +0.000 A 
ATOM      7  C   UNL     1       5.654   5.374  15.808  0.00  0.00    +0.000 A 
ATOM      8  C   UNL     1       6.476   5.249  14.560  0.00  0.00    +0.000 C 
ATOM      9  C   UNL     1       5.047   6.590  16.135  0.00  0.00    +0.000 A 
ATOM     10  C   UNL     1       4.282   6.719  17.302  0.00  0.00    +0.000 A 
ATOM     11  C   UNL     1       4.057   5.609  18.115  0.00  0.00    +0.000 A 
ATOM     12  N   UNL     1       3.201   5.604  19.250  0.00  0.00    +0.000 N 
ATOM     13  C   UNL     1       2.316   6.519  19.832  0.00  0.00    +0.000 A 
ATOM     14  C   UNL     1       1.868   5.860  20.973  0.00  0.00    +0.000 A 
ATOM     15  N   UNL     1       2.382   4.606  21.096  0.00  0.00    +0.000 NA
ATOM     16  C   UNL     1       3.140   4.470  20.029  0.00  0.00    +0.000 A 
ATOM     17  H   UNL     1       3.327   2.375  21.417  0.00  0.00    +0.000 HD
ENDROOT
BRANCH  13  18
ATOM     18  C   UNL     1       1.881   7.847  19.386  0.00  0.00    +0.000 A 
ATOM     19  C   UNL     1       2.155   8.265  18.074  0.00  0.00    +0.000 A 
ATOM     20  C   UNL     1       1.792   9.539  17.634  0.00  0.00    +0.000 A 
ATOM     21  C   UNL     1       1.118  10.400  18.497  0.00  0.00    +0.000 A 
ATOM     22  C   UNL     1       0.845  10.012  19.808  0.00  0.00    +0.000 A 
ATOM     23  C   UNL     1       1.282   8.763  20.260  0.00  0.00    +0.000 A 
BRANCH  22  24
ATOM     24  O   UNL     1       0.161  10.932  20.554  0.00  0.00    +0.000 OA
ATOM     25  C   UNL     1      -0.090  10.588  21.912  0.00  0.00    +0.000 C 
ENDBRANCH  22  24
ENDBRANCH  13  18
TORSDOF 2
ENDMDL
MODEL 4
REMARK VINA RESULT:      -6.9      4.015      6.706
REMARK  Name = 
REMARK  5 active torsions:
REMARK  status: ('A' for Active; 'I' for Inactive)
REMARK    1  A    between atoms: C_1  and  N_2
REMARK    2  A    between atoms: C_7  and  C_8
REMARK    3  A    between atoms: C_13  and  C_14
REMARK    4  A    between atoms: C_18  and  O_19
REMARK    5  A    between atoms: O_19  and  C_20
REMARK                            x       y       z     vdW  Elec       q    Type
REMARK                         _______ _______ _______ _____ _____    ______ ____
ROOT
ATOM      1  C   UNL     1       2.584  13.518  17.844  0.00  0.00    +0.000 C 
ATOM      2  N   UNL     1       2.359  12.139  17.488  0.00  0.00    +0.000 N 
ATOM      3  C   UNL     1       1.870  11.233  18.407  0.00  0.00    +0.000 A 
ATOM      4  N   UNL     1       1.102  11.622  19.386  0.00  0.00    +0.000 NA
ATOM      5  C   UNL     1       0.639  10.678  20.325  0.00  0.00    +0.000 A 
ATOM      6  C   UNL     1      -0.205  11.159  21.335  0.00  0.00    +0.000 A 
ATOM      7  C   UNL     1      -0.701  10.312  22.331  0.00  0.00    +0.000 A 
ATOM      8  C   UNL     1      -1.628  10.828  23.390  0.00  0.00    +0.000 C 
ATOM      9  C   UNL     1      -0.305   8.972  22.329  0.00  0.00    +0.000 A 
ATOM     10  C   UNL     1       0.565   8.482  21.346  0.00  0.00    +0.000 A 
ATOM     11  C   UNL     1       0.990   9.315  20.312  0.00  0.00    +0.000 A 
ATOM     12  N   UNL     1       1.773   8.887  19.204  0.00  0.00    +0.000 N 
ATOM     13  C   UNL     1       2.248   7.656  18.739  0.00  0.00    +0.000 A 
ATOM     14  C   UNL     1       3.011   7.999  17.628  0.00  0.00    +0.000 A 
ATOM     15  N   UNL     1       2.994   9.333  17.365  0.00  0.00    +0.000 NA
ATOM     16  C   UNL     1       2.212   9.829  18.300  0.00  0.00    +0.000 A 
ATOM     17  H   UNL     1       3.067  11.728  16.884  0.00  0.00    +0.000 HD
ENDROOT
BRANCH  13  18
ATOM     18  C   UNL     1       2.008   6.292  19.224  0.00  0.00    +0.000 A 
ATOM     19  C   UNL     1       2.013   6.033  20.604  0.00  0.00    +0.000 A 
ATOM     20  C   UNL     1       1.831   4.738  21.093  0.00  0.00    +0.000 A 
ATOM     21  C   UNL     1       1.607   3.689  20.204  0.00  0.00    +0.000 A 
ATOM     22  C   UNL     1       1.609   3.921  18.828  0.00  0.00    +0.000 A 
ATOM     23  C   UNL     1       1.870   5.207  18.348  0.00  0.00    +0.000 A 
BRANCH  22  24
ATOM     24  O   UNL     1       1.358   2.820  18.056  0.00  0.00    +0.000 OA
ATOM     25  C   UNL     1       2.479   2.007  17.725  0.00  0.00    +0.000 C 
ENDBRANCH  22  24
ENDBRANCH  13  18
TORSDOF 2
ENDMDL
MODEL 5
REMARK VINA RESULT:      -6.9      1.252      2.002
REMARK  Name = 
REMARK  5 active torsions:
REMARK  status: ('A' for Active; 'I' for Inactive)
REMARK    1  A    between atoms: C_1  and  N_2
REMARK    2  A    between atoms: C_7  and  C_8
REMARK    3  A    between atoms: C_13  and  C_14
REMARK    4  A    between atoms: C_18  and  O_19
REMARK    5  A    between atoms: O_19  and  C_20
REMARK                            x       y       z     vdW  Elec       q    Type
REMARK                         _______ _______ _______ _____ _____    ______ ____
ROOT
ATOM      1  C   UNL     1       0.988   2.580  22.491  0.00  0.00    +0.000 C 
ATOM      2  N   UNL     1       2.243   2.569  21.782  0.00  0.00    +0.000 N 
ATOM      3  C   UNL     1       2.547   3.539  20.848  0.00  0.00    +0.000 A 
ATOM      4  N   UNL     1       2.043   4.738  20.942  0.00  0.00    +0.000 NA
ATOM      5  C   UNL     1       2.350   5.701  19.959  0.00  0.00    +0.000 A 
ATOM      6  C   UNL     1       1.798   6.976  20.136  0.00  0.00    +0.000 A 
ATOM      7  C   UNL     1       2.019   7.998  19.208  0.00  0.00    +0.000 A 
ATOM      8  C   UNL     1       1.450   9.369  19.419  0.00  0.00    +0.000 C 
ATOM      9  C   UNL     1       2.773   7.714  18.066  0.00  0.00    +0.000 A 
ATOM     10  C   UNL     1       3.304   6.434  17.856  0.00  0.00    +0.000 A 
ATOM     11  C   UNL     1       3.145   5.445  18.826  0.00  0.00    +0.000 A 
ATOM     12  N   UNL     1       3.744   4.156  18.767  0.00  0.00    +0.000 N 
ATOM     13  C   UNL     1       4.657   3.523  17.916  0.00  0.00    +0.000 A 
ATOM     14  C   UNL     1       4.735   2.231  18.425  0.00  0.00    +0.000 A 
ATOM     15  N   UNL     1       3.974   2.053  19.539  0.00  0.00    +0.000 NA
ATOM     16  C   UNL     1       3.429   3.234  19.740  0.00  0.00    +0.000 A 
ATOM     17  H   UNL     1       2.570   1.648  21.498  0.00  0.00    +0.000 HD
ENDROOT
BRANCH  13  18
ATOM     18  C   UNL     1       5.420   4.040  16.775  0.00  0.00    +0.000 A 
ATOM     19  C   UNL     1       6.397   5.027  16.980  0.00  0.00    +0.000 A 
ATOM     20  C   UNL     1       7.108   5.569  15.908  0.00  0.00    +0.000 A 
ATOM     21  C   UNL     1       6.872   5.102  14.617  0.00  0.00    +0.000 A 
ATOM     22  C   UNL     1       5.899   4.129  14.387  0.00  0.00    +0.000 A 
ATOM     23  C   UNL     1       5.140   3.651  15.459  0.00  0.00    +0.000 A 
BRANCH  22  24
ATOM     24  O   UNL     1       5.773   3.734  13.084  0.00  0.00    +0.000 OA
ATOM     25  C   UNL     1       6.898   3.954  12.241  0.00  0.00    +0.000 C 
ENDBRANCH  22  24
ENDBRANCH  13  18
TORSDOF 2
ENDMDL
MODEL 6
REMARK VINA RESULT:      -6.8      2.812      6.601
REMARK  Name = 
REMARK  5 active torsions:
REMARK  status: ('A' for Active; 'I' for Inactive)
REMARK    1  A    between atoms: C_1  and  N_2
REMARK    2  A    between atoms: C_7  and  C_8
REMARK    3  A    between atoms: C_13  and  C_14
REMARK    4  A    between atoms: C_18  and  O_19
REMARK    5  A    between atoms: O_19  and  C_20
REMARK                            x       y       z     vdW  Elec       q    Type
REMARK                         _______ _______ _______ _____ _____    ______ ____
ROOT
ATOM      1  C   UNL     1       6.317   3.981  15.852  0.00  0.00    +0.000 C 
ATOM      2  N   UNL     1       5.923   5.227  16.460  0.00  0.00    +0.000 N 
ATOM      3  C   UNL     1       4.909   5.279  17.396  0.00  0.00    +0.000 A 
ATOM      4  N   UNL     1       4.651   4.254  18.159  0.00  0.00    +0.000 NA
ATOM      5  C   UNL     1       3.593   4.326  19.088  0.00  0.00    +0.000 A 
ATOM      6  C   UNL     1       3.388   3.199  19.895  0.00  0.00    +0.000 A 
ATOM      7  C   UNL     1       2.351   3.156  20.831  0.00  0.00    +0.000 A 
ATOM      8  C   UNL     1       2.157   1.959  21.713  0.00  0.00    +0.000 C 
ATOM      9  C   UNL     1       1.485   4.249  20.923  0.00  0.00    +0.000 A 
ATOM     10  C   UNL     1       1.655   5.370  20.099  0.00  0.00    +0.000 A 
ATOM     11  C   UNL     1       2.739   5.437  19.225  0.00  0.00    +0.000 A 
ATOM     12  N   UNL     1       3.069   6.573  18.437  0.00  0.00    +0.000 N 
ATOM     13  C   UNL     1       2.586   7.882  18.330  0.00  0.00    +0.000 A 
ATOM     14  C   UNL     1       3.342   8.426  17.297  0.00  0.00    +0.000 A 
ATOM     15  N   UNL     1       4.270   7.560  16.807  0.00  0.00    +0.000 NA
ATOM     16  C   UNL     1       4.108   6.477  17.539  0.00  0.00    +0.000 A 
ATOM     17  H   UNL     1       5.906   6.028  15.832  0.00  0.00    +0.000 HD
ENDROOT
BRANCH  13  18
ATOM     18  C   UNL     1       1.565   8.594  19.108  0.00  0.00    +0.000 A 
ATOM     19  C   UNL     1       0.689   9.480  18.462  0.00  0.00    +0.000 A 
ATOM     20  C   UNL     1      -0.262  10.203  19.182  0.00  0.00    +0.000 A 
ATOM     21  C   UNL     1      -0.371  10.021  20.559  0.00  0.00    +0.000 A 
ATOM     22  C   UNL     1       0.496   9.154  21.224  0.00  0.00    +0.000 A 
ATOM     23  C   UNL     1       1.496   8.495  20.504  0.00  0.00    +0.000 A 
BRANCH  22  24
ATOM     24  O   UNL     1       0.280   9.041  22.570  0.00  0.00    +0.000 OA
ATOM     25  C   UNL     1      -0.545  10.035  23.168  0.00  0.00    +0.000 C 
ENDBRANCH  22  24
ENDBRANCH  13  18
TORSDOF 2
ENDMDL
MODEL 7
REMARK VINA RESULT:      -6.7      2.070      4.357
REMARK  Name = 
REMARK  5 active torsions:
REMARK  status: ('A' for Active; 'I' for Inactive)
REMARK    1  A    between atoms: C_1  and  N_2
REMARK    2  A    between atoms: C_7  and  C_8
REMARK    3  A    between atoms: C_13  and  C_14
REMARK    4  A    between atoms: C_18  and  O_19
REMARK    5  A    between atoms: O_19  and  C_20
REMARK                            x       y       z     vdW  Elec       q    Type
REMARK                         _______ _______ _______ _____ _____    ______ ____
ROOT
ATOM      1  C   UNL     1       0.586   9.266  21.277  0.00  0.00    +0.000 C 
ATOM      2  N   UNL     1       1.083   8.886  19.979  0.00  0.00    +0.000 N 
ATOM      3  C   UNL     1       1.733   7.684  19.783  0.00  0.00    +0.000 A 
ATOM      4  N   UNL     1       1.465   6.651  20.531  0.00  0.00    +0.000 NA
ATOM      5  C   UNL     1       2.164   5.443  20.326  0.00  0.00    +0.000 A 
ATOM      6  C   UNL     1       1.807   4.365  21.146  0.00  0.00    +0.000 A 
ATOM      7  C   UNL     1       2.453   3.130  21.042  0.00  0.00    +0.000 A 
ATOM      8  C   UNL     1       2.045   1.971  21.902  0.00  0.00    +0.000 C 
ATOM      9  C   UNL     1       3.502   2.997  20.128  0.00  0.00    +0.000 A 
ATOM     10  C   UNL     1       3.894   4.075  19.325  0.00  0.00    +0.000 A 
ATOM     11  C   UNL     1       3.191   5.278  19.378  0.00  0.00    +0.000 A 
ATOM     12  N   UNL     1       3.431   6.389  18.524  0.00  0.00    +0.000 N 
ATOM     13  C   UNL     1       4.248   6.631  17.413  0.00  0.00    +0.000 A 
ATOM     14  C   UNL     1       4.018   7.972  17.125  0.00  0.00    +0.000 A 
ATOM     15  N   UNL     1       3.095   8.541  17.948  0.00  0.00    +0.000 NA
ATOM     16  C   UNL     1       2.734   7.557  18.744  0.00  0.00    +0.000 A 
ATOM     17  H   UNL     1       1.503   9.641  19.440  0.00  0.00    +0.000 HD
ENDROOT
BRANCH  13  18
ATOM     18  C   UNL     1       5.125   5.732  16.656  0.00  0.00    +0.000 A 
ATOM     19  C   UNL     1       6.363   5.349  17.195  0.00  0.00    +0.000 A 
ATOM     20  C   UNL     1       7.238   4.530  16.479  0.00  0.00    +0.000 A 
ATOM     21  C   UNL     1       6.866   4.055  15.224  0.00  0.00    +0.000 A 
ATOM     22  C   UNL     1       5.645   4.430  14.662  0.00  0.00    +0.000 A 
ATOM     23  C   UNL     1       4.813   5.314  15.355  0.00  0.00    +0.000 A 
BRANCH  22  24
ATOM     24  O   UNL     1       5.380   3.885  13.436  0.00  0.00    +0.000 OA
ATOM     25  C   UNL     1       6.500   3.655  12.588  0.00  0.00    +0.000 C 
ENDBRANCH  22  24
ENDBRANCH  13  18
TORSDOF 2
ENDMDL
MODEL 8
REMARK VINA RESULT:      -6.7      4.163      7.029
REMARK  Name = 
REMARK  5 active torsions:
REMARK  status: ('A' for Active; 'I' for Inactive)
REMARK    1  A    between atoms: C_1  and  N_2
REMARK    2  A    between atoms: C_7  and  C_8
REMARK    3  A    between atoms: C_13  and  C_14
REMARK    4  A    between atoms: C_18  and  O_19
REMARK    5  A    between atoms: O_19  and  C_20
REMARK                            x       y       z     vdW  Elec       q    Type
REMARK                         _______ _______ _______ _____ _____    ______ ____
ROOT
ATOM      1  C   UNL     1      -2.466  13.186  23.388  0.00  0.00    +0.000 C 
ATOM      2  N   UNL     1      -1.240  12.486  23.095  0.00  0.00    +0.000 N 
ATOM      3  C   UNL     1      -1.089  11.762  21.930  0.00  0.00    +0.000 A 
ATOM      4  N   UNL     1      -1.741  12.090  20.850  0.00  0.00    +0.000 NA
ATOM      5  C   UNL     1      -1.588  11.316  19.681  0.00  0.00    +0.000 A 
ATOM      6  C   UNL     1      -2.296  11.742  18.550  0.00  0.00    +0.000 A 
ATOM      7  C   UNL     1      -2.234  11.033  17.347  0.00  0.00    +0.000 A 
ATOM      8  C   UNL     1      -2.969  11.511  16.131  0.00  0.00    +0.000 C 
ATOM      9  C   UNL     1      -1.482   9.856  17.300  0.00  0.00    +0.000 A 
ATOM     10  C   UNL     1      -0.796   9.398  18.433  0.00  0.00    +0.000 A 
ATOM     11  C   UNL     1      -0.798  10.154  19.604  0.00  0.00    +0.000 A 
ATOM     12  N   UNL     1      -0.041   9.841  20.766  0.00  0.00    +0.000 N 
ATOM     13  C   UNL     1       0.923   8.881  21.095  0.00  0.00    +0.000 A 
ATOM     14  C   UNL     1       1.182   9.125  22.440  0.00  0.00    +0.000 A 
ATOM     15  N   UNL     1       0.481  10.183  22.930  0.00  0.00    +0.000 NA
ATOM     16  C   UNL     1      -0.207  10.614  21.893  0.00  0.00    +0.000 A 
ATOM     17  H   UNL     1      -0.804  12.026  23.892  0.00  0.00    +0.000 HD
ENDROOT
BRANCH  13  18
ATOM     18  C   UNL     1       1.582   7.862  20.269  0.00  0.00    +0.000 A 
ATOM     19  C   UNL     1       1.577   6.521  20.683  0.00  0.00    +0.000 A 
ATOM     20  C   UNL     1       2.232   5.537  19.941  0.00  0.00    +0.000 A 
ATOM     21  C   UNL     1       2.873   5.880  18.753  0.00  0.00    +0.000 A 
ATOM     22  C   UNL     1       2.900   7.208  18.327  0.00  0.00    +0.000 A 
ATOM     23  C   UNL     1       2.307   8.196  19.118  0.00  0.00    +0.000 A 
BRANCH  22  24
ATOM     24  O   UNL     1       3.539   7.421  17.136  0.00  0.00    +0.000 OA
ATOM     25  C   UNL     1       4.711   6.649  16.897  0.00  0.00    +0.000 C 
ENDBRANCH  22  24
ENDBRANCH  13  18
TORSDOF 2
ENDMDL
MODEL 9
REMARK VINA RESULT:      -6.6      2.850      6.660
REMARK  Name = 
REMARK  5 active torsions:
REMARK  status: ('A' for Active; 'I' for Inactive)
REMARK    1  A    between atoms: C_1  and  N_2
REMARK    2  A    between atoms: C_7  and  C_8
REMARK    3  A    between atoms: C_13  and  C_14
REMARK    4  A    between atoms: C_18  and  O_19
REMARK    5  A    between atoms: O_19  and  C_20
REMARK                            x       y       z     vdW  Elec       q    Type
REMARK                         _______ _______ _______ _____ _____    ______ ____
ROOT
ATOM      1  C   UNL     1       5.997   3.805  15.742  0.00  0.00    +0.000 C 
ATOM      2  N   UNL     1       5.686   5.053  16.394  0.00  0.00    +0.000 N 
ATOM      3  C   UNL     1       4.726   5.125  17.384  0.00  0.00    +0.000 A 
ATOM      4  N   UNL     1       4.467   4.095  18.139  0.00  0.00    +0.000 NA
ATOM      5  C   UNL     1       3.462   4.190  19.124  0.00  0.00    +0.000 A 
ATOM      6  C   UNL     1       3.255   3.055  19.919  0.00  0.00    +0.000 A 
ATOM      7  C   UNL     1       2.267   3.034  20.908  0.00  0.00    +0.000 A 
ATOM      8  C   UNL     1       2.071   1.827  21.776  0.00  0.00    +0.000 C 
ATOM      9  C   UNL     1       1.453   4.158  21.067  0.00  0.00    +0.000 A 
ATOM     10  C   UNL     1       1.624   5.288  20.257  0.00  0.00    +0.000 A 
ATOM     11  C   UNL     1       2.663   5.330  19.328  0.00  0.00    +0.000 A 
ATOM     12  N   UNL     1       2.997   6.469  18.545  0.00  0.00    +0.000 N 
ATOM     13  C   UNL     1       2.563   7.799  18.488  0.00  0.00    +0.000 A 
ATOM     14  C   UNL     1       3.286   8.333  17.427  0.00  0.00    +0.000 A 
ATOM     15  N   UNL     1       4.151   7.442  16.872  0.00  0.00    +0.000 NA
ATOM     16  C   UNL     1       3.983   6.351  17.591  0.00  0.00    +0.000 A 
ATOM     17  H   UNL     1       5.669   5.867  15.783  0.00  0.00    +0.000 HD
ENDROOT
BRANCH  13  18
ATOM     18  C   UNL     1       1.614   8.533  19.333  0.00  0.00    +0.000 A 
ATOM     19  C   UNL     1       1.603   8.314  20.720  0.00  0.00    +0.000 A 
ATOM     20  C   UNL     1       0.683   8.965  21.543  0.00  0.00    +0.000 A 
ATOM     21  C   UNL     1      -0.217   9.873  20.990  0.00  0.00    +0.000 A 
ATOM     22  C   UNL     1      -0.232  10.098  19.613  0.00  0.00    +0.000 A 
ATOM     23  C   UNL     1       0.641   9.382  18.790  0.00  0.00    +0.000 A 
BRANCH  22  24
ATOM     24  O   UNL     1      -1.143  11.025  19.189  0.00  0.00    +0.000 OA
ATOM     25  C   UNL     1      -1.535  12.013  20.137  0.00  0.00    +0.000 C 
ENDBRANCH  22  24
ENDBRANCH  13  18
TORSDOF 2
ENDMDL
