MODEL 1
REMARK VINA RESULT:      -8.2      0.000      0.000
REMARK  Name = 
REMARK  6 active torsions:
REMARK  status: ('A' for Active; 'I' for Inactive)
REMARK    1  A    between atoms: C_1  and  O_2
REMARK    2  A    between atoms: O_2  and  C_3
REMARK    3  A    between atoms: C_7  and  N_8
REMARK    4  A    between atoms: C_9  and  C_11
REMARK    5  A    between atoms: C_11  and  C_12
REMARK    6  A    between atoms: C_12  and  N_13
REMARK                            x       y       z     vdW  Elec       q    Type
REMARK                         _______ _______ _______ _____ _____    ______ ____
ROOT
ATOM      1  C   UNL     1       3.675   4.069  19.769  0.00  0.00    +0.000 C 
ENDROOT
BRANCH   1   3
ATOM      2  N   UNL     1       2.830   6.337  20.069  0.00  0.00    +0.000 N 
ATOM      3  C   UNL     1       2.541   5.070  19.599  0.00  0.00    +0.000 C 
ATOM      4  O   UNL     1       1.463   4.689  19.154  0.00  0.00    +0.000 OA
ATOM      5  H   UNL     1       3.747   6.446  20.507  0.00  0.00    +0.000 HD
BRANCH   2  10
ATOM      6  C   UNL     1       0.324   8.837  21.123  0.00  0.00    +0.000 A 
ATOM      7  C   UNL     1       0.334   9.705  20.026  0.00  0.00    +0.000 A 
ATOM      8  C   UNL     1       1.186   9.475  18.948  0.00  0.00    +0.000 A 
ATOM      9  C   UNL     1       2.022   8.362  18.946  0.00  0.00    +0.000 A 
ATOM     10  C   UNL     1       2.016   7.479  20.024  0.00  0.00    +0.000 A 
ATOM     11  C   UNL     1       1.182   7.734  21.127  0.00  0.00    +0.000 A 
BRANCH   6  13
ATOM     12  C   UNL     1      -0.037   9.578  23.356  0.00  0.00    +0.000 C 
ATOM     13  O   UNL     1      -0.568   9.179  22.100  0.00  0.00    +0.000 OA
ENDBRANCH   6  13
ENDBRANCH   2  10
ENDBRANCH   1   3
BRANCH   1  14
ATOM     14  C   UNL     1       5.029   4.554  19.250  0.00  0.00    +0.000 C 
BRANCH  14  15
ATOM     15  N   UNL     1       4.931   5.627  18.234  0.00  0.00    +0.000 NA
ATOM     16  C   UNL     1       6.250   6.053  17.696  0.00  0.00    +0.000 C 
ATOM     17  C   UNL     1       6.990   4.977  16.886  0.00  0.00    +0.000 C 
ATOM     18  N   UNL     1       6.126   4.441  15.831  0.00  0.00    +0.000 N 
ATOM     19  C   UNL     1       6.566   4.483  14.525  0.00  0.00    +0.000 A 
ATOM     20  C   UNL     1       6.047   3.621  13.557  0.00  0.00    +0.000 A 
ATOM     21  C   UNL     1       6.532   3.665  12.251  0.00  0.00    +0.000 A 
ATOM     22  C   UNL     1       7.527   4.570  11.927  0.00  0.00    +0.000 A 
ATOM     23  C   UNL     1       7.996   5.393  12.932  0.00  0.00    +0.000 A 
ATOM     24  N   UNL     1       7.542   5.359  14.204  0.00  0.00    +0.000 NA
ATOM     25  C   UNL     1       4.752   4.089  16.189  0.00  0.00    +0.000 C 
ATOM     26  C   UNL     1       4.106   5.175  17.085  0.00  0.00    +0.000 C 
ENDBRANCH  14  15
ENDBRANCH   1  14
TORSDOF 5
ENDMDL
MODEL 2
REMARK VINA RESULT:      -8.2      5.971      7.962
REMARK  Name = 
REMARK  6 active torsions:
REMARK  status: ('A' for Active; 'I' for Inactive)
REMARK    1  A    between atoms: C_1  and  O_2
REMARK    2  A    between atoms: O_2  and  C_3
REMARK    3  A    between atoms: C_7  and  N_8
REMARK    4  A    between atoms: C_9  and  C_11
REMARK    5  A    between atoms: C_11  and  C_12
REMARK    6  A    between atoms: C_12  and  N_13
REMARK                            x       y       z     vdW  Elec       q    Type
REMARK                         _______ _______ _______ _____ _____    ______ ____
ROOT
ATOM      1  C   UNL     1       8.453   8.000  18.425  0.00  0.00    +0.000 C 
ENDROOT
BRANCH   1   3
ATOM      2  N   UNL     1       9.367   9.869  19.698  0.00  0.00    +0.000 N 
ATOM      3  C   UNL     1       8.656   9.501  18.571  0.00  0.00    +0.000 C 
ATOM      4  O   UNL     1       8.131  10.262  17.764  0.00  0.00    +0.000 OA
ATOM      5  H   UNL     1       9.638   9.102  20.317  0.00  0.00    +0.000 HD
BRANCH   2  10
ATOM      6  C   UNL     1      11.275  13.030  19.793  0.00  0.00    +0.000 A 
ATOM      7  C   UNL     1      10.612  13.712  20.818  0.00  0.00    +0.000 A 
ATOM      8  C   UNL     1       9.520  13.135  21.464  0.00  0.00    +0.000 A 
ATOM      9  C   UNL     1       9.093  11.860  21.103  0.00  0.00    +0.000 A 
ATOM     10  C   UNL     1       9.749  11.160  20.093  0.00  0.00    +0.000 A 
ATOM     11  C   UNL     1      10.827  11.760  19.419  0.00  0.00    +0.000 A 
BRANCH   6  13
ATOM     12  C   UNL     1      12.042  14.737  18.322  0.00  0.00    +0.000 C 
ATOM     13  O   UNL     1      12.333  13.710  19.259  0.00  0.00    +0.000 OA
ENDBRANCH   6  13
ENDBRANCH   2  10
ENDBRANCH   1   3
BRANCH   1  14
ATOM     14  C   UNL     1       7.352   7.604  17.441  0.00  0.00    +0.000 C 
BRANCH  14  15
ATOM     15  N   UNL     1       7.366   6.168  17.074  0.00  0.00    +0.000 NA
ATOM     16  C   UNL     1       7.258   5.258  18.246  0.00  0.00    +0.000 C 
ATOM     17  C   UNL     1       5.919   5.336  18.997  0.00  0.00    +0.000 C 
ATOM     18  N   UNL     1       4.798   5.156  18.071  0.00  0.00    +0.000 N 
ATOM     19  C   UNL     1       3.882   4.157  18.321  0.00  0.00    +0.000 A 
ATOM     20  C   UNL     1       2.593   4.204  17.786  0.00  0.00    +0.000 A 
ATOM     21  C   UNL     1       1.678   3.195  18.081  0.00  0.00    +0.000 A 
ATOM     22  C   UNL     1       2.060   2.151  18.903  0.00  0.00    +0.000 A 
ATOM     23  C   UNL     1       3.349   2.165  19.398  0.00  0.00    +0.000 A 
ATOM     24  N   UNL     1       4.247   3.138  19.129  0.00  0.00    +0.000 NA
ATOM     25  C   UNL     1       4.829   5.901  16.812  0.00  0.00    +0.000 C 
ATOM     26  C   UNL     1       6.234   5.858  16.164  0.00  0.00    +0.000 C 
ENDBRANCH  14  15
ENDBRANCH   1  14
TORSDOF 5
ENDMDL
MODEL 3
REMARK VINA RESULT:      -8.1      5.949      7.981
REMARK  Name = 
REMARK  6 active torsions:
REMARK  status: ('A' for Active; 'I' for Inactive)
REMARK    1  A    between atoms: C_1  and  O_2
REMARK    2  A    between atoms: O_2  and  C_3
REMARK    3  A    between atoms: C_7  and  N_8
REMARK    4  A    between atoms: C_9  and  C_11
REMARK    5  A    between atoms: C_11  and  C_12
REMARK    6  A    between atoms: C_12  and  N_13
REMARK                            x       y       z     vdW  Elec       q    Type
REMARK                         _______ _______ _______ _____ _____    ______ ____
ROOT
ATOM      1  C   UNL     1       7.887   8.683  17.652  0.00  0.00    +0.000 C 
ENDROOT
BRANCH   1   3
ATOM      2  N   UNL     1       9.169  10.756  17.642  0.00  0.00    +0.000 N 
ATOM      3  C   UNL     1       8.759   9.678  18.403  0.00  0.00    +0.000 C 
ATOM      4  O   UNL     1       9.097   9.434  19.557  0.00  0.00    +0.000 OA
ATOM      5  H   UNL     1       8.876  10.743  16.663  0.00  0.00    +0.000 HD
BRANCH   2  10
ATOM      6  C   UNL     1       9.995  14.200  18.691  0.00  0.00    +0.000 A 
ATOM      7  C   UNL     1      11.384  14.111  18.837  0.00  0.00    +0.000 A 
ATOM      8  C   UNL     1      12.044  12.904  18.610  0.00  0.00    +0.000 A 
ATOM      9  C   UNL     1      11.323  11.781  18.213  0.00  0.00    +0.000 A 
ATOM     10  C   UNL     1       9.942  11.855  18.050  0.00  0.00    +0.000 A 
ATOM     11  C   UNL     1       9.274  13.064  18.316  0.00  0.00    +0.000 A 
BRANCH   6  13
ATOM     12  C   UNL     1       9.187  16.258  17.809  0.00  0.00    +0.000 C 
ATOM     13  O   UNL     1       9.485  15.444  18.935  0.00  0.00    +0.000 OA
ENDBRANCH   6  13
ENDBRANCH   2  10
ENDBRANCH   1   3
BRANCH   1  14
ATOM     14  C   UNL     1       7.894   7.269  18.235  0.00  0.00    +0.000 C 
BRANCH  14  15
ATOM     15  N   UNL     1       7.526   6.217  17.260  0.00  0.00    +0.000 NA
ATOM     16  C   UNL     1       7.358   4.873  17.875  0.00  0.00    +0.000 C 
ATOM     17  C   UNL     1       6.180   4.761  18.857  0.00  0.00    +0.000 C 
ATOM     18  N   UNL     1       4.940   5.224  18.228  0.00  0.00    +0.000 N 
ATOM     19  C   UNL     1       3.855   4.375  18.191  0.00  0.00    +0.000 A 
ATOM     20  C   UNL     1       2.555   4.865  18.041  0.00  0.00    +0.000 A 
ATOM     21  C   UNL     1       1.475   3.985  18.038  0.00  0.00    +0.000 A 
ATOM     22  C   UNL     1       1.704   2.628  18.182  0.00  0.00    +0.000 A 
ATOM     23  C   UNL     1       3.012   2.211  18.326  0.00  0.00    +0.000 A 
ATOM     24  N   UNL     1       4.071   3.050  18.339  0.00  0.00    +0.000 NA
ATOM     25  C   UNL     1       4.985   6.480  17.478  0.00  0.00    +0.000 C 
ATOM     26  C   UNL     1       6.248   6.562  16.587  0.00  0.00    +0.000 C 
ENDBRANCH  14  15
ENDBRANCH   1  14
TORSDOF 5
ENDMDL
MODEL 4
REMARK VINA RESULT:      -8.1      5.519      7.382
REMARK  Name = 
REMARK  6 active torsions:
REMARK  status: ('A' for Active; 'I' for Inactive)
REMARK    1  A    between atoms: C_1  and  O_2
REMARK    2  A    between atoms: O_2  and  C_3
REMARK    3  A    between atoms: C_7  and  N_8
REMARK    4  A    between atoms: C_9  and  C_11
REMARK    5  A    between atoms: C_11  and  C_12
REMARK    6  A    between atoms: C_12  and  N_13
REMARK                            x       y       z     vdW  Elec       q    Type
REMARK                         _______ _______ _______ _____ _____    ______ ____
ROOT
ATOM      1  C   UNL     1       8.370   7.931  18.438  0.00  0.00    +0.000 C 
ENDROOT
BRANCH   1   3
ATOM      2  N   UNL     1       9.444   9.795  19.587  0.00  0.00    +0.000 N 
ATOM      3  C   UNL     1       8.633   9.428  18.531  0.00  0.00    +0.000 C 
ATOM      4  O   UNL     1       8.069  10.189  17.751  0.00  0.00    +0.000 OA
ATOM      5  H   UNL     1       9.741   9.033  20.201  0.00  0.00    +0.000 HD
BRANCH   2  10
ATOM      6  C   UNL     1       9.555  13.105  21.222  0.00  0.00    +0.000 A 
ATOM      7  C   UNL     1      10.695  13.658  20.631  0.00  0.00    +0.000 A 
ATOM      8  C   UNL     1      11.441  12.927  19.708  0.00  0.00    +0.000 A 
ATOM      9  C   UNL     1      11.040  11.643  19.351  0.00  0.00    +0.000 A 
ATOM     10  C   UNL     1       9.899  11.081  19.919  0.00  0.00    +0.000 A 
ATOM     11  C   UNL     1       9.170  11.807  20.878  0.00  0.00    +0.000 A 
BRANCH   6  13
ATOM     12  C   UNL     1       7.559  13.651  22.399  0.00  0.00    +0.000 C 
ATOM     13  O   UNL     1       8.917  13.938  22.097  0.00  0.00    +0.000 OA
ENDBRANCH   6  13
ENDBRANCH   2  10
ENDBRANCH   1   3
BRANCH   1  14
ATOM     14  C   UNL     1       7.406   7.527  17.322  0.00  0.00    +0.000 C 
BRANCH  14  15
ATOM     15  N   UNL     1       7.433   6.080  17.004  0.00  0.00    +0.000 NA
ATOM     16  C   UNL     1       7.321   5.209  18.204  0.00  0.00    +0.000 C 
ATOM     17  C   UNL     1       5.974   5.303  18.940  0.00  0.00    +0.000 C 
ATOM     18  N   UNL     1       4.863   5.084  18.010  0.00  0.00    +0.000 N 
ATOM     19  C   UNL     1       3.951   4.088  18.285  0.00  0.00    +0.000 A 
ATOM     20  C   UNL     1       2.667   4.108  17.737  0.00  0.00    +0.000 A 
ATOM     21  C   UNL     1       1.756   3.104  18.058  0.00  0.00    +0.000 A 
ATOM     22  C   UNL     1       2.137   2.090  18.919  0.00  0.00    +0.000 A 
ATOM     23  C   UNL     1       3.422   2.129  19.424  0.00  0.00    +0.000 A 
ATOM     24  N   UNL     1       4.315   3.100  19.131  0.00  0.00    +0.000 NA
ATOM     25  C   UNL     1       4.900   5.786  16.727  0.00  0.00    +0.000 C 
ATOM     26  C   UNL     1       6.312   5.732  16.094  0.00  0.00    +0.000 C 
ENDBRANCH  14  15
ENDBRANCH   1  14
TORSDOF 5
ENDMDL
MODEL 5
REMARK VINA RESULT:      -7.9      5.318      8.018
REMARK  Name = 
REMARK  6 active torsions:
REMARK  status: ('A' for Active; 'I' for Inactive)
REMARK    1  A    between atoms: C_1  and  O_2
REMARK    2  A    between atoms: O_2  and  C_3
REMARK    3  A    between atoms: C_7  and  N_8
REMARK    4  A    between atoms: C_9  and  C_11
REMARK    5  A    between atoms: C_11  and  C_12
REMARK    6  A    between atoms: C_12  and  N_13
REMARK                            x       y       z     vdW  Elec       q    Type
REMARK                         _______ _______ _______ _____ _____    ______ ____
ROOT
ATOM      1  C   UNL     1       7.046   7.719  17.136  0.00  0.00    +0.000 C 
ENDROOT
BRANCH   1   3
ATOM      2  N   UNL     1       8.300   9.700  17.808  0.00  0.00    +0.000 N 
ATOM      3  C   UNL     1       8.053   8.367  18.076  0.00  0.00    +0.000 C 
ATOM      4  O   UNL     1       8.619   7.680  18.920  0.00  0.00    +0.000 OA
ATOM      5  H   UNL     1       7.814  10.084  16.995  0.00  0.00    +0.000 HD
BRANCH   2  10
ATOM      6  C   UNL     1      10.621  12.507  18.425  0.00  0.00    +0.000 A 
ATOM      7  C   UNL     1      10.853  12.366  19.797  0.00  0.00    +0.000 A 
ATOM      8  C   UNL     1      10.224  11.355  20.523  0.00  0.00    +0.000 A 
ATOM      9  C   UNL     1       9.373  10.462  19.877  0.00  0.00    +0.000 A 
ATOM     10  C   UNL     1       9.140  10.579  18.509  0.00  0.00    +0.000 A 
ATOM     11  C   UNL     1       9.747  11.622  17.787  0.00  0.00    +0.000 A 
BRANCH   6  13
ATOM     12  C   UNL     1      12.333  14.150  18.610  0.00  0.00    +0.000 C 
ATOM     13  O   UNL     1      11.311  13.531  17.841  0.00  0.00    +0.000 OA
ENDBRANCH   6  13
ENDBRANCH   2  10
ENDBRANCH   1   3
BRANCH   1  14
ATOM     14  C   UNL     1       7.167   6.199  17.031  0.00  0.00    +0.000 C 
BRANCH  14  15
ATOM     15  N   UNL     1       5.997   5.548  16.397  0.00  0.00    +0.000 NA
ATOM     16  C   UNL     1       5.792   4.142  16.837  0.00  0.00    +0.000 C 
ATOM     17  C   UNL     1       5.424   3.982  18.321  0.00  0.00    +0.000 C 
ATOM     18  N   UNL     1       4.275   4.825  18.660  0.00  0.00    +0.000 N 
ATOM     19  C   UNL     1       3.161   4.238  19.222  0.00  0.00    +0.000 A 
ATOM     20  C   UNL     1       2.247   4.983  19.970  0.00  0.00    +0.000 A 
ATOM     21  C   UNL     1       1.147   4.357  20.552  0.00  0.00    +0.000 A 
ATOM     22  C   UNL     1       0.971   2.995  20.379  0.00  0.00    +0.000 A 
ATOM     23  C   UNL     1       1.911   2.318  19.627  0.00  0.00    +0.000 A 
ATOM     24  N   UNL     1       2.987   2.908  19.062  0.00  0.00    +0.000 NA
ATOM     25  C   UNL     1       4.281   6.209  18.184  0.00  0.00    +0.000 C 
ATOM     26  C   UNL     1       4.756   6.299  16.713  0.00  0.00    +0.000 C 
ENDBRANCH  14  15
ENDBRANCH   1  14
TORSDOF 5
ENDMDL
MODEL 6
REMARK VINA RESULT:      -7.8      5.217      7.565
REMARK  Name = 
REMARK  6 active torsions:
REMARK  status: ('A' for Active; 'I' for Inactive)
REMARK    1  A    between atoms: C_1  and  O_2
REMARK    2  A    between atoms: O_2  and  C_3
REMARK    3  A    between atoms: C_7  and  N_8
REMARK    4  A    between atoms: C_9  and  C_11
REMARK    5  A    between atoms: C_11  and  C_12
REMARK    6  A    between atoms: C_12  and  N_13
REMARK                            x       y       z     vdW  Elec       q    Type
REMARK                         _______ _______ _______ _____ _____    ______ ____
ROOT
ATOM      1  C   UNL     1       7.230   8.108  17.256  0.00  0.00    +0.000 C 
ENDROOT
BRANCH   1   3
ATOM      2  N   UNL     1       8.630   9.948  18.031  0.00  0.00    +0.000 N 
ATOM      3  C   UNL     1       8.282   8.625  18.227  0.00  0.00    +0.000 C 
ATOM      4  O   UNL     1       8.793   7.852  19.031  0.00  0.00    +0.000 OA
ATOM      5  H   UNL     1       8.174  10.411  17.242  0.00  0.00    +0.000 HD
BRANCH   2  10
ATOM      6  C   UNL     1       9.971  11.954  20.828  0.00  0.00    +0.000 A 
ATOM      7  C   UNL     1      11.235  12.291  20.333  0.00  0.00    +0.000 A 
ATOM      8  C   UNL     1      11.653  11.836  19.084  0.00  0.00    +0.000 A 
ATOM      9  C   UNL     1      10.800  11.057  18.307  0.00  0.00    +0.000 A 
ATOM     10  C   UNL     1       9.532  10.722  18.777  0.00  0.00    +0.000 A 
ATOM     11  C   UNL     1       9.128  11.151  20.054  0.00  0.00    +0.000 A 
BRANCH   6  13
ATOM     12  C   UNL     1       9.394  13.866  22.123  0.00  0.00    +0.000 C 
ATOM     13  O   UNL     1       9.692  12.478  22.058  0.00  0.00    +0.000 OA
ENDBRANCH   6  13
ENDBRANCH   2  10
ENDBRANCH   1   3
BRANCH   1  14
ATOM     14  C   UNL     1       7.233   6.589  17.071  0.00  0.00    +0.000 C 
BRANCH  14  15
ATOM     15  N   UNL     1       6.105   6.084  16.255  0.00  0.00    +0.000 NA
ATOM     16  C   UNL     1       5.903   4.615  16.372  0.00  0.00    +0.000 C 
ATOM     17  C   UNL     1       5.468   4.137  17.766  0.00  0.00    +0.000 C 
ATOM     18  N   UNL     1       4.290   4.880  18.221  0.00  0.00    +0.000 N 
ATOM     19  C   UNL     1       3.161   4.179  18.587  0.00  0.00    +0.000 A 
ATOM     20  C   UNL     1       2.201   4.740  19.432  0.00  0.00    +0.000 A 
ATOM     21  C   UNL     1       1.085   3.996  19.810  0.00  0.00    +0.000 A 
ATOM     22  C   UNL     1       0.939   2.703  19.339  0.00  0.00    +0.000 A 
ATOM     23  C   UNL     1       1.925   2.210  18.508  0.00  0.00    +0.000 A 
ATOM     24  N   UNL     1       3.017   2.914  18.137  0.00  0.00    +0.000 NA
ATOM     25  C   UNL     1       4.296   6.334  18.055  0.00  0.00    +0.000 C 
ATOM     26  C   UNL     1       4.838   6.742  16.664  0.00  0.00    +0.000 C 
ENDBRANCH  14  15
ENDBRANCH   1  14
TORSDOF 5
ENDMDL
MODEL 7
REMARK VINA RESULT:      -7.8      1.089      1.729
REMARK  Name = 
REMARK  6 active torsions:
REMARK  status: ('A' for Active; 'I' for Inactive)
REMARK    1  A    between atoms: C_1  and  O_2
REMARK    2  A    between atoms: O_2  and  C_3
REMARK    3  A    between atoms: C_7  and  N_8
REMARK    4  A    between atoms: C_9  and  C_11
REMARK    5  A    between atoms: C_11  and  C_12
REMARK    6  A    between atoms: C_12  and  N_13
REMARK                            x       y       z     vdW  Elec       q    Type
REMARK                         _______ _______ _______ _____ _____    ______ ____
ROOT
ATOM      1  C   UNL     1       3.433   4.386  19.586  0.00  0.00    +0.000 C 
ENDROOT
BRANCH   1   3
ATOM      2  N   UNL     1       2.669   6.681  19.899  0.00  0.00    +0.000 N 
ATOM      3  C   UNL     1       2.373   5.347  20.104  0.00  0.00    +0.000 C 
ATOM      4  O   UNL     1       1.406   4.905  20.717  0.00  0.00    +0.000 OA
ATOM      5  H   UNL     1       3.574   6.869  19.462  0.00  0.00    +0.000 HD
BRANCH   2  10
ATOM      6  C   UNL     1       0.723   9.786  19.441  0.00  0.00    +0.000 A 
ATOM      7  C   UNL     1       0.349  10.065  20.760  0.00  0.00    +0.000 A 
ATOM      8  C   UNL     1       0.722   9.213  21.798  0.00  0.00    +0.000 A 
ATOM      9  C   UNL     1       1.492   8.085  21.529  0.00  0.00    +0.000 A 
ATOM     10  C   UNL     1       1.885   7.798  20.224  0.00  0.00    +0.000 A 
ATOM     11  C   UNL     1       1.475   8.640  19.174  0.00  0.00    +0.000 A 
BRANCH   6  13
ATOM     12  C   UNL     1      -1.061  10.649  18.121  0.00  0.00    +0.000 C 
ATOM     13  O   UNL     1       0.299  10.712  18.530  0.00  0.00    +0.000 OA
ENDBRANCH   6  13
ENDBRANCH   2  10
ENDBRANCH   1   3
BRANCH   1  14
ATOM     14  C   UNL     1       4.789   5.034  19.303  0.00  0.00    +0.000 C 
BRANCH  14  15
ATOM     15  N   UNL     1       4.757   6.037  18.213  0.00  0.00    +0.000 NA
ATOM     16  C   UNL     1       6.105   6.384  17.689  0.00  0.00    +0.000 C 
ATOM     17  C   UNL     1       6.832   5.231  16.979  0.00  0.00    +0.000 C 
ATOM     18  N   UNL     1       5.982   4.651  15.936  0.00  0.00    +0.000 N 
ATOM     19  C   UNL     1       6.461   4.589  14.644  0.00  0.00    +0.000 A 
ATOM     20  C   UNL     1       5.942   3.679  13.721  0.00  0.00    +0.000 A 
ATOM     21  C   UNL     1       6.467   3.618  12.432  0.00  0.00    +0.000 A 
ATOM     22  C   UNL     1       7.501   4.466  12.078  0.00  0.00    +0.000 A 
ATOM     23  C   UNL     1       7.967   5.341  13.039  0.00  0.00    +0.000 A 
ATOM     24  N   UNL     1       7.475   5.409  14.296  0.00  0.00    +0.000 NA
ATOM     25  C   UNL     1       4.586   4.369  16.273  0.00  0.00    +0.000 C 
ATOM     26  C   UNL     1       3.952   5.533  17.072  0.00  0.00    +0.000 C 
ENDBRANCH  14  15
ENDBRANCH   1  14
TORSDOF 5
ENDMDL
MODEL 8
REMARK VINA RESULT:      -7.6      6.937      9.314
REMARK  Name = 
REMARK  6 active torsions:
REMARK  status: ('A' for Active; 'I' for Inactive)
REMARK    1  A    between atoms: C_1  and  O_2
REMARK    2  A    between atoms: O_2  and  C_3
REMARK    3  A    between atoms: C_7  and  N_8
REMARK    4  A    between atoms: C_9  and  C_11
REMARK    5  A    between atoms: C_11  and  C_12
REMARK    6  A    between atoms: C_12  and  N_13
REMARK                            x       y       z     vdW  Elec       q    Type
REMARK                         _______ _______ _______ _____ _____    ______ ____
ROOT
ATOM      1  C   UNL     1       8.431   9.445  17.842  0.00  0.00    +0.000 C 
ENDROOT
BRANCH   1   3
ATOM      2  N   UNL     1       6.932   7.703  17.027  0.00  0.00    +0.000 N 
ATOM      3  C   UNL     1       7.938   8.007  17.923  0.00  0.00    +0.000 C 
ATOM      4  O   UNL     1       8.385   7.265  18.792  0.00  0.00    +0.000 OA
ATOM      5  H   UNL     1       6.609   8.480  16.446  0.00  0.00    +0.000 HD
BRANCH   2  10
ATOM      6  C   UNL     1       4.312   5.102  17.158  0.00  0.00    +0.000 A 
ATOM      7  C   UNL     1       4.956   4.040  16.515  0.00  0.00    +0.000 A 
ATOM      8  C   UNL     1       6.250   4.192  16.018  0.00  0.00    +0.000 A 
ATOM      9  C   UNL     1       6.919   5.402  16.180  0.00  0.00    +0.000 A 
ATOM     10  C   UNL     1       6.299   6.466  16.829  0.00  0.00    +0.000 A 
ATOM     11  C   UNL     1       4.980   6.322  17.296  0.00  0.00    +0.000 A 
BRANCH   6  13
ATOM     12  C   UNL     1       2.565   3.497  17.358  0.00  0.00    +0.000 C 
ATOM     13  O   UNL     1       3.054   4.809  17.603  0.00  0.00    +0.000 OA
ENDBRANCH   6  13
ENDBRANCH   2  10
ENDBRANCH   1   3
BRANCH   1  14
ATOM     14  C   UNL     1       8.919  10.022  19.172  0.00  0.00    +0.000 C 
BRANCH  14  15
ATOM     15  N   UNL     1      10.197  10.765  19.068  0.00  0.00    +0.000 NA
ATOM     16  C   UNL     1      10.325  11.546  17.809  0.00  0.00    +0.000 C 
ATOM     17  C   UNL     1       9.323  12.703  17.668  0.00  0.00    +0.000 C 
ATOM     18  N   UNL     1       9.370  13.571  18.848  0.00  0.00    +0.000 N 
ATOM     19  C   UNL     1       9.615  14.917  18.675  0.00  0.00    +0.000 A 
ATOM     20  C   UNL     1       9.235  15.853  19.639  0.00  0.00    +0.000 A 
ATOM     21  C   UNL     1       9.467  17.210  19.423  0.00  0.00    +0.000 A 
ATOM     22  C   UNL     1      10.077  17.617  18.249  0.00  0.00    +0.000 A 
ATOM     23  C   UNL     1      10.427  16.640  17.338  0.00  0.00    +0.000 A 
ATOM     24  N   UNL     1      10.203  15.320  17.528  0.00  0.00    +0.000 NA
ATOM     25  C   UNL     1       9.374  12.932  20.164  0.00  0.00    +0.000 C 
ATOM     26  C   UNL     1      10.332  11.717  20.199  0.00  0.00    +0.000 C 
ENDBRANCH  14  15
ENDBRANCH   1  14
TORSDOF 5
ENDMDL
MODEL 9
REMARK VINA RESULT:      -7.5      5.504      8.018
REMARK  Name = 
REMARK  6 active torsions:
REMARK  status: ('A' for Active; 'I' for Inactive)
REMARK    1  A    between atoms: C_1  and  O_2
REMARK    2  A    between atoms: O_2  and  C_3
REMARK    3  A    between atoms: C_7  and  N_8
REMARK    4  A    between atoms: C_9  and  C_11
REMARK    5  A    between atoms: C_11  and  C_12
REMARK    6  A    between atoms: C_12  and  N_13
REMARK                            x       y       z     vdW  Elec       q    Type
REMARK                         _______ _______ _______ _____ _____    ______ ____
ROOT
ATOM      1  C   UNL     1       8.130   7.610  17.574  0.00  0.00    +0.000 C 
ENDROOT
BRANCH   1   3
ATOM      2  N   UNL     1       9.209   9.286  18.979  0.00  0.00    +0.000 N 
ATOM      3  C   UNL     1       8.242   9.062  18.019  0.00  0.00    +0.000 C 
ATOM      4  O   UNL     1       7.449   9.890  17.581  0.00  0.00    +0.000 OA
ATOM      5  H   UNL     1       9.707   8.455  19.306  0.00  0.00    +0.000 HD
BRANCH   2  10
ATOM      6  C   UNL     1      10.833  12.582  19.353  0.00  0.00    +0.000 A 
ATOM      7  C   UNL     1      10.404  12.950  20.632  0.00  0.00    +0.000 A 
ATOM      8  C   UNL     1       9.558  12.116  21.362  0.00  0.00    +0.000 A 
ATOM      9  C   UNL     1       9.152  10.897  20.828  0.00  0.00    +0.000 A 
ATOM     10  C   UNL     1       9.580  10.508  19.561  0.00  0.00    +0.000 A 
ATOM     11  C   UNL     1      10.403  11.368  18.811  0.00  0.00    +0.000 A 
BRANCH   6  13
ATOM     12  C   UNL     1      12.059  13.231  17.418  0.00  0.00    +0.000 C 
ATOM     13  O   UNL     1      11.666  13.488  18.759  0.00  0.00    +0.000 OA
ENDBRANCH   6  13
ENDBRANCH   2  10
ENDBRANCH   1   3
BRANCH   1  14
ATOM     14  C   UNL     1       6.981   6.837  18.223  0.00  0.00    +0.000 C 
BRANCH  14  15
ATOM     15  N   UNL     1       6.056   6.212  17.249  0.00  0.00    +0.000 NA
ATOM     16  C   UNL     1       5.977   4.732  17.376  0.00  0.00    +0.000 C 
ATOM     17  C   UNL     1       5.365   4.233  18.695  0.00  0.00    +0.000 C 
ATOM     18  N   UNL     1       4.063   4.864  18.929  0.00  0.00    +0.000 N 
ATOM     19  C   UNL     1       2.960   4.060  19.127  0.00  0.00    +0.000 A 
ATOM     20  C   UNL     1       1.825   4.536  19.787  0.00  0.00    +0.000 A 
ATOM     21  C   UNL     1       0.737   3.692  20.000  0.00  0.00    +0.000 A 
ATOM     22  C   UNL     1       0.794   2.385  19.551  0.00  0.00    +0.000 A 
ATOM     23  C   UNL     1       1.945   1.979  18.906  0.00  0.00    +0.000 A 
ATOM     24  N   UNL     1       3.012   2.781  18.697  0.00  0.00    +0.000 NA
ATOM     25  C   UNL     1       3.959   6.309  18.722  0.00  0.00    +0.000 C 
ATOM     26  C   UNL     1       4.683   6.748  17.426  0.00  0.00    +0.000 C 
ENDBRANCH  14  15
ENDBRANCH   1  14
TORSDOF 5
ENDMDL
