MODEL 1
REMARK VINA RESULT:      -7.2      0.000      0.000
REMARK  Name = 
REMARK  11 active torsions:
REMARK  status: ('A' for Active; 'I' for Inactive)
REMARK    1  A    between atoms: C_1  and  O_2
REMARK    2  A    between atoms: O_2  and  C_3
REMARK    3  A    between atoms: C_6  and  C_7
REMARK    4  A    between atoms: C_7  and  C_8
REMARK    5  A    between atoms: C_8  and  N_9
REMARK    6  A    between atoms: N_9  and  C_10
REMARK    7  A    between atoms: C_10  and  C_11
REMARK    8  A    between atoms: N_13  and  C_14
REMARK    9  A    between atoms: C_17  and  C_18
REMARK   10  A    between atoms: C_23  and  O_24
REMARK   11  A    between atoms: O_24  and  C_25
REMARK                            x       y       z     vdW  Elec       q    Type
REMARK                         _______ _______ _______ _____ _____    ______ ____
ROOT
ATOM      1  N   UNL     1       2.355   2.522  20.318  0.00  0.00    +0.000 NA
ATOM      2  H   UNL     1       2.530   1.727  20.937  0.00  0.00    +0.000 HD
ENDROOT
BRANCH   1   3
ATOM      3  C   UNL     1       3.357   2.483  19.239  0.00  0.00    +0.000 C 
BRANCH   3   4
ATOM      4  C   UNL     1       4.527   3.422  19.559  0.00  0.00    +0.000 C 
BRANCH   4   8
ATOM      5  C   UNL     1       6.264   5.059  15.953  0.00  0.00    +0.000 A 
ATOM      6  C   UNL     1       5.246   4.093  15.885  0.00  0.00    +0.000 A 
ATOM      7  C   UNL     1       4.689   3.551  17.045  0.00  0.00    +0.000 A 
ATOM      8  C   UNL     1       5.174   3.929  18.296  0.00  0.00    +0.000 A 
ATOM      9  C   UNL     1       6.248   4.827  18.359  0.00  0.00    +0.000 A 
ATOM     10  C   UNL     1       6.806   5.393  17.202  0.00  0.00    +0.000 A 
BRANCH   5  12
ATOM     11  C   UNL     1       6.977   4.780  13.715  0.00  0.00    +0.000 C 
ATOM     12  O   UNL     1       6.745   5.655  14.818  0.00  0.00    +0.000 OA
ENDBRANCH   5  12
BRANCH  10  13
ATOM     13  O   UNL     1       7.832   6.248  17.502  0.00  0.00    +0.000 OA
ATOM     14  C   UNL     1       7.579   7.643  17.556  0.00  0.00    +0.000 C 
ENDBRANCH  10  13
ENDBRANCH   4   8
ENDBRANCH   3   4
ENDBRANCH   1   3
BRANCH   1  15
ATOM     15  C   UNL     1       2.556   3.760  21.107  0.00  0.00    +0.000 C 
BRANCH  15  16
ATOM     16  C   UNL     1       1.760   4.931  20.530  0.00  0.00    +0.000 C 
ATOM     17  O   UNL     1       0.561   4.801  20.290  0.00  0.00    +0.000 OA
ATOM     18  N   UNL     1       2.513   6.082  20.360  0.00  0.00    +0.000 N 
ATOM     19  H   UNL     1       3.515   5.952  20.490  0.00  0.00    +0.000 HD
BRANCH  18  20
ATOM     20  C   UNL     1       2.040   7.350  19.967  0.00  0.00    +0.000 A 
ATOM     21  C   UNL     1       2.229   7.860  18.685  0.00  0.00    +0.000 A 
ATOM     22  C   UNL     1       1.725   9.114  18.330  0.00  0.00    +0.000 A 
ATOM     23  C   UNL     1       1.021   9.895  19.253  0.00  0.00    +0.000 A 
ATOM     24  C   UNL     1       0.489  11.228  18.812  0.00  0.00    +0.000 C 
ATOM     25  C   UNL     1       0.835   9.382  20.546  0.00  0.00    +0.000 A 
ATOM     26 BR   UNL     1      -0.075  10.376  21.888  0.00  0.00    +0.000 Br
ATOM     27  C   UNL     1       1.330   8.116  20.898  0.00  0.00    +0.000 A 
ENDBRANCH  18  20
ENDBRANCH  15  16
ENDBRANCH   1  15
TORSDOF 8
ENDMDL
MODEL 2
REMARK VINA RESULT:      -7.1      4.967      7.767
REMARK  Name = 
REMARK  11 active torsions:
REMARK  status: ('A' for Active; 'I' for Inactive)
REMARK    1  A    between atoms: C_1  and  O_2
REMARK    2  A    between atoms: O_2  and  C_3
REMARK    3  A    between atoms: C_6  and  C_7
REMARK    4  A    between atoms: C_7  and  C_8
REMARK    5  A    between atoms: C_8  and  N_9
REMARK    6  A    between atoms: N_9  and  C_10
REMARK    7  A    between atoms: C_10  and  C_11
REMARK    8  A    between atoms: N_13  and  C_14
REMARK    9  A    between atoms: C_17  and  C_18
REMARK   10  A    between atoms: C_23  and  O_24
REMARK   11  A    between atoms: O_24  and  C_25
REMARK                            x       y       z     vdW  Elec       q    Type
REMARK                         _______ _______ _______ _____ _____    ______ ____
ROOT
ATOM      1  N   UNL     1       6.913   7.600  17.267  0.00  0.00    +0.000 NA
ATOM      2  H   UNL     1       6.116   7.784  17.880  0.00  0.00    +0.000 HD
ENDROOT
BRANCH   1   3
ATOM      3  C   UNL     1       6.869   6.180  16.881  0.00  0.00    +0.000 C 
BRANCH   3   4
ATOM      4  C   UNL     1       5.616   5.889  16.046  0.00  0.00    +0.000 C 
BRANCH   4   8
ATOM      5  C   UNL     1       2.226   4.558  18.377  0.00  0.00    +0.000 A 
ATOM      6  C   UNL     1       2.622   5.906  18.391  0.00  0.00    +0.000 A 
ATOM      7  C   UNL     1       3.723   6.341  17.651  0.00  0.00    +0.000 A 
ATOM      8  C   UNL     1       4.479   5.425  16.919  0.00  0.00    +0.000 A 
ATOM      9  C   UNL     1       4.133   4.069  16.976  0.00  0.00    +0.000 A 
ATOM     10  C   UNL     1       3.020   3.619  17.702  0.00  0.00    +0.000 A 
BRANCH   5  12
ATOM     11  C   UNL     1       1.261   3.831  20.411  0.00  0.00    +0.000 C 
ATOM     12  O   UNL     1       1.093   4.151  19.030  0.00  0.00    +0.000 OA
ENDBRANCH   5  12
BRANCH  10  13
ATOM     13  O   UNL     1       2.866   2.262  17.606  0.00  0.00    +0.000 OA
ATOM     14  C   UNL     1       3.572   1.420  18.503  0.00  0.00    +0.000 C 
ENDBRANCH  10  13
ENDBRANCH   4   8
ENDBRANCH   3   4
ENDBRANCH   1   3
BRANCH   1  15
ATOM     15  C   UNL     1       8.149   7.841  18.050  0.00  0.00    +0.000 C 
BRANCH  15  16
ATOM     16  C   UNL     1       8.401   9.334  18.259  0.00  0.00    +0.000 C 
ATOM     17  O   UNL     1       7.844  10.159  17.537  0.00  0.00    +0.000 OA
ATOM     18  N   UNL     1       9.252   9.609  19.317  0.00  0.00    +0.000 N 
ATOM     19  H   UNL     1       9.715   8.790  19.708  0.00  0.00    +0.000 HD
BRANCH  18  20
ATOM     20  C   UNL     1       9.577  10.880  19.831  0.00  0.00    +0.000 A 
ATOM     21  C   UNL     1       9.075  11.353  21.042  0.00  0.00    +0.000 A 
ATOM     22  C   UNL     1       9.440  12.612  21.527  0.00  0.00    +0.000 A 
ATOM     23  C   UNL     1      10.316  13.434  20.809  0.00  0.00    +0.000 A 
ATOM     24  C   UNL     1      10.685  14.770  21.385  0.00  0.00    +0.000 C 
ATOM     25  C   UNL     1      10.818  12.959  19.589  0.00  0.00    +0.000 A 
ATOM     26 BR   UNL     1      11.984  14.009  18.516  0.00  0.00    +0.000 Br
ATOM     27  C   UNL     1      10.461  11.688  19.108  0.00  0.00    +0.000 A 
ENDBRANCH  18  20
ENDBRANCH  15  16
ENDBRANCH   1  15
TORSDOF 8
ENDMDL
MODEL 3
REMARK VINA RESULT:      -6.9      1.113      1.761
REMARK  Name = 
REMARK  11 active torsions:
REMARK  status: ('A' for Active; 'I' for Inactive)
REMARK    1  A    between atoms: C_1  and  O_2
REMARK    2  A    between atoms: O_2  and  C_3
REMARK    3  A    between atoms: C_6  and  C_7
REMARK    4  A    between atoms: C_7  and  C_8
REMARK    5  A    between atoms: C_8  and  N_9
REMARK    6  A    between atoms: N_9  and  C_10
REMARK    7  A    between atoms: C_10  and  C_11
REMARK    8  A    between atoms: N_13  and  C_14
REMARK    9  A    between atoms: C_17  and  C_18
REMARK   10  A    between atoms: C_23  and  O_24
REMARK   11  A    between atoms: O_24  and  C_25
REMARK                            x       y       z     vdW  Elec       q    Type
REMARK                         _______ _______ _______ _____ _____    ______ ____
ROOT
ATOM      1  N   UNL     1       2.656   3.089  19.277  0.00  0.00    +0.000 NA
ATOM      2  H   UNL     1       2.229   2.351  19.842  0.00  0.00    +0.000 HD
ENDROOT
BRANCH   1   3
ATOM      3  C   UNL     1       3.848   2.524  18.623  0.00  0.00    +0.000 C 
BRANCH   3   4
ATOM      4  C   UNL     1       3.910   2.959  17.152  0.00  0.00    +0.000 C 
BRANCH   4   8
ATOM      5  C   UNL     1       6.940   6.004  16.663  0.00  0.00    +0.000 A 
ATOM      6  C   UNL     1       5.935   5.830  15.697  0.00  0.00    +0.000 A 
ATOM      7  C   UNL     1       4.961   4.841  15.842  0.00  0.00    +0.000 A 
ATOM      8  C   UNL     1       5.002   3.974  16.933  0.00  0.00    +0.000 A 
ATOM      9  C   UNL     1       6.054   4.095  17.850  0.00  0.00    +0.000 A 
ATOM     10  C   UNL     1       7.031   5.095  17.726  0.00  0.00    +0.000 A 
BRANCH   5  12
ATOM     11  C   UNL     1       7.649   8.105  17.489  0.00  0.00    +0.000 C 
ATOM     12  O   UNL     1       7.839   7.033  16.565  0.00  0.00    +0.000 OA
ENDBRANCH   5  12
BRANCH  10  13
ATOM     13  O   UNL     1       7.952   5.032  18.738  0.00  0.00    +0.000 OA
ATOM     14  C   UNL     1       7.589   5.476  20.034  0.00  0.00    +0.000 C 
ENDBRANCH  10  13
ENDBRANCH   4   8
ENDBRANCH   3   4
ENDBRANCH   1   3
BRANCH   1  15
ATOM     15  C   UNL     1       3.087   4.168  20.198  0.00  0.00    +0.000 C 
BRANCH  15  16
ATOM     16  C   UNL     1       2.054   5.293  20.269  0.00  0.00    +0.000 C 
ATOM     17  O   UNL     1       0.905   5.051  20.634  0.00  0.00    +0.000 OA
ATOM     18  N   UNL     1       2.564   6.535  19.925  0.00  0.00    +0.000 N 
ATOM     19  H   UNL     1       3.500   6.509  19.524  0.00  0.00    +0.000 HD
BRANCH  18  20
ATOM     20  C   UNL     1       1.898   7.774  20.010  0.00  0.00    +0.000 A 
ATOM     21  C   UNL     1       1.841   8.672  18.946  0.00  0.00    +0.000 A 
ATOM     22  C   UNL     1       1.151   9.881  19.065  0.00  0.00    +0.000 A 
ATOM     23  C   UNL     1       0.504  10.227  20.257  0.00  0.00    +0.000 A 
ATOM     24  C   UNL     1      -0.234  11.533  20.323  0.00  0.00    +0.000 C 
ATOM     25  C   UNL     1       0.566   9.324  21.328  0.00  0.00    +0.000 A 
ATOM     26 BR   UNL     1      -0.246   9.711  23.003  0.00  0.00    +0.000 Br
ATOM     27  C   UNL     1       1.248   8.103  21.204  0.00  0.00    +0.000 A 
ENDBRANCH  18  20
ENDBRANCH  15  16
ENDBRANCH   1  15
TORSDOF 8
ENDMDL
MODEL 4
REMARK VINA RESULT:      -6.9      4.658      7.363
REMARK  Name = 
REMARK  11 active torsions:
REMARK  status: ('A' for Active; 'I' for Inactive)
REMARK    1  A    between atoms: C_1  and  O_2
REMARK    2  A    between atoms: O_2  and  C_3
REMARK    3  A    between atoms: C_6  and  C_7
REMARK    4  A    between atoms: C_7  and  C_8
REMARK    5  A    between atoms: C_8  and  N_9
REMARK    6  A    between atoms: N_9  and  C_10
REMARK    7  A    between atoms: C_10  and  C_11
REMARK    8  A    between atoms: N_13  and  C_14
REMARK    9  A    between atoms: C_17  and  C_18
REMARK   10  A    between atoms: C_23  and  O_24
REMARK   11  A    between atoms: O_24  and  C_25
REMARK                            x       y       z     vdW  Elec       q    Type
REMARK                         _______ _______ _______ _____ _____    ______ ____
ROOT
ATOM      1  N   UNL     1       7.910   7.122  17.311  0.00  0.00    +0.000 NA
ATOM      2  H   UNL     1       8.889   7.048  17.023  0.00  0.00    +0.000 HD
ENDROOT
BRANCH   1   3
ATOM      3  C   UNL     1       7.657   8.519  17.699  0.00  0.00    +0.000 C 
BRANCH   3   4
ATOM      4  C   UNL     1       8.748   9.017  18.656  0.00  0.00    +0.000 C 
BRANCH   4   8
ATOM      5  C   UNL     1       8.947  13.336  18.599  0.00  0.00    +0.000 A 
ATOM      6  C   UNL     1       8.433  12.626  17.501  0.00  0.00    +0.000 A 
ATOM      7  C   UNL     1       8.377  11.232  17.507  0.00  0.00    +0.000 A 
ATOM      8  C   UNL     1       8.879  10.517  18.594  0.00  0.00    +0.000 A 
ATOM      9  C   UNL     1       9.469  11.223  19.649  0.00  0.00    +0.000 A 
ATOM     10  C   UNL     1       9.517  12.626  19.665  0.00  0.00    +0.000 A 
BRANCH   5  12
ATOM     11  C   UNL     1       7.737  15.281  19.190  0.00  0.00    +0.000 C 
ATOM     12  O   UNL     1       8.916  14.705  18.628  0.00  0.00    +0.000 OA
ENDBRANCH   5  12
BRANCH  10  13
ATOM     13  O   UNL     1      10.126  13.100  20.796  0.00  0.00    +0.000 OA
ATOM     14  C   UNL     1       9.495  12.913  22.052  0.00  0.00    +0.000 C 
ENDBRANCH  10  13
ENDBRANCH   4   8
ENDBRANCH   3   4
ENDBRANCH   1   3
BRANCH   1  15
ATOM     15  C   UNL     1       7.725   6.258  18.501  0.00  0.00    +0.000 C 
BRANCH  15  16
ATOM     16  C   UNL     1       6.613   5.232  18.285  0.00  0.00    +0.000 C 
ATOM     17  O   UNL     1       6.887   4.104  17.879  0.00  0.00    +0.000 OA
ATOM     18  N   UNL     1       5.353   5.702  18.618  0.00  0.00    +0.000 N 
ATOM     19  H   UNL     1       5.314   6.702  18.809  0.00  0.00    +0.000 HD
BRANCH  18  20
ATOM     20  C   UNL     1       4.155   4.961  18.645  0.00  0.00    +0.000 A 
ATOM     21  C   UNL     1       3.352   4.788  17.520  0.00  0.00    +0.000 A 
ATOM     22  C   UNL     1       2.181   4.027  17.584  0.00  0.00    +0.000 A 
ATOM     23  C   UNL     1       1.780   3.422  18.780  0.00  0.00    +0.000 A 
ATOM     24  C   UNL     1       0.522   2.604  18.788  0.00  0.00    +0.000 C 
ATOM     25  C   UNL     1       2.588   3.600  19.914  0.00  0.00    +0.000 A 
ATOM     26 BR   UNL     1       2.117   2.853  21.598  0.00  0.00    +0.000 Br
ATOM     27  C   UNL     1       3.771   4.354  19.845  0.00  0.00    +0.000 A 
ENDBRANCH  18  20
ENDBRANCH  15  16
ENDBRANCH   1  15
TORSDOF 8
ENDMDL
MODEL 5
REMARK VINA RESULT:      -6.9      1.486      2.636
REMARK  Name = 
REMARK  11 active torsions:
REMARK  status: ('A' for Active; 'I' for Inactive)
REMARK    1  A    between atoms: C_1  and  O_2
REMARK    2  A    between atoms: O_2  and  C_3
REMARK    3  A    between atoms: C_6  and  C_7
REMARK    4  A    between atoms: C_7  and  C_8
REMARK    5  A    between atoms: C_8  and  N_9
REMARK    6  A    between atoms: N_9  and  C_10
REMARK    7  A    between atoms: C_10  and  C_11
REMARK    8  A    between atoms: N_13  and  C_14
REMARK    9  A    between atoms: C_17  and  C_18
REMARK   10  A    between atoms: C_23  and  O_24
REMARK   11  A    between atoms: O_24  and  C_25
REMARK                            x       y       z     vdW  Elec       q    Type
REMARK                         _______ _______ _______ _____ _____    ______ ____
ROOT
ATOM      1  N   UNL     1       2.495   2.146  18.647  0.00  0.00    +0.000 NA
ATOM      2  H   UNL     1       2.477   1.132  18.782  0.00  0.00    +0.000 HD
ENDROOT
BRANCH   1   3
ATOM      3  C   UNL     1       3.763   2.491  17.983  0.00  0.00    +0.000 C 
BRANCH   3   4
ATOM      4  C   UNL     1       3.507   3.410  16.782  0.00  0.00    +0.000 C 
BRANCH   4   8
ATOM      5  C   UNL     1       6.691   6.330  16.591  0.00  0.00    +0.000 A 
ATOM      6  C   UNL     1       5.663   6.450  17.540  0.00  0.00    +0.000 A 
ATOM      7  C   UNL     1       4.625   5.518  17.600  0.00  0.00    +0.000 A 
ATOM      8  C   UNL     1       4.570   4.474  16.678  0.00  0.00    +0.000 A 
ATOM      9  C   UNL     1       5.549   4.405  15.678  0.00  0.00    +0.000 A 
ATOM     10  C   UNL     1       6.607   5.325  15.616  0.00  0.00    +0.000 A 
BRANCH   5  12
ATOM     11  C   UNL     1       7.823   8.081  17.708  0.00  0.00    +0.000 C 
ATOM     12  O   UNL     1       7.756   7.191  16.593  0.00  0.00    +0.000 OA
ENDBRANCH   5  12
BRANCH  10  13
ATOM     13  O   UNL     1       7.448   5.059  14.569  0.00  0.00    +0.000 OA
ATOM     14  C   UNL     1       6.952   4.354  13.443  0.00  0.00    +0.000 C 
ENDBRANCH  10  13
ENDBRANCH   4   8
ENDBRANCH   3   4
ENDBRANCH   1   3
BRANCH   1  15
ATOM     15  C   UNL     1       2.472   2.779  19.987  0.00  0.00    +0.000 C 
BRANCH  15  16
ATOM     16  C   UNL     1       1.630   4.054  19.993  0.00  0.00    +0.000 C 
ATOM     17  O   UNL     1       0.403   3.982  19.956  0.00  0.00    +0.000 OA
ATOM     18  N   UNL     1       2.383   5.215  20.076  0.00  0.00    +0.000 N 
ATOM     19  H   UNL     1       3.385   5.075  19.963  0.00  0.00    +0.000 HD
BRANCH  18  20
ATOM     20  C   UNL     1       1.896   6.529  20.224  0.00  0.00    +0.000 A 
ATOM     21  C   UNL     1       1.223   6.958  21.365  0.00  0.00    +0.000 A 
ATOM     22  C   UNL     1       0.775   8.277  21.480  0.00  0.00    +0.000 A 
ATOM     23  C   UNL     1       0.986   9.202  20.452  0.00  0.00    +0.000 A 
ATOM     24  C   UNL     1       0.497  10.609  20.636  0.00  0.00    +0.000 C 
ATOM     25  C   UNL     1       1.661   8.768  19.301  0.00  0.00    +0.000 A 
ATOM     26 BR   UNL     1       1.967   9.931  17.829  0.00  0.00    +0.000 Br
ATOM     27  C   UNL     1       2.122   7.445  19.191  0.00  0.00    +0.000 A 
ENDBRANCH  18  20
ENDBRANCH  15  16
ENDBRANCH   1  15
TORSDOF 8
ENDMDL
MODEL 6
REMARK VINA RESULT:      -6.8      1.755      2.519
REMARK  Name = 
REMARK  11 active torsions:
REMARK  status: ('A' for Active; 'I' for Inactive)
REMARK    1  A    between atoms: C_1  and  O_2
REMARK    2  A    between atoms: O_2  and  C_3
REMARK    3  A    between atoms: C_6  and  C_7
REMARK    4  A    between atoms: C_7  and  C_8
REMARK    5  A    between atoms: C_8  and  N_9
REMARK    6  A    between atoms: N_9  and  C_10
REMARK    7  A    between atoms: C_10  and  C_11
REMARK    8  A    between atoms: N_13  and  C_14
REMARK    9  A    between atoms: C_17  and  C_18
REMARK   10  A    between atoms: C_23  and  O_24
REMARK   11  A    between atoms: O_24  and  C_25
REMARK                            x       y       z     vdW  Elec       q    Type
REMARK                         _______ _______ _______ _____ _____    ______ ____
ROOT
ATOM      1  N   UNL     1       2.656   5.019  18.472  0.00  0.00    +0.000 NA
ATOM      2  H   UNL     1       1.846   4.645  18.971  0.00  0.00    +0.000 HD
ENDROOT
BRANCH   1   3
ATOM      3  C   UNL     1       3.727   4.011  18.528  0.00  0.00    +0.000 C 
BRANCH   3   4
ATOM      4  C   UNL     1       3.866   3.299  17.176  0.00  0.00    +0.000 C 
BRANCH   4   8
ATOM      5  C   UNL     1       7.118   5.018  14.902  0.00  0.00    +0.000 A 
ATOM      6  C   UNL     1       6.296   4.026  14.342  0.00  0.00    +0.000 A 
ATOM      7  C   UNL     1       5.252   3.457  15.074  0.00  0.00    +0.000 A 
ATOM      8  C   UNL     1       5.040   3.836  16.399  0.00  0.00    +0.000 A 
ATOM      9  C   UNL     1       5.914   4.762  16.982  0.00  0.00    +0.000 A 
ATOM     10  C   UNL     1       6.957   5.355  16.254  0.00  0.00    +0.000 A 
BRANCH   5  12
ATOM     11  C   UNL     1       8.005   5.413  12.746  0.00  0.00    +0.000 C 
ATOM     12  O   UNL     1       8.081   5.638  14.153  0.00  0.00    +0.000 OA
ENDBRANCH   5  12
BRANCH  10  13
ATOM     13  O   UNL     1       7.674   6.235  17.019  0.00  0.00    +0.000 OA
ATOM     14  C   UNL     1       7.045   7.418  17.486  0.00  0.00    +0.000 C 
ENDBRANCH  10  13
ENDBRANCH   4   8
ENDBRANCH   3   4
ENDBRANCH   1   3
BRANCH   1  15
ATOM     15  C   UNL     1       3.107   6.233  19.194  0.00  0.00    +0.000 C 
BRANCH  15  16
ATOM     16  C   UNL     1       2.012   6.787  20.104  0.00  0.00    +0.000 C 
ATOM     17  O   UNL     1       1.406   6.036  20.866  0.00  0.00    +0.000 OA
ATOM     18  N   UNL     1       1.834   8.156  19.986  0.00  0.00    +0.000 N 
ATOM     19  H   UNL     1       2.337   8.580  19.208  0.00  0.00    +0.000 HD
BRANCH  18  20
ATOM     20  C   UNL     1       0.993   8.970  20.772  0.00  0.00    +0.000 A 
ATOM     21  C   UNL     1       0.919   8.857  22.158  0.00  0.00    +0.000 A 
ATOM     22  C   UNL     1       0.089   9.700  22.903  0.00  0.00    +0.000 A 
ATOM     23  C   UNL     1      -0.694  10.676  22.277  0.00  0.00    +0.000 A 
ATOM     24  C   UNL     1      -1.556  11.563  23.128  0.00  0.00    +0.000 C 
ATOM     25  C   UNL     1      -0.622  10.786  20.880  0.00  0.00    +0.000 A 
ATOM     26 BR   UNL     1      -1.671  12.052  19.926  0.00  0.00    +0.000 Br
ATOM     27  C   UNL     1       0.223   9.948  20.134  0.00  0.00    +0.000 A 
ENDBRANCH  18  20
ENDBRANCH  15  16
ENDBRANCH   1  15
TORSDOF 8
ENDMDL
MODEL 7
REMARK VINA RESULT:      -6.7      4.931      7.629
REMARK  Name = 
REMARK  11 active torsions:
REMARK  status: ('A' for Active; 'I' for Inactive)
REMARK    1  A    between atoms: C_1  and  O_2
REMARK    2  A    between atoms: O_2  and  C_3
REMARK    3  A    between atoms: C_6  and  C_7
REMARK    4  A    between atoms: C_7  and  C_8
REMARK    5  A    between atoms: C_8  and  N_9
REMARK    6  A    between atoms: N_9  and  C_10
REMARK    7  A    between atoms: C_10  and  C_11
REMARK    8  A    between atoms: N_13  and  C_14
REMARK    9  A    between atoms: C_17  and  C_18
REMARK   10  A    between atoms: C_23  and  O_24
REMARK   11  A    between atoms: O_24  and  C_25
REMARK                            x       y       z     vdW  Elec       q    Type
REMARK                         _______ _______ _______ _____ _____    ______ ____
ROOT
ATOM      1  N   UNL     1       7.522   7.239  17.024  0.00  0.00    +0.000 NA
ATOM      2  H   UNL     1       6.674   7.799  16.917  0.00  0.00    +0.000 HD
ENDROOT
BRANCH   1   3
ATOM      3  C   UNL     1       7.123   5.825  17.115  0.00  0.00    +0.000 C 
BRANCH   3   4
ATOM      4  C   UNL     1       6.820   5.445  18.570  0.00  0.00    +0.000 C 
BRANCH   4   8
ATOM      5  C   UNL     1       2.698   4.314  19.220  0.00  0.00    +0.000 A 
ATOM      6  C   UNL     1       3.738   3.398  19.450  0.00  0.00    +0.000 A 
ATOM      7  C   UNL     1       5.070   3.752  19.231  0.00  0.00    +0.000 A 
ATOM      8  C   UNL     1       5.385   5.015  18.730  0.00  0.00    +0.000 A 
ATOM      9  C   UNL     1       4.341   5.895  18.420  0.00  0.00    +0.000 A 
ATOM     10  C   UNL     1       2.997   5.560  18.651  0.00  0.00    +0.000 A 
BRANCH   5  12
ATOM     11  C   UNL     1       0.853   2.894  18.798  0.00  0.00    +0.000 C 
ATOM     12  O   UNL     1       1.400   3.995  19.523  0.00  0.00    +0.000 OA
ENDBRANCH   5  12
BRANCH  10  13
ATOM     13  O   UNL     1       2.152   6.573  18.286  0.00  0.00    +0.000 OA
ATOM     14  C   UNL     1       2.697   7.811  17.862  0.00  0.00    +0.000 C 
ENDBRANCH  10  13
ENDBRANCH   4   8
ENDBRANCH   3   4
ENDBRANCH   1   3
BRANCH   1  15
ATOM     15  C   UNL     1       8.164   7.634  18.301  0.00  0.00    +0.000 C 
BRANCH  15  16
ATOM     16  C   UNL     1       8.463   9.133  18.341  0.00  0.00    +0.000 C 
ATOM     17  O   UNL     1       7.942   9.886  17.520  0.00  0.00    +0.000 OA
ATOM     18  N   UNL     1       9.310   9.501  19.373  0.00  0.00    +0.000 N 
ATOM     19  H   UNL     1       9.740   8.719  19.864  0.00  0.00    +0.000 HD
BRANCH  18  20
ATOM     20  C   UNL     1       9.670  10.812  19.744  0.00  0.00    +0.000 A 
ATOM     21  C   UNL     1       9.138  11.452  20.861  0.00  0.00    +0.000 A 
ATOM     22  C   UNL     1       9.539  12.746  21.205  0.00  0.00    +0.000 A 
ATOM     23  C   UNL     1      10.482  13.436  20.437  0.00  0.00    +0.000 A 
ATOM     24  C   UNL     1      10.887  14.818  20.862  0.00  0.00    +0.000 C 
ATOM     25  C   UNL     1      11.015  12.793  19.310  0.00  0.00    +0.000 A 
ATOM     26 BR   UNL     1      12.275  13.653  18.175  0.00  0.00    +0.000 Br
ATOM     27  C   UNL     1      10.621  11.488  18.971  0.00  0.00    +0.000 A 
ENDBRANCH  18  20
ENDBRANCH  15  16
ENDBRANCH   1  15
TORSDOF 8
ENDMDL
MODEL 8
REMARK VINA RESULT:      -6.7      4.336      8.839
REMARK  Name = 
REMARK  11 active torsions:
REMARK  status: ('A' for Active; 'I' for Inactive)
REMARK    1  A    between atoms: C_1  and  O_2
REMARK    2  A    between atoms: O_2  and  C_3
REMARK    3  A    between atoms: C_6  and  C_7
REMARK    4  A    between atoms: C_7  and  C_8
REMARK    5  A    between atoms: C_8  and  N_9
REMARK    6  A    between atoms: N_9  and  C_10
REMARK    7  A    between atoms: C_10  and  C_11
REMARK    8  A    between atoms: N_13  and  C_14
REMARK    9  A    between atoms: C_17  and  C_18
REMARK   10  A    between atoms: C_23  and  O_24
REMARK   11  A    between atoms: O_24  and  C_25
REMARK                            x       y       z     vdW  Elec       q    Type
REMARK                         _______ _______ _______ _____ _____    ______ ____
ROOT
ATOM      1  N   UNL     1       0.211  10.950  21.779  0.00  0.00    +0.000 NA
ATOM      2  H   UNL     1      -0.771  10.687  21.668  0.00  0.00    +0.000 HD
ENDROOT
BRANCH   1   3
ATOM      3  C   UNL     1       0.759  11.230  20.441  0.00  0.00    +0.000 C 
BRANCH   3   4
ATOM      4  C   UNL     1       0.002  12.391  19.784  0.00  0.00    +0.000 C 
BRANCH   4   8
ATOM      5  C   UNL     1      -3.839  11.246  18.160  0.00  0.00    +0.000 A 
ATOM      6  C   UNL     1      -3.756  12.084  19.284  0.00  0.00    +0.000 A 
ATOM      7  C   UNL     1      -2.520  12.448  19.822  0.00  0.00    +0.000 A 
ATOM      8  C   UNL     1      -1.343  11.941  19.273  0.00  0.00    +0.000 A 
ATOM      9  C   UNL     1      -1.431  11.038  18.206  0.00  0.00    +0.000 A 
ATOM     10  C   UNL     1      -2.666  10.676  17.645  0.00  0.00    +0.000 A 
BRANCH   5  12
ATOM     11  C   UNL     1      -6.195  11.314  18.352  0.00  0.00    +0.000 C 
ATOM     12  O   UNL     1      -5.047  10.965  17.580  0.00  0.00    +0.000 OA
ENDBRANCH   5  12
BRANCH  10  13
ATOM     13  O   UNL     1      -2.512   9.794  16.609  0.00  0.00    +0.000 OA
ATOM     14  C   UNL     1      -2.765  10.231  15.283  0.00  0.00    +0.000 C 
ENDBRANCH  10  13
ENDBRANCH   4   8
ENDBRANCH   3   4
ENDBRANCH   1   3
BRANCH   1  15
ATOM     15  C   UNL     1       0.928   9.784  22.350  0.00  0.00    +0.000 C 
BRANCH  15  16
ATOM     16  C   UNL     1       0.706   8.523  21.516  0.00  0.00    +0.000 C 
ATOM     17  O   UNL     1      -0.436   8.118  21.304  0.00  0.00    +0.000 OA
ATOM     18  N   UNL     1       1.879   7.960  21.039  0.00  0.00    +0.000 N 
ATOM     19  H   UNL     1       2.728   8.363  21.432  0.00  0.00    +0.000 HD
BRANCH  18  20
ATOM     20  C   UNL     1       1.995   6.875  20.148  0.00  0.00    +0.000 A 
ATOM     21  C   UNL     1       2.407   7.026  18.827  0.00  0.00    +0.000 A 
ATOM     22  C   UNL     1       2.529   5.919  17.982  0.00  0.00    +0.000 A 
ATOM     23  C   UNL     1       2.237   4.629  18.438  0.00  0.00    +0.000 A 
ATOM     24  C   UNL     1       2.401   3.476  17.492  0.00  0.00    +0.000 C 
ATOM     25  C   UNL     1       1.818   4.478  19.769  0.00  0.00    +0.000 A 
ATOM     26 BR   UNL     1       1.361   2.775  20.480  0.00  0.00    +0.000 Br
ATOM     27  C   UNL     1       1.708   5.589  20.621  0.00  0.00    +0.000 A 
ENDBRANCH  18  20
ENDBRANCH  15  16
ENDBRANCH   1  15
TORSDOF 8
ENDMDL
MODEL 9
REMARK VINA RESULT:      -6.7      5.025      7.993
REMARK  Name = 
REMARK  11 active torsions:
REMARK  status: ('A' for Active; 'I' for Inactive)
REMARK    1  A    between atoms: C_1  and  O_2
REMARK    2  A    between atoms: O_2  and  C_3
REMARK    3  A    between atoms: C_6  and  C_7
REMARK    4  A    between atoms: C_7  and  C_8
REMARK    5  A    between atoms: C_8  and  N_9
REMARK    6  A    between atoms: N_9  and  C_10
REMARK    7  A    between atoms: C_10  and  C_11
REMARK    8  A    between atoms: N_13  and  C_14
REMARK    9  A    between atoms: C_17  and  C_18
REMARK   10  A    between atoms: C_23  and  O_24
REMARK   11  A    between atoms: O_24  and  C_25
REMARK                            x       y       z     vdW  Elec       q    Type
REMARK                         _______ _______ _______ _____ _____    ______ ____
ROOT
ATOM      1  N   UNL     1       8.087   8.527  17.178  0.00  0.00    +0.000 NA
ATOM      2  H   UNL     1       9.041   8.552  16.810  0.00  0.00    +0.000 HD
ENDROOT
BRANCH   1   3
ATOM      3  C   UNL     1       7.962   9.594  18.185  0.00  0.00    +0.000 C 
BRANCH   3   4
ATOM      4  C   UNL     1       9.264   9.734  18.985  0.00  0.00    +0.000 C 
BRANCH   4   8
ATOM      5  C   UNL     1      10.641  13.832  18.939  0.00  0.00    +0.000 A 
ATOM      6  C   UNL     1      11.357  12.842  19.632  0.00  0.00    +0.000 A 
ATOM      7  C   UNL     1      10.912  11.519  19.662  0.00  0.00    +0.000 A 
ATOM      8  C   UNL     1       9.715  11.171  19.038  0.00  0.00    +0.000 A 
ATOM      9  C   UNL     1       8.959  12.176  18.422  0.00  0.00    +0.000 A 
ATOM     10  C   UNL     1       9.402  13.507  18.369  0.00  0.00    +0.000 A 
BRANCH   5  12
ATOM     11  C   UNL     1      11.830  15.401  17.627  0.00  0.00    +0.000 C 
ATOM     12  O   UNL     1      11.127  15.108  18.835  0.00  0.00    +0.000 OA
ENDBRANCH   5  12
BRANCH  10  13
ATOM     13  O   UNL     1       8.512  14.311  17.710  0.00  0.00    +0.000 OA
ATOM     14  C   UNL     1       7.503  14.979  18.448  0.00  0.00    +0.000 C 
ENDBRANCH  10  13
ENDBRANCH   4   8
ENDBRANCH   3   4
ENDBRANCH   1   3
BRANCH   1  15
ATOM     15  C   UNL     1       7.898   7.218  17.849  0.00  0.00    +0.000 C 
BRANCH  15  16
ATOM     16  C   UNL     1       6.519   6.628  17.553  0.00  0.00    +0.000 C 
ATOM     17  O   UNL     1       5.919   6.949  16.529  0.00  0.00    +0.000 OA
ATOM     18  N   UNL     1       6.088   5.723  18.509  0.00  0.00    +0.000 N 
ATOM     19  H   UNL     1       6.664   5.690  19.348  0.00  0.00    +0.000 HD
BRANCH  18  20
ATOM     20  C   UNL     1       4.925   4.927  18.456  0.00  0.00    +0.000 A 
ATOM     21  C   UNL     1       4.748   3.917  17.514  0.00  0.00    +0.000 A 
ATOM     22  C   UNL     1       3.589   3.136  17.510  0.00  0.00    +0.000 A 
ATOM     23  C   UNL     1       2.573   3.350  18.448  0.00  0.00    +0.000 A 
ATOM     24  C   UNL     1       1.356   2.471  18.405  0.00  0.00    +0.000 C 
ATOM     25  C   UNL     1       2.751   4.370  19.393  0.00  0.00    +0.000 A 
ATOM     26 BR   UNL     1       1.418   4.770  20.689  0.00  0.00    +0.000 Br
ATOM     27  C   UNL     1       3.922   5.146  19.405  0.00  0.00    +0.000 A 
ENDBRANCH  18  20
ENDBRANCH  15  16
ENDBRANCH   1  15
TORSDOF 8
ENDMDL
