MODEL 1
REMARK VINA RESULT:      -8.1      0.000      0.000
REMARK  Name = 
REMARK  8 active torsions:
REMARK  status: ('A' for Active; 'I' for Inactive)
REMARK    1  A    between atoms: C_1  and  C_2
REMARK    2  A    between atoms: C_2  and  C_3
REMARK    3  A    between atoms: C_2  and  N_4
REMARK    4  A    between atoms: C_5  and  C_7
REMARK    5  A    between atoms: N_10  and  C_11
REMARK    6  A    between atoms: C_11  and  C_12
REMARK    7  A    between atoms: C_16  and  O_17
REMARK    8  A    between atoms: O_17  and  C_18
REMARK                            x       y       z     vdW  Elec       q    Type
REMARK                         _______ _______ _______ _____ _____    ______ ____
ROOT
ATOM      1  C   UNL     1       3.959   7.419  16.842  0.00  0.00    +0.000 C 
ENDROOT
BRANCH   1   5
ATOM      2  C   UNL     1       6.786   4.248  16.100  0.00  0.00    +0.000 C 
ATOM      3  C   UNL     1       5.348   3.920  16.503  0.00  0.00    +0.000 C 
ATOM      4  C   UNL     1       4.436   5.132  16.323  0.00  0.00    +0.000 C 
ATOM      5  N   UNL     1       4.887   6.293  17.107  0.00  0.00    +0.000 NA
ATOM      6  C   UNL     1       6.278   6.659  16.776  0.00  0.00    +0.000 C 
ATOM      7  C   UNL     1       7.248   5.476  16.893  0.00  0.00    +0.000 C 
BRANCH   2   9
ATOM      8  N   UNL     1       6.260   3.528  13.815  0.00  0.00    +0.000 N 
ATOM      9  C   UNL     1       6.933   4.454  14.588  0.00  0.00    +0.000 C 
ATOM     10  O   UNL     1       7.608   5.352  14.095  0.00  0.00    +0.000 OA
ATOM     11  H   UNL     1       5.664   2.847  14.267  0.00  0.00    +0.000 HD
BRANCH   8  13
ATOM     12  C   UNL     1       7.228   2.695  11.723  0.00  0.00    +0.000 C 
ATOM     13  C   UNL     1       6.211   3.635  12.361  0.00  0.00    +0.000 C 
ATOM     14  C   UNL     1       4.805   3.337  11.845  0.00  0.00    +0.000 C 
ENDBRANCH   8  13
ENDBRANCH   2   9
ENDBRANCH   1   5
BRANCH   1  15
ATOM     15  C   UNL     1       3.012   7.750  17.974  0.00  0.00    +0.000 A 
ATOM     16  C   UNL     1       2.351   8.990  18.014  0.00  0.00    +0.000 A 
ATOM     17  C   UNL     1       1.454   9.280  19.044  0.00  0.00    +0.000 A 
ATOM     18  C   UNL     1       1.225   8.346  20.055  0.00  0.00    +0.000 A 
ATOM     19  C   UNL     1       1.895   7.122  20.040  0.00  0.00    +0.000 A 
ATOM     20  C   UNL     1       2.755   6.811  18.981  0.00  0.00    +0.000 A 
BRANCH  19  21
ATOM     21  O   UNL     1       1.607   6.258  21.073  0.00  0.00    +0.000 OA
BRANCH  21  22
ATOM     22  C   UNL     1       1.706   4.902  20.855  0.00  0.00    +0.000 A 
ATOM     23  C   UNL     1       2.630   4.078  21.505  0.00  0.00    +0.000 A 
ATOM     24  C   UNL     1       2.681   2.717  21.206  0.00  0.00    +0.000 A 
ATOM     25  C   UNL     1       1.778   2.168  20.297  0.00  0.00    +0.000 A 
ATOM     26  C   UNL     1       0.819   2.979  19.688  0.00  0.00    +0.000 A 
ATOM     27  C   UNL     1       0.783   4.345  19.969  0.00  0.00    +0.000 A 
ENDBRANCH  21  22
ENDBRANCH  19  21
ENDBRANCH   1  15
TORSDOF 6
ENDMDL
MODEL 2
REMARK VINA RESULT:      -7.9      0.349      1.005
REMARK  Name = 
REMARK  8 active torsions:
REMARK  status: ('A' for Active; 'I' for Inactive)
REMARK    1  A    between atoms: C_1  and  C_2
REMARK    2  A    between atoms: C_2  and  C_3
REMARK    3  A    between atoms: C_2  and  N_4
REMARK    4  A    between atoms: C_5  and  C_7
REMARK    5  A    between atoms: N_10  and  C_11
REMARK    6  A    between atoms: C_11  and  C_12
REMARK    7  A    between atoms: C_16  and  O_17
REMARK    8  A    between atoms: O_17  and  C_18
REMARK                            x       y       z     vdW  Elec       q    Type
REMARK                         _______ _______ _______ _____ _____    ______ ____
ROOT
ATOM      1  C   UNL     1       4.357   7.485  16.917  0.00  0.00    +0.000 C 
ENDROOT
BRANCH   1   5
ATOM      2  C   UNL     1       6.510   3.895  15.880  0.00  0.00    +0.000 C 
ATOM      3  C   UNL     1       5.049   3.817  16.324  0.00  0.00    +0.000 C 
ATOM      4  C   UNL     1       4.377   5.187  16.249  0.00  0.00    +0.000 C 
ATOM      5  N   UNL     1       5.063   6.191  17.079  0.00  0.00    +0.000 NA
ATOM      6  C   UNL     1       6.487   6.311  16.712  0.00  0.00    +0.000 C 
ATOM      7  C   UNL     1       7.219   4.962  16.722  0.00  0.00    +0.000 C 
BRANCH   2   9
ATOM      8  N   UNL     1       6.195   3.142  13.567  0.00  0.00    +0.000 N 
ATOM      9  C   UNL     1       6.648   4.166  14.377  0.00  0.00    +0.000 C 
ATOM     10  O   UNL     1       7.138   5.194  13.922  0.00  0.00    +0.000 OA
ATOM     11  H   UNL     1       5.739   2.343  13.987  0.00  0.00    +0.000 HD
BRANCH   8  13
ATOM     12  C   UNL     1       6.889   2.108  11.456  0.00  0.00    +0.000 C 
ATOM     13  C   UNL     1       6.160   3.275  12.115  0.00  0.00    +0.000 C 
ATOM     14  C   UNL     1       4.720   3.361  11.616  0.00  0.00    +0.000 C 
ENDBRANCH   8  13
ENDBRANCH   2   9
ENDBRANCH   1   5
BRANCH   1  15
ATOM     15  C   UNL     1       3.276   7.760  17.939  0.00  0.00    +0.000 A 
ATOM     16  C   UNL     1       2.479   8.913  17.845  0.00  0.00    +0.000 A 
ATOM     17  C   UNL     1       1.462   9.148  18.773  0.00  0.00    +0.000 A 
ATOM     18  C   UNL     1       1.247   8.247  19.816  0.00  0.00    +0.000 A 
ATOM     19  C   UNL     1       2.049   7.111  19.935  0.00  0.00    +0.000 A 
ATOM     20  C   UNL     1       3.034   6.850  18.976  0.00  0.00    +0.000 A 
BRANCH  19  21
ATOM     21  O   UNL     1       1.765   6.273  20.991  0.00  0.00    +0.000 OA
BRANCH  21  22
ATOM     22  C   UNL     1       1.705   4.916  20.767  0.00  0.00    +0.000 A 
ATOM     23  C   UNL     1       0.921   4.328  19.770  0.00  0.00    +0.000 A 
ATOM     24  C   UNL     1       0.899   2.941  19.628  0.00  0.00    +0.000 A 
ATOM     25  C   UNL     1       1.697   2.143  20.446  0.00  0.00    +0.000 A 
ATOM     26  C   UNL     1       2.522   2.731  21.406  0.00  0.00    +0.000 A 
ATOM     27  C   UNL     1       2.527   4.117  21.565  0.00  0.00    +0.000 A 
ENDBRANCH  21  22
ENDBRANCH  19  21
ENDBRANCH   1  15
TORSDOF 6
ENDMDL
MODEL 3
REMARK VINA RESULT:      -7.5      6.252      8.584
REMARK  Name = 
REMARK  8 active torsions:
REMARK  status: ('A' for Active; 'I' for Inactive)
REMARK    1  A    between atoms: C_1  and  C_2
REMARK    2  A    between atoms: C_2  and  C_3
REMARK    3  A    between atoms: C_2  and  N_4
REMARK    4  A    between atoms: C_5  and  C_7
REMARK    5  A    between atoms: N_10  and  C_11
REMARK    6  A    between atoms: C_11  and  C_12
REMARK    7  A    between atoms: C_16  and  O_17
REMARK    8  A    between atoms: O_17  and  C_18
REMARK                            x       y       z     vdW  Elec       q    Type
REMARK                         _______ _______ _______ _____ _____    ______ ____
ROOT
ATOM      1  C   UNL     1       8.323   9.851  17.872  0.00  0.00    +0.000 C 
ENDROOT
BRANCH   1   5
ATOM      2  C   UNL     1      11.150  12.410  19.889  0.00  0.00    +0.000 C 
ATOM      3  C   UNL     1      11.569  11.627  18.644  0.00  0.00    +0.000 C 
ATOM      4  C   UNL     1      10.350  11.123  17.873  0.00  0.00    +0.000 C 
ATOM      5  N   UNL     1       9.486  10.261  18.696  0.00  0.00    +0.000 NA
ATOM      6  C   UNL     1       9.051  10.951  19.926  0.00  0.00    +0.000 C 
ATOM      7  C   UNL     1      10.224  11.524  20.733  0.00  0.00    +0.000 C 
BRANCH   2   9
ATOM      8  N   UNL     1      11.272  14.577  18.749  0.00  0.00    +0.000 N 
ATOM      9  C   UNL     1      10.496  13.752  19.540  0.00  0.00    +0.000 C 
ATOM     10  O   UNL     1       9.386  14.083  19.941  0.00  0.00    +0.000 OA
ATOM     11  H   UNL     1      12.152  14.234  18.389  0.00  0.00    +0.000 HD
BRANCH   8  13
ATOM     12  C   UNL     1      11.364  17.012  19.025  0.00  0.00    +0.000 C 
ATOM     13  C   UNL     1      10.765  15.848  18.242  0.00  0.00    +0.000 C 
ATOM     14  C   UNL     1      11.064  15.991  16.752  0.00  0.00    +0.000 C 
ENDBRANCH   8  13
ENDBRANCH   2   9
ENDBRANCH   1   5
BRANCH   1  15
ATOM     15  C   UNL     1       7.945   8.390  17.978  0.00  0.00    +0.000 A 
ATOM     16  C   UNL     1       8.529   7.570  18.958  0.00  0.00    +0.000 A 
ATOM     17  C   UNL     1       8.154   6.229  19.072  0.00  0.00    +0.000 A 
ATOM     18  C   UNL     1       7.212   5.690  18.196  0.00  0.00    +0.000 A 
ATOM     19  C   UNL     1       6.645   6.488  17.202  0.00  0.00    +0.000 A 
ATOM     20  C   UNL     1       6.982   7.843  17.120  0.00  0.00    +0.000 A 
BRANCH  19  21
ATOM     21  O   UNL     1       5.722   5.876  16.383  0.00  0.00    +0.000 OA
BRANCH  21  22
ATOM     22  C   UNL     1       4.538   5.433  16.929  0.00  0.00    +0.000 A 
ATOM     23  C   UNL     1       3.642   6.261  17.613  0.00  0.00    +0.000 A 
ATOM     24  C   UNL     1       2.475   5.725  18.157  0.00  0.00    +0.000 A 
ATOM     25  C   UNL     1       2.177   4.375  17.978  0.00  0.00    +0.000 A 
ATOM     26  C   UNL     1       3.044   3.559  17.250  0.00  0.00    +0.000 A 
ATOM     27  C   UNL     1       4.223   4.088  16.724  0.00  0.00    +0.000 A 
ENDBRANCH  21  22
ENDBRANCH  19  21
ENDBRANCH   1  15
TORSDOF 6
ENDMDL
MODEL 4
REMARK VINA RESULT:      -7.4      1.888      4.321
REMARK  Name = 
REMARK  8 active torsions:
REMARK  status: ('A' for Active; 'I' for Inactive)
REMARK    1  A    between atoms: C_1  and  C_2
REMARK    2  A    between atoms: C_2  and  C_3
REMARK    3  A    between atoms: C_2  and  N_4
REMARK    4  A    between atoms: C_5  and  C_7
REMARK    5  A    between atoms: N_10  and  C_11
REMARK    6  A    between atoms: C_11  and  C_12
REMARK    7  A    between atoms: C_16  and  O_17
REMARK    8  A    between atoms: O_17  and  C_18
REMARK                            x       y       z     vdW  Elec       q    Type
REMARK                         _______ _______ _______ _____ _____    ______ ____
ROOT
ATOM      1  C   UNL     1       3.666   7.141  17.164  0.00  0.00    +0.000 C 
ENDROOT
BRANCH   1   5
ATOM      2  C   UNL     1       6.660   4.216  16.123  0.00  0.00    +0.000 C 
ATOM      3  C   UNL     1       5.276   3.769  16.595  0.00  0.00    +0.000 C 
ATOM      4  C   UNL     1       4.271   4.917  16.520  0.00  0.00    +0.000 C 
ATOM      5  N   UNL     1       4.686   6.077  17.326  0.00  0.00    +0.000 NA
ATOM      6  C   UNL     1       6.024   6.556  16.931  0.00  0.00    +0.000 C 
ATOM      7  C   UNL     1       7.081   5.443  16.941  0.00  0.00    +0.000 C 
BRANCH   2   9
ATOM      8  N   UNL     1       6.302   3.427  13.829  0.00  0.00    +0.000 N 
ATOM      9  C   UNL     1       6.699   4.491  14.615  0.00  0.00    +0.000 C 
ATOM     10  O   UNL     1       7.072   5.557  14.136  0.00  0.00    +0.000 OA
ATOM     11  H   UNL     1       5.941   2.592  14.271  0.00  0.00    +0.000 HD
BRANCH   8  13
ATOM     12  C   UNL     1       6.989   2.455  11.686  0.00  0.00    +0.000 C 
ATOM     13  C   UNL     1       6.185   3.550  12.380  0.00  0.00    +0.000 C 
ATOM     14  C   UNL     1       4.720   3.495  11.952  0.00  0.00    +0.000 C 
ENDBRANCH   8  13
ENDBRANCH   2   9
ENDBRANCH   1   5
BRANCH   1  15
ATOM     15  C   UNL     1       2.829   7.421  18.392  0.00  0.00    +0.000 A 
ATOM     16  C   UNL     1       2.615   6.419  19.355  0.00  0.00    +0.000 A 
ATOM     17  C   UNL     1       1.867   6.690  20.503  0.00  0.00    +0.000 A 
ATOM     18  C   UNL     1       1.308   7.954  20.690  0.00  0.00    +0.000 A 
ATOM     19  C   UNL     1       1.491   8.949  19.729  0.00  0.00    +0.000 A 
ATOM     20  C   UNL     1       2.282   8.693  18.603  0.00  0.00    +0.000 A 
BRANCH  19  21
ATOM     21  O   UNL     1       0.907  10.168  19.995  0.00  0.00    +0.000 OA
BRANCH  21  22
ATOM     22  C   UNL     1      -0.063  10.642  19.141  0.00  0.00    +0.000 A 
ATOM     23  C   UNL     1      -0.374  11.998  18.998  0.00  0.00    +0.000 A 
ATOM     24  C   UNL     1      -1.390  12.391  18.128  0.00  0.00    +0.000 A 
ATOM     25  C   UNL     1      -2.063  11.439  17.364  0.00  0.00    +0.000 A 
ATOM     26  C   UNL     1      -1.717  10.091  17.465  0.00  0.00    +0.000 A 
ATOM     27  C   UNL     1      -0.716   9.693  18.352  0.00  0.00    +0.000 A 
ENDBRANCH  21  22
ENDBRANCH  19  21
ENDBRANCH   1  15
TORSDOF 6
ENDMDL
MODEL 5
REMARK VINA RESULT:      -7.4      3.298      6.226
REMARK  Name = 
REMARK  8 active torsions:
REMARK  status: ('A' for Active; 'I' for Inactive)
REMARK    1  A    between atoms: C_1  and  C_2
REMARK    2  A    between atoms: C_2  and  C_3
REMARK    3  A    between atoms: C_2  and  N_4
REMARK    4  A    between atoms: C_5  and  C_7
REMARK    5  A    between atoms: N_10  and  C_11
REMARK    6  A    between atoms: C_11  and  C_12
REMARK    7  A    between atoms: C_16  and  O_17
REMARK    8  A    between atoms: O_17  and  C_18
REMARK                            x       y       z     vdW  Elec       q    Type
REMARK                         _______ _______ _______ _____ _____    ______ ____
ROOT
ATOM      1  C   UNL     1       2.153   7.421  21.087  0.00  0.00    +0.000 C 
ENDROOT
BRANCH   1   5
ATOM      2  C   UNL     1       2.745   3.999  18.528  0.00  0.00    +0.000 C 
ATOM      3  C   UNL     1       2.422   5.367  17.925  0.00  0.00    +0.000 C 
ATOM      4  C   UNL     1       2.650   6.485  18.942  0.00  0.00    +0.000 C 
ATOM      5  N   UNL     1       1.839   6.309  20.158  0.00  0.00    +0.000 NA
ATOM      6  C   UNL     1       2.092   4.999  20.788  0.00  0.00    +0.000 C 
ATOM      7  C   UNL     1       1.924   3.826  19.812  0.00  0.00    +0.000 C 
BRANCH   2   9
ATOM      8  N   UNL     1       5.062   4.515  17.912  0.00  0.00    +0.000 N 
ATOM      9  C   UNL     1       4.246   3.814  18.779  0.00  0.00    +0.000 C 
ATOM     10  O   UNL     1       4.695   3.088  19.660  0.00  0.00    +0.000 OA
ATOM     11  H   UNL     1       4.645   5.151  17.245  0.00  0.00    +0.000 HD
BRANCH   8  13
ATOM     12  C   UNL     1       7.196   4.625  16.711  0.00  0.00    +0.000 C 
ATOM     13  C   UNL     1       6.511   4.530  18.071  0.00  0.00    +0.000 C 
ATOM     14  C   UNL     1       6.943   5.685  18.972  0.00  0.00    +0.000 C 
ENDBRANCH   8  13
ENDBRANCH   2   9
ENDBRANCH   1   5
BRANCH   1  15
ATOM     15  C   UNL     1       1.158   8.560  21.083  0.00  0.00    +0.000 A 
ATOM     16  C   UNL     1       0.486   8.926  22.262  0.00  0.00    +0.000 A 
ATOM     17  C   UNL     1      -0.409   9.999  22.261  0.00  0.00    +0.000 A 
ATOM     18  C   UNL     1      -0.658  10.700  21.082  0.00  0.00    +0.000 A 
ATOM     19  C   UNL     1      -0.016  10.329  19.900  0.00  0.00    +0.000 A 
ATOM     20  C   UNL     1       0.919   9.288  19.911  0.00  0.00    +0.000 A 
BRANCH  19  21
ATOM     21  O   UNL     1      -0.317  11.078  18.783  0.00  0.00    +0.000 OA
BRANCH  21  22
ATOM     22  C   UNL     1      -1.574  10.976  18.232  0.00  0.00    +0.000 A 
ATOM     23  C   UNL     1      -2.642  11.810  18.577  0.00  0.00    +0.000 A 
ATOM     24  C   UNL     1      -3.892  11.622  17.987  0.00  0.00    +0.000 A 
ATOM     25  C   UNL     1      -4.065  10.635  17.018  0.00  0.00    +0.000 A 
ATOM     26  C   UNL     1      -2.987   9.836  16.634  0.00  0.00    +0.000 A 
ATOM     27  C   UNL     1      -1.742  10.009  17.239  0.00  0.00    +0.000 A 
ENDBRANCH  21  22
ENDBRANCH  19  21
ENDBRANCH   1  15
TORSDOF 6
ENDMDL
MODEL 6
REMARK VINA RESULT:      -7.4      2.060      4.345
REMARK  Name = 
REMARK  8 active torsions:
REMARK  status: ('A' for Active; 'I' for Inactive)
REMARK    1  A    between atoms: C_1  and  C_2
REMARK    2  A    between atoms: C_2  and  C_3
REMARK    3  A    between atoms: C_2  and  N_4
REMARK    4  A    between atoms: C_5  and  C_7
REMARK    5  A    between atoms: N_10  and  C_11
REMARK    6  A    between atoms: C_11  and  C_12
REMARK    7  A    between atoms: C_16  and  O_17
REMARK    8  A    between atoms: O_17  and  C_18
REMARK                            x       y       z     vdW  Elec       q    Type
REMARK                         _______ _______ _______ _____ _____    ______ ____
ROOT
ATOM      1  C   UNL     1       3.681   7.249  17.134  0.00  0.00    +0.000 C 
ENDROOT
BRANCH   1   5
ATOM      2  C   UNL     1       6.759   4.343  16.307  0.00  0.00    +0.000 C 
ATOM      3  C   UNL     1       5.356   3.888  16.711  0.00  0.00    +0.000 C 
ATOM      4  C   UNL     1       4.344   5.022  16.562  0.00  0.00    +0.000 C 
ATOM      5  N   UNL     1       4.702   6.200  17.369  0.00  0.00    +0.000 NA
ATOM      6  C   UNL     1       6.055   6.688  17.039  0.00  0.00    +0.000 C 
ATOM      7  C   UNL     1       7.122   5.588  17.126  0.00  0.00    +0.000 C 
BRANCH   2   9
ATOM      8  N   UNL     1       6.143   3.726  14.015  0.00  0.00    +0.000 N 
ATOM      9  C   UNL     1       6.878   4.594  14.799  0.00  0.00    +0.000 C 
ATOM     10  O   UNL     1       7.581   5.476  14.319  0.00  0.00    +0.000 OA
ATOM     11  H   UNL     1       5.527   3.058  14.460  0.00  0.00    +0.000 HD
BRANCH   8  13
ATOM     12  C   UNL     1       7.433   3.667  11.931  0.00  0.00    +0.000 C 
ATOM     13  C   UNL     1       6.063   3.885  12.568  0.00  0.00    +0.000 C 
ATOM     14  C   UNL     1       5.036   2.923  11.975  0.00  0.00    +0.000 C 
ENDBRANCH   8  13
ENDBRANCH   2   9
ENDBRANCH   1   5
BRANCH   1  15
ATOM     15  C   UNL     1       2.816   7.583  18.329  0.00  0.00    +0.000 A 
ATOM     16  C   UNL     1       2.630   6.646  19.360  0.00  0.00    +0.000 A 
ATOM     17  C   UNL     1       1.854   6.968  20.476  0.00  0.00    +0.000 A 
ATOM     18  C   UNL     1       1.240   8.218  20.564  0.00  0.00    +0.000 A 
ATOM     19  C   UNL     1       1.396   9.146  19.533  0.00  0.00    +0.000 A 
ATOM     20  C   UNL     1       2.214   8.842  18.439  0.00  0.00    +0.000 A 
BRANCH  19  21
ATOM     21  O   UNL     1       0.759  10.355  19.703  0.00  0.00    +0.000 OA
BRANCH  21  22
ATOM     22  C   UNL     1      -0.444  10.569  19.066  0.00  0.00    +0.000 A 
ATOM     23  C   UNL     1      -0.828   9.912  17.894  0.00  0.00    +0.000 A 
ATOM     24  C   UNL     1      -2.055  10.207  17.300  0.00  0.00    +0.000 A 
ATOM     25  C   UNL     1      -2.920  11.121  17.901  0.00  0.00    +0.000 A 
ATOM     26  C   UNL     1      -2.561  11.738  19.101  0.00  0.00    +0.000 A 
ATOM     27  C   UNL     1      -1.324  11.460  19.684  0.00  0.00    +0.000 A 
ENDBRANCH  21  22
ENDBRANCH  19  21
ENDBRANCH   1  15
TORSDOF 6
ENDMDL
MODEL 7
REMARK VINA RESULT:      -7.4      3.329      7.764
REMARK  Name = 
REMARK  8 active torsions:
REMARK  status: ('A' for Active; 'I' for Inactive)
REMARK    1  A    between atoms: C_1  and  C_2
REMARK    2  A    between atoms: C_2  and  C_3
REMARK    3  A    between atoms: C_2  and  N_4
REMARK    4  A    between atoms: C_5  and  C_7
REMARK    5  A    between atoms: N_10  and  C_11
REMARK    6  A    between atoms: C_11  and  C_12
REMARK    7  A    between atoms: C_16  and  O_17
REMARK    8  A    between atoms: O_17  and  C_18
REMARK                            x       y       z     vdW  Elec       q    Type
REMARK                         _______ _______ _______ _____ _____    ______ ____
ROOT
ATOM      1  C   UNL     1       1.704   6.231  19.893  0.00  0.00    +0.000 C 
ENDROOT
BRANCH   1   5
ATOM      2  C   UNL     1       0.994  10.325  18.737  0.00  0.00    +0.000 C 
ATOM      3  C   UNL     1       1.685   9.360  17.773  0.00  0.00    +0.000 C 
ATOM      4  C   UNL     1       1.476   7.909  18.202  0.00  0.00    +0.000 C 
ATOM      5  N   UNL     1       1.979   7.650  19.561  0.00  0.00    +0.000 NA
ATOM      6  C   UNL     1       1.361   8.557  20.546  0.00  0.00    +0.000 C 
ATOM      7  C   UNL     1       1.494  10.036  20.158  0.00  0.00    +0.000 C 
BRANCH   2   9
ATOM      8  N   UNL     1      -1.032  10.345  17.356  0.00  0.00    +0.000 N 
ATOM      9  C   UNL     1      -0.534  10.248  18.641  0.00  0.00    +0.000 C 
ATOM     10  O   UNL     1      -1.264  10.133  19.620  0.00  0.00    +0.000 OA
ATOM     11  H   UNL     1      -0.388  10.373  16.576  0.00  0.00    +0.000 HD
BRANCH   8  13
ATOM     12  C   UNL     1      -3.213  11.461  17.452  0.00  0.00    +0.000 C 
ATOM     13  C   UNL     1      -2.455  10.192  17.074  0.00  0.00    +0.000 C 
ATOM     14  C   UNL     1      -2.679   9.850  15.603  0.00  0.00    +0.000 C 
ENDBRANCH   8  13
ENDBRANCH   2   9
ENDBRANCH   1   5
BRANCH   1  15
ATOM     15  C   UNL     1       2.265   5.222  18.915  0.00  0.00    +0.000 A 
ATOM     16  C   UNL     1       1.529   4.076  18.569  0.00  0.00    +0.000 A 
ATOM     17  C   UNL     1       2.038   3.162  17.643  0.00  0.00    +0.000 A 
ATOM     18  C   UNL     1       3.292   3.373  17.071  0.00  0.00    +0.000 A 
ATOM     19  C   UNL     1       4.043   4.494  17.426  0.00  0.00    +0.000 A 
ATOM     20  C   UNL     1       3.513   5.435  18.315  0.00  0.00    +0.000 A 
BRANCH  19  21
ATOM     21  O   UNL     1       5.268   4.626  16.811  0.00  0.00    +0.000 OA
BRANCH  21  22
ATOM     22  C   UNL     1       6.212   5.454  17.376  0.00  0.00    +0.000 A 
ATOM     23  C   UNL     1       6.551   6.709  16.860  0.00  0.00    +0.000 A 
ATOM     24  C   UNL     1       7.538   7.474  17.481  0.00  0.00    +0.000 A 
ATOM     25  C   UNL     1       8.152   7.011  18.644  0.00  0.00    +0.000 A 
ATOM     26  C   UNL     1       7.776   5.782  19.191  0.00  0.00    +0.000 A 
ATOM     27  C   UNL     1       6.806   5.006  18.558  0.00  0.00    +0.000 A 
ENDBRANCH  21  22
ENDBRANCH  19  21
ENDBRANCH   1  15
TORSDOF 6
ENDMDL
MODEL 8
REMARK VINA RESULT:      -7.3      5.279      9.964
REMARK  Name = 
REMARK  8 active torsions:
REMARK  status: ('A' for Active; 'I' for Inactive)
REMARK    1  A    between atoms: C_1  and  C_2
REMARK    2  A    between atoms: C_2  and  C_3
REMARK    3  A    between atoms: C_2  and  N_4
REMARK    4  A    between atoms: C_5  and  C_7
REMARK    5  A    between atoms: N_10  and  C_11
REMARK    6  A    between atoms: C_11  and  C_12
REMARK    7  A    between atoms: C_16  and  O_17
REMARK    8  A    between atoms: O_17  and  C_18
REMARK                            x       y       z     vdW  Elec       q    Type
REMARK                         _______ _______ _______ _____ _____    ______ ____
ROOT
ATOM      1  C   UNL     1      -0.163   9.709  21.152  0.00  0.00    +0.000 C 
ENDROOT
BRANCH   1   5
ATOM      2  C   UNL     1      -2.386  13.399  21.369  0.00  0.00    +0.000 C 
ATOM      3  C   UNL     1      -1.944  12.843  20.015  0.00  0.00    +0.000 C 
ATOM      4  C   UNL     1      -1.544  11.373  20.127  0.00  0.00    +0.000 C 
ATOM      5  N   UNL     1      -0.455  11.162  21.095  0.00  0.00    +0.000 NA
ATOM      6  C   UNL     1      -0.810  11.687  22.427  0.00  0.00    +0.000 C 
ATOM      7  C   UNL     1      -1.265  13.153  22.387  0.00  0.00    +0.000 C 
BRANCH   2   9
ATOM      8  N   UNL     1      -4.735  12.876  20.897  0.00  0.00    +0.000 N 
ATOM      9  C   UNL     1      -3.722  12.806  21.833  0.00  0.00    +0.000 C 
ATOM     10  O   UNL     1      -3.892  12.326  22.949  0.00  0.00    +0.000 OA
ATOM     11  H   UNL     1      -4.529  13.221  19.969  0.00  0.00    +0.000 HD
BRANCH   8  13
ATOM     12  C   UNL     1      -7.062  13.339  21.513  0.00  0.00    +0.000 C 
ATOM     13  C   UNL     1      -6.040  12.271  21.137  0.00  0.00    +0.000 C 
ATOM     14  C   UNL     1      -6.506  11.490  19.911  0.00  0.00    +0.000 C 
ENDBRANCH   8  13
ENDBRANCH   2   9
ENDBRANCH   1   5
BRANCH   1  15
ATOM     15  C   UNL     1       0.783   9.203  20.086  0.00  0.00    +0.000 A 
ATOM     16  C   UNL     1       0.992   9.939  18.907  0.00  0.00    +0.000 A 
ATOM     17  C   UNL     1       1.888   9.482  17.938  0.00  0.00    +0.000 A 
ATOM     18  C   UNL     1       2.567   8.279  18.126  0.00  0.00    +0.000 A 
ATOM     19  C   UNL     1       2.348   7.526  19.281  0.00  0.00    +0.000 A 
ATOM     20  C   UNL     1       1.489   8.008  20.274  0.00  0.00    +0.000 A 
BRANCH  19  21
ATOM     21  O   UNL     1       3.062   6.353  19.386  0.00  0.00    +0.000 OA
BRANCH  21  22
ATOM     22  C   UNL     1       2.378   5.168  19.538  0.00  0.00    +0.000 A 
ATOM     23  C   UNL     1       2.119   4.575  20.778  0.00  0.00    +0.000 A 
ATOM     24  C   UNL     1       1.440   3.359  20.841  0.00  0.00    +0.000 A 
ATOM     25  C   UNL     1       0.975   2.758  19.672  0.00  0.00    +0.000 A 
ATOM     26  C   UNL     1       1.185   3.375  18.438  0.00  0.00    +0.000 A 
ATOM     27  C   UNL     1       1.885   4.580  18.372  0.00  0.00    +0.000 A 
ENDBRANCH  21  22
ENDBRANCH  19  21
ENDBRANCH   1  15
TORSDOF 6
ENDMDL
MODEL 9
REMARK VINA RESULT:      -7.2      5.209     10.075
REMARK  Name = 
REMARK  8 active torsions:
REMARK  status: ('A' for Active; 'I' for Inactive)
REMARK    1  A    between atoms: C_1  and  C_2
REMARK    2  A    between atoms: C_2  and  C_3
REMARK    3  A    between atoms: C_2  and  N_4
REMARK    4  A    between atoms: C_5  and  C_7
REMARK    5  A    between atoms: N_10  and  C_11
REMARK    6  A    between atoms: C_11  and  C_12
REMARK    7  A    between atoms: C_16  and  O_17
REMARK    8  A    between atoms: O_17  and  C_18
REMARK                            x       y       z     vdW  Elec       q    Type
REMARK                         _______ _______ _______ _____ _____    ______ ____
ROOT
ATOM      1  C   UNL     1       0.258  10.063  20.871  0.00  0.00    +0.000 C 
ENDROOT
BRANCH   1   5
ATOM      2  C   UNL     1      -1.044  14.171  21.032  0.00  0.00    +0.000 C 
ATOM      3  C   UNL     1      -1.900  13.118  20.328  0.00  0.00    +0.000 C 
ATOM      4  C   UNL     1      -1.476  11.706  20.729  0.00  0.00    +0.000 C 
ATOM      5  N   UNL     1      -0.061  11.439  20.420  0.00  0.00    +0.000 NA
ATOM      6  C   UNL     1       0.826  12.429  21.060  0.00  0.00    +0.000 C 
ATOM      7  C   UNL     1       0.432  13.877  20.737  0.00  0.00    +0.000 C 
BRANCH   2   9
ATOM      8  N   UNL     1      -2.646  14.029  22.883  0.00  0.00    +0.000 N 
ATOM      9  C   UNL     1      -1.325  14.238  22.538  0.00  0.00    +0.000 C 
ATOM     10  O   UNL     1      -0.459  14.478  23.372  0.00  0.00    +0.000 OA
ATOM     11  H   UNL     1      -3.310  13.770  22.166  0.00  0.00    +0.000 HD
BRANCH   8  13
ATOM     12  C   UNL     1      -3.692  15.283  24.712  0.00  0.00    +0.000 C 
ATOM     13  C   UNL     1      -3.069  13.960  24.277  0.00  0.00    +0.000 C 
ATOM     14  C   UNL     1      -4.051  12.809  24.486  0.00  0.00    +0.000 C 
ENDBRANCH   8  13
ENDBRANCH   2   9
ENDBRANCH   1   5
BRANCH   1  15
ATOM     15  C   UNL     1       1.054   9.233  19.887  0.00  0.00    +0.000 A 
ATOM     16  C   UNL     1       1.221   9.664  18.560  0.00  0.00    +0.000 A 
ATOM     17  C   UNL     1       1.982   8.911  17.663  0.00  0.00    +0.000 A 
ATOM     18  C   UNL     1       2.564   7.712  18.075  0.00  0.00    +0.000 A 
ATOM     19  C   UNL     1       2.383   7.261  19.384  0.00  0.00    +0.000 A 
ATOM     20  C   UNL     1       1.663   8.041  20.296  0.00  0.00    +0.000 A 
BRANCH  19  21
ATOM     21  O   UNL     1       2.995   6.071  19.707  0.00  0.00    +0.000 OA
BRANCH  21  22
ATOM     22  C   UNL     1       2.306   4.894  19.516  0.00  0.00    +0.000 A 
ATOM     23  C   UNL     1       1.365   4.391  20.419  0.00  0.00    +0.000 A 
ATOM     24  C   UNL     1       0.731   3.176  20.160  0.00  0.00    +0.000 A 
ATOM     25  C   UNL     1       0.997   2.488  18.977  0.00  0.00    +0.000 A 
ATOM     26  C   UNL     1       1.895   3.016  18.049  0.00  0.00    +0.000 A 
ATOM     27  C   UNL     1       2.548   4.219  18.317  0.00  0.00    +0.000 A 
ENDBRANCH  21  22
ENDBRANCH  19  21
ENDBRANCH   1  15
TORSDOF 6
ENDMDL
