MODEL 1
REMARK VINA RESULT:      -7.2      0.000      0.000
REMARK  Name = 
REMARK  9 active torsions:
REMARK  status: ('A' for Active; 'I' for Inactive)
REMARK    1  A    between atoms: C_1  and  O_2
REMARK    2  A    between atoms: O_2  and  C_3
REMARK    3  A    between atoms: C_5  and  C_6
REMARK    4  A    between atoms: C_12  and  C_13
REMARK    5  A    between atoms: C_12  and  C_14
REMARK    6  A    between atoms: C_18  and  O_19
REMARK    7  A    between atoms: O_19  and  C_20
REMARK    8  A    between atoms: C_21  and  O_22
REMARK    9  A    between atoms: O_22  and  C_23
REMARK                            x       y       z     vdW  Elec       q    Type
REMARK                         _______ _______ _______ _____ _____    ______ ____
ROOT
ATOM      1  C   UNL     1       4.806   4.635  18.908  0.00  0.00    +0.000 A 
ATOM      2  C   UNL     1       4.312   5.900  18.539  0.00  0.00    +0.000 A 
ATOM      3  C   UNL     1       2.980   6.244  18.741  0.00  0.00    +0.000 A 
ATOM      4  C   UNL     1       2.110   5.237  19.170  0.00  0.00    +0.000 A 
ATOM      5  C   UNL     1       2.557   3.933  19.450  0.00  0.00    +0.000 A 
ATOM      6  C   UNL     1       3.926   3.616  19.328  0.00  0.00    +0.000 A 
ENDROOT
BRANCH   3   7
ATOM      7  C   UNL     1       2.471   7.603  18.544  0.00  0.00    +0.000 A 
ATOM      8  N   UNL     1       2.424   8.233  17.383  0.00  0.00    +0.000 NA
ATOM      9  N   UNL     1       1.793   9.444  17.550  0.00  0.00    +0.000 NA
ATOM     10  C   UNL     1       1.448   9.536  18.810  0.00  0.00    +0.000 A 
ATOM     11  N   UNL     1       1.867   8.419  19.477  0.00  0.00    +0.000 N 
ATOM     12  C   UNL     1       1.665   8.230  20.901  0.00  0.00    +0.000 C 
ATOM     13  C   UNL     1       0.619   9.193  21.516  0.00  0.00    +0.000 C 
ATOM     14  C   UNL     1       0.835   9.295  23.036  0.00  0.00    +0.000 C 
ATOM     15  C   UNL     1      -0.807   8.661  21.271  0.00  0.00    +0.000 C 
ATOM     16  C   UNL     1       0.797  10.590  20.885  0.00  0.00    +0.000 C 
ATOM     17  N   UNL     1       0.757  10.507  19.440  0.00  0.00    +0.000 N 
ATOM     18  H   UNL     1       0.644  11.380  18.932  0.00  0.00    +0.000 HD
ENDBRANCH   3   7
BRANCH   1  20
ATOM     19  C   UNL     1       6.740   4.635  17.543  0.00  0.00    +0.000 C 
ATOM     20  O   UNL     1       6.156   4.394  18.827  0.00  0.00    +0.000 OA
ENDBRANCH   1  20
BRANCH   5  21
ATOM     21  O   UNL     1       1.520   3.126  19.851  0.00  0.00    +0.000 OA
ATOM     22  C   UNL     1       1.266   2.937  21.235  0.00  0.00    +0.000 C 
ENDBRANCH   5  21
BRANCH   6  23
ATOM     23  O   UNL     1       4.271   2.325  19.616  0.00  0.00    +0.000 OA
ATOM     24  C   UNL     1       3.919   1.260  18.753  0.00  0.00    +0.000 C 
ENDBRANCH   6  23
TORSDOF 4
ENDMDL
MODEL 2
REMARK VINA RESULT:      -7.1      0.892      2.635
REMARK  Name = 
REMARK  9 active torsions:
REMARK  status: ('A' for Active; 'I' for Inactive)
REMARK    1  A    between atoms: C_1  and  O_2
REMARK    2  A    between atoms: O_2  and  C_3
REMARK    3  A    between atoms: C_5  and  C_6
REMARK    4  A    between atoms: C_12  and  C_13
REMARK    5  A    between atoms: C_12  and  C_14
REMARK    6  A    between atoms: C_18  and  O_19
REMARK    7  A    between atoms: O_19  and  C_20
REMARK    8  A    between atoms: C_21  and  O_22
REMARK    9  A    between atoms: O_22  and  C_23
REMARK                            x       y       z     vdW  Elec       q    Type
REMARK                         _______ _______ _______ _____ _____    ______ ____
ROOT
ATOM      1  C   UNL     1       2.467   4.027  18.203  0.00  0.00    +0.000 A 
ATOM      2  C   UNL     1       1.973   5.343  18.268  0.00  0.00    +0.000 A 
ATOM      3  C   UNL     1       2.813   6.421  18.523  0.00  0.00    +0.000 A 
ATOM      4  C   UNL     1       4.137   6.141  18.875  0.00  0.00    +0.000 A 
ATOM      5  C   UNL     1       4.635   4.826  18.918  0.00  0.00    +0.000 A 
ATOM      6  C   UNL     1       3.799   3.743  18.571  0.00  0.00    +0.000 A 
ENDROOT
BRANCH   3   7
ATOM      7  C   UNL     1       2.374   7.815  18.417  0.00  0.00    +0.000 A 
ATOM      8  N   UNL     1       2.367   8.523  17.300  0.00  0.00    +0.000 NA
ATOM      9  N   UNL     1       1.797   9.750  17.547  0.00  0.00    +0.000 NA
ATOM     10  C   UNL     1       1.449   9.774  18.809  0.00  0.00    +0.000 A 
ATOM     11  N   UNL     1       1.806   8.596  19.401  0.00  0.00    +0.000 N 
ATOM     12  C   UNL     1       1.586   8.322  20.808  0.00  0.00    +0.000 C 
ATOM     13  C   UNL     1       0.586   9.294  21.483  0.00  0.00    +0.000 C 
ATOM     14  C   UNL     1       0.798   9.283  23.007  0.00  0.00    +0.000 C 
ATOM     15  C   UNL     1      -0.863   8.852  21.199  0.00  0.00    +0.000 C 
ATOM     16  C   UNL     1       0.839  10.719  20.948  0.00  0.00    +0.000 C 
ATOM     17  N   UNL     1       0.803  10.735  19.501  0.00  0.00    +0.000 N 
ATOM     18  H   UNL     1       0.739  11.645  19.052  0.00  0.00    +0.000 HD
ENDBRANCH   3   7
BRANCH   1  20
ATOM     19  C   UNL     1       0.807   2.464  18.837  0.00  0.00    +0.000 C 
ATOM     20  O   UNL     1       1.629   3.015  17.804  0.00  0.00    +0.000 OA
ENDBRANCH   1  20
BRANCH   5  21
ATOM     21  O   UNL     1       5.957   4.805  19.291  0.00  0.00    +0.000 OA
ATOM     22  C   UNL     1       6.970   4.974  18.312  0.00  0.00    +0.000 C 
ENDBRANCH   5  21
BRANCH   6  23
ATOM     23  O   UNL     1       4.365   2.500  18.645  0.00  0.00    +0.000 OA
ATOM     24  C   UNL     1       4.440   1.798  19.871  0.00  0.00    +0.000 C 
ENDBRANCH   6  23
TORSDOF 4
ENDMDL
MODEL 3
REMARK VINA RESULT:      -6.9      0.501      2.654
REMARK  Name = 
REMARK  9 active torsions:
REMARK  status: ('A' for Active; 'I' for Inactive)
REMARK    1  A    between atoms: C_1  and  O_2
REMARK    2  A    between atoms: O_2  and  C_3
REMARK    3  A    between atoms: C_5  and  C_6
REMARK    4  A    between atoms: C_12  and  C_13
REMARK    5  A    between atoms: C_12  and  C_14
REMARK    6  A    between atoms: C_18  and  O_19
REMARK    7  A    between atoms: O_19  and  C_20
REMARK    8  A    between atoms: C_21  and  O_22
REMARK    9  A    between atoms: O_22  and  C_23
REMARK                            x       y       z     vdW  Elec       q    Type
REMARK                         _______ _______ _______ _____ _____    ______ ____
ROOT
ATOM      1  C   UNL     1       2.427   4.018  19.638  0.00  0.00    +0.000 A 
ATOM      2  C   UNL     1       2.083   5.382  19.586  0.00  0.00    +0.000 A 
ATOM      3  C   UNL     1       2.839   6.293  18.856  0.00  0.00    +0.000 A 
ATOM      4  C   UNL     1       4.044   5.842  18.309  0.00  0.00    +0.000 A 
ATOM      5  C   UNL     1       4.465   4.505  18.431  0.00  0.00    +0.000 A 
ATOM      6  C   UNL     1       3.649   3.567  19.097  0.00  0.00    +0.000 A 
ENDROOT
BRANCH   3   7
ATOM      7  C   UNL     1       2.414   7.675  18.626  0.00  0.00    +0.000 A 
ATOM      8  N   UNL     1       2.469   8.301  17.462  0.00  0.00    +0.000 NA
ATOM      9  N   UNL     1       1.894   9.544  17.589  0.00  0.00    +0.000 NA
ATOM     10  C   UNL     1       1.480   9.660  18.826  0.00  0.00    +0.000 A 
ATOM     11  N   UNL     1       1.800   8.527  19.519  0.00  0.00    +0.000 N 
ATOM     12  C   UNL     1       1.505   8.357  20.929  0.00  0.00    +0.000 C 
ATOM     13  C   UNL     1       0.477   9.377  21.479  0.00  0.00    +0.000 C 
ATOM     14  C   UNL     1       0.608   9.476  23.008  0.00  0.00    +0.000 C 
ATOM     15  C   UNL     1      -0.958   8.919  21.151  0.00  0.00    +0.000 C 
ATOM     16  C   UNL     1       0.766  10.759  20.856  0.00  0.00    +0.000 C 
ATOM     17  N   UNL     1       0.806  10.670  19.411  0.00  0.00    +0.000 N 
ATOM     18  H   UNL     1       0.770  11.545  18.895  0.00  0.00    +0.000 HD
ENDBRANCH   3   7
BRANCH   1  20
ATOM     19  C   UNL     1       1.780   2.957  21.652  0.00  0.00    +0.000 C 
ATOM     20  O   UNL     1       1.571   3.134  20.247  0.00  0.00    +0.000 OA
ENDBRANCH   1  20
BRANCH   5  21
ATOM     21  O   UNL     1       5.677   4.306  17.816  0.00  0.00    +0.000 OA
ATOM     22  C   UNL     1       5.817   4.565  16.428  0.00  0.00    +0.000 C 
ENDBRANCH   5  21
BRANCH   6  23
ATOM     23  O   UNL     1       4.139   2.292  19.173  0.00  0.00    +0.000 OA
ATOM     24  C   UNL     1       3.665   1.271  18.315  0.00  0.00    +0.000 C 
ENDBRANCH   6  23
TORSDOF 4
ENDMDL
MODEL 4
REMARK VINA RESULT:      -6.6      4.226      7.431
REMARK  Name = 
REMARK  9 active torsions:
REMARK  status: ('A' for Active; 'I' for Inactive)
REMARK    1  A    between atoms: C_1  and  O_2
REMARK    2  A    between atoms: O_2  and  C_3
REMARK    3  A    between atoms: C_5  and  C_6
REMARK    4  A    between atoms: C_12  and  C_13
REMARK    5  A    between atoms: C_12  and  C_14
REMARK    6  A    between atoms: C_18  and  O_19
REMARK    7  A    between atoms: O_19  and  C_20
REMARK    8  A    between atoms: C_21  and  O_22
REMARK    9  A    between atoms: O_22  and  C_23
REMARK                            x       y       z     vdW  Elec       q    Type
REMARK                         _______ _______ _______ _____ _____    ______ ____
ROOT
ATOM      1  C   UNL     1       3.134   5.893  17.989  0.00  0.00    +0.000 A 
ATOM      2  C   UNL     1       4.294   6.055  17.208  0.00  0.00    +0.000 A 
ATOM      3  C   UNL     1       4.860   4.986  16.521  0.00  0.00    +0.000 A 
ATOM      4  C   UNL     1       4.335   3.713  16.761  0.00  0.00    +0.000 A 
ATOM      5  C   UNL     1       3.238   3.506  17.616  0.00  0.00    +0.000 A 
ATOM      6  C   UNL     1       2.614   4.607  18.241  0.00  0.00    +0.000 A 
ENDROOT
BRANCH   3   7
ATOM      7  C   UNL     1       5.950   5.149  15.557  0.00  0.00    +0.000 A 
ATOM      8  N   UNL     1       7.142   5.647  15.838  0.00  0.00    +0.000 NA
ATOM      9  N   UNL     1       7.945   5.554  14.725  0.00  0.00    +0.000 NA
ATOM     10  C   UNL     1       7.241   4.985  13.779  0.00  0.00    +0.000 A 
ATOM     11  N   UNL     1       5.981   4.731  14.243  0.00  0.00    +0.000 N 
ATOM     12  C   UNL     1       4.945   4.133  13.422  0.00  0.00    +0.000 C 
ATOM     13  C   UNL     1       5.481   3.465  12.131  0.00  0.00    +0.000 C 
ATOM     14  C   UNL     1       4.344   3.331  11.103  0.00  0.00    +0.000 C 
ATOM     15  C   UNL     1       6.012   2.051  12.442  0.00  0.00    +0.000 C 
ATOM     16  C   UNL     1       6.596   4.351  11.538  0.00  0.00    +0.000 C 
ATOM     17  N   UNL     1       7.611   4.628  12.533  0.00  0.00    +0.000 N 
ATOM     18  H   UNL     1       8.490   5.013  12.198  0.00  0.00    +0.000 HD
ENDBRANCH   3   7
BRANCH   1  20
ATOM     19  C   UNL     1       2.687   8.207  17.772  0.00  0.00    +0.000 C 
ATOM     20  O   UNL     1       2.530   7.002  18.528  0.00  0.00    +0.000 OA
ENDBRANCH   1  20
BRANCH   5  21
ATOM     21  O   UNL     1       2.909   2.175  17.693  0.00  0.00    +0.000 OA
ATOM     22  C   UNL     1       3.625   1.319  18.571  0.00  0.00    +0.000 C 
ENDBRANCH   5  21
BRANCH   6  23
ATOM     23  O   UNL     1       1.558   4.313  19.059  0.00  0.00    +0.000 OA
ATOM     24  C   UNL     1       1.734   4.140  20.453  0.00  0.00    +0.000 C 
ENDBRANCH   6  23
TORSDOF 4
ENDMDL
MODEL 5
REMARK VINA RESULT:      -6.6      3.348      6.831
REMARK  Name = 
REMARK  9 active torsions:
REMARK  status: ('A' for Active; 'I' for Inactive)
REMARK    1  A    between atoms: C_1  and  O_2
REMARK    2  A    between atoms: O_2  and  C_3
REMARK    3  A    between atoms: C_5  and  C_6
REMARK    4  A    between atoms: C_12  and  C_13
REMARK    5  A    between atoms: C_12  and  C_14
REMARK    6  A    between atoms: C_18  and  O_19
REMARK    7  A    between atoms: O_19  and  C_20
REMARK    8  A    between atoms: C_21  and  O_22
REMARK    9  A    between atoms: O_22  and  C_23
REMARK                            x       y       z     vdW  Elec       q    Type
REMARK                         _______ _______ _______ _____ _____    ______ ____
ROOT
ATOM      1  C   UNL     1       1.170   8.551  20.361  0.00  0.00    +0.000 A 
ATOM      2  C   UNL     1       1.806   7.409  19.838  0.00  0.00    +0.000 A 
ATOM      3  C   UNL     1       2.543   7.466  18.660  0.00  0.00    +0.000 A 
ATOM      4  C   UNL     1       2.496   8.654  17.925  0.00  0.00    +0.000 A 
ATOM      5  C   UNL     1       1.784   9.782  18.372  0.00  0.00    +0.000 A 
ATOM      6  C   UNL     1       1.112   9.745  19.612  0.00  0.00    +0.000 A 
ENDROOT
BRANCH   3   7
ATOM      7  C   UNL     1       3.368   6.354  18.183  0.00  0.00    +0.000 A 
ATOM      8  N   UNL     1       4.600   6.471  17.716  0.00  0.00    +0.000 NA
ATOM      9  N   UNL     1       5.107   5.218  17.460  0.00  0.00    +0.000 NA
ATOM     10  C   UNL     1       4.185   4.347  17.788  0.00  0.00    +0.000 A 
ATOM     11  N   UNL     1       3.073   5.008  18.226  0.00  0.00    +0.000 N 
ATOM     12  C   UNL     1       1.860   4.325  18.634  0.00  0.00    +0.000 C 
ATOM     13  C   UNL     1       2.056   2.810  18.896  0.00  0.00    +0.000 C 
ATOM     14  C   UNL     1       0.701   2.087  18.807  0.00  0.00    +0.000 C 
ATOM     15  C   UNL     1       2.627   2.582  20.310  0.00  0.00    +0.000 C 
ATOM     16  C   UNL     1       3.006   2.238  17.823  0.00  0.00    +0.000 C 
ATOM     17  N   UNL     1       4.236   3.000  17.772  0.00  0.00    +0.000 N 
ATOM     18  H   UNL     1       5.013   2.586  17.264  0.00  0.00    +0.000 HD
ENDBRANCH   3   7
BRANCH   1  20
ATOM     19  C   UNL     1       1.249   9.210  22.633  0.00  0.00    +0.000 C 
ATOM     20  O   UNL     1       0.580   8.480  21.599  0.00  0.00    +0.000 OA
ENDBRANCH   1  20
BRANCH   5  21
ATOM     21  O   UNL     1       1.884  10.821  17.480  0.00  0.00    +0.000 OA
ATOM     22  C   UNL     1       2.532  12.024  17.867  0.00  0.00    +0.000 C 
ENDBRANCH   5  21
BRANCH   6  23
ATOM     23  O   UNL     1       0.442  10.883  19.966  0.00  0.00    +0.000 OA
ATOM     24  C   UNL     1      -0.917  11.073  19.621  0.00  0.00    +0.000 C 
ENDBRANCH   6  23
TORSDOF 4
ENDMDL
MODEL 6
REMARK VINA RESULT:      -6.5      3.274      6.650
REMARK  Name = 
REMARK  9 active torsions:
REMARK  status: ('A' for Active; 'I' for Inactive)
REMARK    1  A    between atoms: C_1  and  O_2
REMARK    2  A    between atoms: O_2  and  C_3
REMARK    3  A    between atoms: C_5  and  C_6
REMARK    4  A    between atoms: C_12  and  C_13
REMARK    5  A    between atoms: C_12  and  C_14
REMARK    6  A    between atoms: C_18  and  O_19
REMARK    7  A    between atoms: O_19  and  C_20
REMARK    8  A    between atoms: C_21  and  O_22
REMARK    9  A    between atoms: O_22  and  C_23
REMARK                            x       y       z     vdW  Elec       q    Type
REMARK                         _______ _______ _______ _____ _____    ______ ____
ROOT
ATOM      1  C   UNL     1       0.410   9.801  18.480  0.00  0.00    +0.000 A 
ATOM      2  C   UNL     1       1.362   8.948  17.890  0.00  0.00    +0.000 A 
ATOM      3  C   UNL     1       2.076   8.026  18.647  0.00  0.00    +0.000 A 
ATOM      4  C   UNL     1       1.938   8.084  20.037  0.00  0.00    +0.000 A 
ATOM      5  C   UNL     1       1.068   8.995  20.663  0.00  0.00    +0.000 A 
ATOM      6  C   UNL     1       0.280   9.868  19.883  0.00  0.00    +0.000 A 
ENDROOT
BRANCH   3   7
ATOM      7  C   UNL     1       2.934   7.001  18.049  0.00  0.00    +0.000 A 
ATOM      8  N   UNL     1       4.088   7.236  17.448  0.00  0.00    +0.000 NA
ATOM      9  N   UNL     1       4.670   6.038  17.101  0.00  0.00    +0.000 NA
ATOM     10  C   UNL     1       3.872   5.082  17.508  0.00  0.00    +0.000 A 
ATOM     11  N   UNL     1       2.765   5.633  18.088  0.00  0.00    +0.000 N 
ATOM     12  C   UNL     1       1.672   4.836  18.612  0.00  0.00    +0.000 C 
ATOM     13  C   UNL     1       2.029   3.341  18.809  0.00  0.00    +0.000 C 
ATOM     14  C   UNL     1       0.742   2.500  18.855  0.00  0.00    +0.000 C 
ATOM     15  C   UNL     1       2.778   3.142  20.142  0.00  0.00    +0.000 C 
ATOM     16  C   UNL     1       2.894   2.876  17.620  0.00  0.00    +0.000 C 
ATOM     17  N   UNL     1       4.039   3.746  17.450  0.00  0.00    +0.000 N 
ATOM     18  H   UNL     1       4.785   3.412  16.845  0.00  0.00    +0.000 HD
ENDBRANCH   3   7
BRANCH   1  20
ATOM     19  C   UNL     1      -1.658  10.044  17.355  0.00  0.00    +0.000 C 
ATOM     20  O   UNL     1      -0.374  10.589  17.674  0.00  0.00    +0.000 OA
ENDBRANCH   1  20
BRANCH   5  21
ATOM     21  O   UNL     1       1.108   8.864  22.029  0.00  0.00    +0.000 OA
ATOM     22  C   UNL     1      -0.099   8.881  22.776  0.00  0.00    +0.000 C 
ENDBRANCH   5  21
BRANCH   6  23
ATOM     23  O   UNL     1      -0.533  10.723  20.574  0.00  0.00    +0.000 OA
ATOM     24  C   UNL     1      -0.138  12.055  20.845  0.00  0.00    +0.000 C 
ENDBRANCH   6  23
TORSDOF 4
ENDMDL
MODEL 7
REMARK VINA RESULT:      -6.5      3.321      6.803
REMARK  Name = 
REMARK  9 active torsions:
REMARK  status: ('A' for Active; 'I' for Inactive)
REMARK    1  A    between atoms: C_1  and  O_2
REMARK    2  A    between atoms: O_2  and  C_3
REMARK    3  A    between atoms: C_5  and  C_6
REMARK    4  A    between atoms: C_12  and  C_13
REMARK    5  A    between atoms: C_12  and  C_14
REMARK    6  A    between atoms: C_18  and  O_19
REMARK    7  A    between atoms: O_19  and  C_20
REMARK    8  A    between atoms: C_21  and  O_22
REMARK    9  A    between atoms: O_22  and  C_23
REMARK                            x       y       z     vdW  Elec       q    Type
REMARK                         _______ _______ _______ _____ _____    ______ ____
ROOT
ATOM      1  C   UNL     1       1.137   9.309  20.904  0.00  0.00    +0.000 A 
ATOM      2  C   UNL     1       1.851   8.268  20.283  0.00  0.00    +0.000 A 
ATOM      3  C   UNL     1       1.875   8.131  18.899  0.00  0.00    +0.000 A 
ATOM      4  C   UNL     1       1.035   8.962  18.152  0.00  0.00    +0.000 A 
ATOM      5  C   UNL     1       0.231   9.946  18.755  0.00  0.00    +0.000 A 
ATOM      6  C   UNL     1       0.279  10.138  20.152  0.00  0.00    +0.000 A 
ENDROOT
BRANCH   3   7
ATOM      7  C   UNL     1       2.749   7.180  18.209  0.00  0.00    +0.000 A 
ATOM      8  N   UNL     1       3.856   7.502  17.561  0.00  0.00    +0.000 NA
ATOM      9  N   UNL     1       4.477   6.353  17.127  0.00  0.00    +0.000 NA
ATOM     10  C   UNL     1       3.750   5.339  17.528  0.00  0.00    +0.000 A 
ATOM     11  N   UNL     1       2.649   5.805  18.190  0.00  0.00    +0.000 N 
ATOM     12  C   UNL     1       1.627   4.930  18.731  0.00  0.00    +0.000 C 
ATOM     13  C   UNL     1       2.067   3.448  18.836  0.00  0.00    +0.000 C 
ATOM     14  C   UNL     1       0.827   2.540  18.908  0.00  0.00    +0.000 C 
ATOM     15  C   UNL     1       2.895   3.226  20.118  0.00  0.00    +0.000 C 
ATOM     16  C   UNL     1       2.889   3.082  17.583  0.00  0.00    +0.000 C 
ATOM     17  N   UNL     1       3.978   4.017  17.396  0.00  0.00    +0.000 N 
ATOM     18  H   UNL     1       4.706   3.751  16.739  0.00  0.00    +0.000 HD
ENDBRANCH   3   7
BRANCH   1  20
ATOM     19  C   UNL     1       0.077   9.236  23.019  0.00  0.00    +0.000 C 
ATOM     20  O   UNL     1       1.263   9.491  22.260  0.00  0.00    +0.000 OA
ENDBRANCH   1  20
BRANCH   5  21
ATOM     21  O   UNL     1      -0.506  10.630  17.819  0.00  0.00    +0.000 OA
ATOM     22  C   UNL     1      -1.767  10.127  17.407  0.00  0.00    +0.000 C 
ENDBRANCH   5  21
BRANCH   6  23
ATOM     23  O   UNL     1      -0.538  11.114  20.653  0.00  0.00    +0.000 OA
ATOM     24  C   UNL     1      -0.071  12.436  20.848  0.00  0.00    +0.000 C 
ENDBRANCH   6  23
TORSDOF 4
ENDMDL
MODEL 8
REMARK VINA RESULT:      -6.5      4.263      7.562
REMARK  Name = 
REMARK  9 active torsions:
REMARK  status: ('A' for Active; 'I' for Inactive)
REMARK    1  A    between atoms: C_1  and  O_2
REMARK    2  A    between atoms: O_2  and  C_3
REMARK    3  A    between atoms: C_5  and  C_6
REMARK    4  A    between atoms: C_12  and  C_13
REMARK    5  A    between atoms: C_12  and  C_14
REMARK    6  A    between atoms: C_18  and  O_19
REMARK    7  A    between atoms: O_19  and  C_20
REMARK    8  A    between atoms: C_21  and  O_22
REMARK    9  A    between atoms: O_22  and  C_23
REMARK                            x       y       z     vdW  Elec       q    Type
REMARK                         _______ _______ _______ _____ _____    ______ ____
ROOT
ATOM      1  C   UNL     1       3.259   3.458  17.698  0.00  0.00    +0.000 A 
ATOM      2  C   UNL     1       4.191   3.639  16.660  0.00  0.00    +0.000 A 
ATOM      3  C   UNL     1       4.794   4.871  16.433  0.00  0.00    +0.000 A 
ATOM      4  C   UNL     1       4.323   5.966  17.164  0.00  0.00    +0.000 A 
ATOM      5  C   UNL     1       3.318   5.835  18.140  0.00  0.00    +0.000 A 
ATOM      6  C   UNL     1       2.775   4.565  18.427  0.00  0.00    +0.000 A 
ENDROOT
BRANCH   3   7
ATOM      7  C   UNL     1       5.898   5.055  15.489  0.00  0.00    +0.000 A 
ATOM      8  N   UNL     1       7.082   5.558  15.796  0.00  0.00    +0.000 NA
ATOM      9  N   UNL     1       7.903   5.487  14.696  0.00  0.00    +0.000 NA
ATOM     10  C   UNL     1       7.218   4.927  13.730  0.00  0.00    +0.000 A 
ATOM     11  N   UNL     1       5.953   4.658  14.170  0.00  0.00    +0.000 N 
ATOM     12  C   UNL     1       4.935   4.065  13.324  0.00  0.00    +0.000 C 
ATOM     13  C   UNL     1       5.496   3.419  12.032  0.00  0.00    +0.000 C 
ATOM     14  C   UNL     1       4.376   3.293  10.984  0.00  0.00    +0.000 C 
ATOM     15  C   UNL     1       6.032   2.005  12.330  0.00  0.00    +0.000 C 
ATOM     16  C   UNL     1       6.614   4.322  11.470  0.00  0.00    +0.000 C 
ATOM     17  N   UNL     1       7.611   4.592  12.485  0.00  0.00    +0.000 N 
ATOM     18  H   UNL     1       8.492   4.987  12.170  0.00  0.00    +0.000 HD
ENDBRANCH   3   7
BRANCH   1  20
ATOM     19  C   UNL     1       3.694   1.384  18.751  0.00  0.00    +0.000 C 
ATOM     20  O   UNL     1       2.803   2.193  17.977  0.00  0.00    +0.000 OA
ENDBRANCH   1  20
BRANCH   5  21
ATOM     21  O   UNL     1       3.024   7.046  18.718  0.00  0.00    +0.000 OA
ATOM     22  C   UNL     1       2.438   8.077  17.939  0.00  0.00    +0.000 C 
ENDBRANCH   5  21
BRANCH   6  23
ATOM     23  O   UNL     1       1.801   4.531  19.386  0.00  0.00    +0.000 OA
ATOM     24  C   UNL     1       2.120   4.342  20.752  0.00  0.00    +0.000 C 
ENDBRANCH   6  23
TORSDOF 4
ENDMDL
MODEL 9
REMARK VINA RESULT:      -6.5      2.162      3.280
REMARK  Name = 
REMARK  9 active torsions:
REMARK  status: ('A' for Active; 'I' for Inactive)
REMARK    1  A    between atoms: C_1  and  O_2
REMARK    2  A    between atoms: O_2  and  C_3
REMARK    3  A    between atoms: C_5  and  C_6
REMARK    4  A    between atoms: C_12  and  C_13
REMARK    5  A    between atoms: C_12  and  C_14
REMARK    6  A    between atoms: C_18  and  O_19
REMARK    7  A    between atoms: O_19  and  C_20
REMARK    8  A    between atoms: C_21  and  O_22
REMARK    9  A    between atoms: O_22  and  C_23
REMARK                            x       y       z     vdW  Elec       q    Type
REMARK                         _______ _______ _______ _____ _____    ______ ____
ROOT
ATOM      1  C   UNL     1       2.997   6.718  18.422  0.00  0.00    +0.000 A 
ATOM      2  C   UNL     1       2.307   7.767  19.056  0.00  0.00    +0.000 A 
ATOM      3  C   UNL     1       1.713   7.596  20.301  0.00  0.00    +0.000 A 
ATOM      4  C   UNL     1       1.682   6.302  20.830  0.00  0.00    +0.000 A 
ATOM      5  C   UNL     1       2.276   5.211  20.170  0.00  0.00    +0.000 A 
ATOM      6  C   UNL     1       2.954   5.410  18.950  0.00  0.00    +0.000 A 
ENDROOT
BRANCH   3   7
ATOM      7  C   UNL     1       1.149   8.705  21.074  0.00  0.00    +0.000 A 
ATOM      8  N   UNL     1       1.390   8.937  22.353  0.00  0.00    +0.000 NA
ATOM      9  N   UNL     1       0.782  10.115  22.721  0.00  0.00    +0.000 NA
ATOM     10  C   UNL     1       0.188  10.599  21.659  0.00  0.00    +0.000 A 
ATOM     11  N   UNL     1       0.371   9.744  20.609  0.00  0.00    +0.000 N 
ATOM     12  C   UNL     1      -0.194   9.980  19.294  0.00  0.00    +0.000 C 
ATOM     13  C   UNL     1      -0.681  11.435  19.077  0.00  0.00    +0.000 C 
ATOM     14  C   UNL     1      -1.699  11.477  17.923  0.00  0.00    +0.000 C 
ATOM     15  C   UNL     1       0.505  12.345  18.700  0.00  0.00    +0.000 C 
ATOM     16  C   UNL     1      -1.363  11.929  20.369  0.00  0.00    +0.000 C 
ATOM     17  N   UNL     1      -0.485  11.757  21.508  0.00  0.00    +0.000 N 
ATOM     18  H   UNL     1      -0.740  12.244  22.363  0.00  0.00    +0.000 HD
ENDBRANCH   3   7
BRANCH   1  20
ATOM     19  C   UNL     1       5.116   6.890  17.380  0.00  0.00    +0.000 C 
ATOM     20  O   UNL     1       3.692   6.975  17.265  0.00  0.00    +0.000 OA
ENDBRANCH   1  20
BRANCH   5  21
ATOM     21  O   UNL     1       2.113   4.048  20.882  0.00  0.00    +0.000 OA
ATOM     22  C   UNL     1       1.013   3.196  20.601  0.00  0.00    +0.000 C 
ENDBRANCH   5  21
BRANCH   6  23
ATOM     23  O   UNL     1       3.498   4.294  18.376  0.00  0.00    +0.000 OA
ATOM     24  C   UNL     1       2.817   3.585  17.357  0.00  0.00    +0.000 C 
ENDBRANCH   6  23
TORSDOF 4
ENDMDL
