MODEL 1
REMARK VINA RESULT:      -7.6      0.000      0.000
REMARK  Name = 
REMARK  7 active torsions:
REMARK  status: ('A' for Active; 'I' for Inactive)
REMARK    1  A    between atoms: C_2  and  C_3
REMARK    2  A    between atoms: C_3  and  N_4
REMARK    3  A    between atoms: C_5  and  C_7
REMARK    4  A    between atoms: C_7  and  C_8
REMARK    5  A    between atoms: C_11  and  C_12
REMARK    6  A    between atoms: C_12  and  C_13
REMARK    7  A    between atoms: C_18  and  C_19
REMARK                            x       y       z     vdW  Elec       q    Type
REMARK                         _______ _______ _______ _____ _____    ______ ____
ROOT
ATOM      1  C   UNL     1       2.157   9.141  17.995  0.00  0.00    +0.000 C 
ENDROOT
BRANCH   1   2
ATOM      2  C   UNL     1       0.907   9.886  18.352  0.00  0.00    +0.000 A 
ATOM      3  N   UNL     1      -0.215   9.806  17.668  0.00  0.00    +0.000 NA
ATOM      4  C   UNL     1      -1.189  10.589  18.263  0.00  0.00    +0.000 A 
ATOM      5  C   UNL     1      -2.517  10.725  17.820  0.00  0.00    +0.000 A 
ATOM      6  C   UNL     1      -3.413  11.525  18.540  0.00  0.00    +0.000 A 
ATOM      7  C   UNL     1      -3.029  12.208  19.705  0.00  0.00    +0.000 A 
ATOM      8  C   UNL     1      -1.685  12.104  20.123  0.00  0.00    +0.000 A 
ATOM      9  C   UNL     1      -0.792  11.288  19.402  0.00  0.00    +0.000 A 
ATOM     10  S   UNL     1       0.872  10.951  19.702  0.00  0.00    +0.000 S 
BRANCH   7  11
ATOM     11  C   UNL     1      -4.003  13.012  20.475  0.00  0.00    +0.000 A 
ATOM     12  C   UNL     1      -5.290  13.290  20.000  0.00  0.00    +0.000 A 
ATOM     13  C   UNL     1      -6.151  14.081  20.759  0.00  0.00    +0.000 A 
ATOM     14  C   UNL     1      -5.719  14.568  21.981  0.00  0.00    +0.000 A 
ATOM     15 CL   UNL     1      -6.739  15.558  22.939  0.00  0.00    +0.000 Cl
ATOM     16  C   UNL     1      -4.440  14.239  22.400  0.00  0.00    +0.000 A 
ATOM     17  N   UNL     1      -3.581  13.472  21.681  0.00  0.00    +0.000 NA
ENDBRANCH   7  11
ENDBRANCH   1   2
BRANCH   1  21
ATOM     18  C   UNL     1       2.301   5.670  18.677  0.00  0.00    +0.000 A 
ATOM     19  N   UNL     1       2.273   6.080  19.927  0.00  0.00    +0.000 NA
ATOM     20  N   UNL     1       2.221   7.455  19.884  0.00  0.00    +0.000 NA
ATOM     21  C   UNL     1       2.200   7.793  18.610  0.00  0.00    +0.000 A 
ATOM     22  O   UNL     1       2.266   6.702  17.777  0.00  0.00    +0.000 OA
BRANCH  18  23
ATOM     23  C   UNL     1       2.339   4.292  18.156  0.00  0.00    +0.000 C 
BRANCH  23  25
ATOM     24  N   UNL     1       4.397   4.925  16.912  0.00  0.00    +0.000 N 
ATOM     25  C   UNL     1       3.689   3.937  17.568  0.00  0.00    +0.000 C 
ATOM     26  O   UNL     1       4.155   2.807  17.734  0.00  0.00    +0.000 OA
ATOM     27  H   UNL     1       4.077   5.891  16.966  0.00  0.00    +0.000 HD
BRANCH  24  28
ATOM     28  C   UNL     1       5.733   4.685  16.412  0.00  0.00    +0.000 C 
ATOM     29  C   UNL     1       6.159   5.276  15.076  0.00  0.00    +0.000 C 
ATOM     30  C   UNL     1       5.892   3.810  15.181  0.00  0.00    +0.000 C 
BRANCH  28  32
ATOM     31  N   UNL     1       7.556   4.583  18.282  0.00  0.00    +0.000 NA
ATOM     32  C   UNL     1       6.764   4.633  17.432  0.00  0.00    +0.000 C 
ENDBRANCH  28  32
ENDBRANCH  24  28
ENDBRANCH  23  25
ENDBRANCH  18  23
ENDBRANCH   1  21
TORSDOF 7
ENDMDL
MODEL 2
REMARK VINA RESULT:      -7.6      2.151      2.567
REMARK  Name = 
REMARK  7 active torsions:
REMARK  status: ('A' for Active; 'I' for Inactive)
REMARK    1  A    between atoms: C_2  and  C_3
REMARK    2  A    between atoms: C_3  and  N_4
REMARK    3  A    between atoms: C_5  and  C_7
REMARK    4  A    between atoms: C_7  and  C_8
REMARK    5  A    between atoms: C_11  and  C_12
REMARK    6  A    between atoms: C_12  and  C_13
REMARK    7  A    between atoms: C_18  and  C_19
REMARK                            x       y       z     vdW  Elec       q    Type
REMARK                         _______ _______ _______ _____ _____    ______ ____
ROOT
ATOM      1  C   UNL     1       2.294   8.037  18.834  0.00  0.00    +0.000 C 
ENDROOT
BRANCH   1   2
ATOM      2  C   UNL     1       1.358   8.845  19.680  0.00  0.00    +0.000 A 
ATOM      3  N   UNL     1       1.152   8.624  20.961  0.00  0.00    +0.000 NA
ATOM      4  C   UNL     1       0.256   9.552  21.463  0.00  0.00    +0.000 A 
ATOM      5  C   UNL     1      -0.178   9.635  22.798  0.00  0.00    +0.000 A 
ATOM      6  C   UNL     1      -1.063  10.650  23.181  0.00  0.00    +0.000 A 
ATOM      7  C   UNL     1      -1.542  11.602  22.268  0.00  0.00    +0.000 A 
ATOM      8  C   UNL     1      -1.140  11.490  20.920  0.00  0.00    +0.000 A 
ATOM      9  C   UNL     1      -0.239  10.475  20.543  0.00  0.00    +0.000 A 
ATOM     10  S   UNL     1       0.442  10.131  18.998  0.00  0.00    +0.000 S 
BRANCH   7  11
ATOM     11  C   UNL     1      -2.443  12.693  22.703  0.00  0.00    +0.000 A 
ATOM     12  C   UNL     1      -2.508  13.922  22.038  0.00  0.00    +0.000 A 
ATOM     13  C   UNL     1      -3.354  14.922  22.515  0.00  0.00    +0.000 A 
ATOM     14  C   UNL     1      -4.127  14.674  23.637  0.00  0.00    +0.000 A 
ATOM     15 CL   UNL     1      -5.167  15.881  24.268  0.00  0.00    +0.000 Cl
ATOM     16  C   UNL     1      -4.027  13.428  24.235  0.00  0.00    +0.000 A 
ATOM     17  N   UNL     1      -3.212  12.437  23.792  0.00  0.00    +0.000 NA
ENDBRANCH   7  11
ENDBRANCH   1   2
BRANCH   1  21
ATOM     18  C   UNL     1       3.522   4.830  19.693  0.00  0.00    +0.000 A 
ATOM     19  N   UNL     1       2.450   4.803  20.455  0.00  0.00    +0.000 NA
ATOM     20  N   UNL     1       1.809   6.007  20.268  0.00  0.00    +0.000 NA
ATOM     21  C   UNL     1       2.521   6.681  19.388  0.00  0.00    +0.000 A 
ATOM     22  O   UNL     1       3.644   5.998  18.986  0.00  0.00    +0.000 OA
BRANCH  18  23
ATOM     23  C   UNL     1       4.547   3.789  19.500  0.00  0.00    +0.000 C 
BRANCH  23  25
ATOM     24  N   UNL     1       5.111   4.451  17.171  0.00  0.00    +0.000 N 
ATOM     25  C   UNL     1       5.564   4.171  18.446  0.00  0.00    +0.000 C 
ATOM     26  O   UNL     1       6.754   4.285  18.751  0.00  0.00    +0.000 OA
ATOM     27  H   UNL     1       4.110   4.542  17.003  0.00  0.00    +0.000 HD
BRANCH  24  28
ATOM     28  C   UNL     1       6.012   4.917  16.140  0.00  0.00    +0.000 C 
ATOM     29  C   UNL     1       5.581   4.874  14.682  0.00  0.00    +0.000 C 
ATOM     30  C   UNL     1       6.594   3.894  15.180  0.00  0.00    +0.000 C 
BRANCH  28  32
ATOM     31  N   UNL     1       7.515   6.957  16.780  0.00  0.00    +0.000 NA
ATOM     32  C   UNL     1       6.833   6.053  16.518  0.00  0.00    +0.000 C 
ENDBRANCH  28  32
ENDBRANCH  24  28
ENDBRANCH  23  25
ENDBRANCH  18  23
ENDBRANCH   1  21
TORSDOF 7
ENDMDL
MODEL 3
REMARK VINA RESULT:      -7.5      3.237      4.511
REMARK  Name = 
REMARK  7 active torsions:
REMARK  status: ('A' for Active; 'I' for Inactive)
REMARK    1  A    between atoms: C_2  and  C_3
REMARK    2  A    between atoms: C_3  and  N_4
REMARK    3  A    between atoms: C_5  and  C_7
REMARK    4  A    between atoms: C_7  and  C_8
REMARK    5  A    between atoms: C_11  and  C_12
REMARK    6  A    between atoms: C_12  and  C_13
REMARK    7  A    between atoms: C_18  and  C_19
REMARK                            x       y       z     vdW  Elec       q    Type
REMARK                         _______ _______ _______ _____ _____    ______ ____
ROOT
ATOM      1  C   UNL     1       1.765   4.877  21.009  0.00  0.00    +0.000 C 
ENDROOT
BRANCH   1   2
ATOM      2  C   UNL     1       1.710   6.285  20.500  0.00  0.00    +0.000 A 
ATOM      3  N   UNL     1       2.192   6.663  19.335  0.00  0.00    +0.000 NA
ATOM      4  C   UNL     1       1.965   8.015  19.144  0.00  0.00    +0.000 A 
ATOM      5  C   UNL     1       2.321   8.754  18.002  0.00  0.00    +0.000 A 
ATOM      6  C   UNL     1       1.997  10.114  17.924  0.00  0.00    +0.000 A 
ATOM      7  C   UNL     1       1.322  10.778  18.959  0.00  0.00    +0.000 A 
ATOM      8  C   UNL     1       1.004  10.044  20.122  0.00  0.00    +0.000 A 
ATOM      9  C   UNL     1       1.320   8.673  20.190  0.00  0.00    +0.000 A 
ATOM     10  S   UNL     1       1.020   7.539  21.453  0.00  0.00    +0.000 S 
BRANCH   7  11
ATOM     11  C   UNL     1       0.950  12.205  18.838  0.00  0.00    +0.000 A 
ATOM     12  C   UNL     1       1.901  13.215  18.650  0.00  0.00    +0.000 A 
ATOM     13  C   UNL     1       1.491  14.545  18.573  0.00  0.00    +0.000 A 
ATOM     14  C   UNL     1       0.142  14.842  18.674  0.00  0.00    +0.000 A 
ATOM     15 CL   UNL     1      -0.404  16.465  18.603  0.00  0.00    +0.000 Cl
ATOM     16  C   UNL     1      -0.747  13.792  18.840  0.00  0.00    +0.000 A 
ATOM     17  N   UNL     1      -0.375  12.489  18.918  0.00  0.00    +0.000 NA
ENDBRANCH   7  11
ENDBRANCH   1   2
BRANCH   1  21
ATOM     18  C   UNL     1       2.955   2.856  18.358  0.00  0.00    +0.000 A 
ATOM     19  N   UNL     1       1.760   2.312  18.453  0.00  0.00    +0.000 NA
ATOM     20  N   UNL     1       1.111   2.974  19.471  0.00  0.00    +0.000 NA
ATOM     21  C   UNL     1       1.946   3.893  19.917  0.00  0.00    +0.000 A 
ATOM     22  O   UNL     1       3.154   3.865  19.262  0.00  0.00    +0.000 OA
BRANCH  18  23
ATOM     23  C   UNL     1       4.044   2.536  17.419  0.00  0.00    +0.000 C 
BRANCH  23  25
ATOM     24  N   UNL     1       5.889   4.198  17.544  0.00  0.00    +0.000 N 
ATOM     25  C   UNL     1       4.740   3.778  16.902  0.00  0.00    +0.000 C 
ATOM     26  O   UNL     1       4.313   4.350  15.896  0.00  0.00    +0.000 OA
ATOM     27  H   UNL     1       6.323   3.595  18.242  0.00  0.00    +0.000 HD
BRANCH  24  28
ATOM     28  C   UNL     1       6.659   5.317  17.047  0.00  0.00    +0.000 C 
ATOM     29  C   UNL     1       7.558   6.098  17.995  0.00  0.00    +0.000 C 
ATOM     30  C   UNL     1       6.283   6.712  17.515  0.00  0.00    +0.000 C 
BRANCH  28  32
ATOM     31  N   UNL     1       7.609   5.047  14.628  0.00  0.00    +0.000 NA
ATOM     32  C   UNL     1       7.164   5.155  15.696  0.00  0.00    +0.000 C 
ENDBRANCH  28  32
ENDBRANCH  24  28
ENDBRANCH  23  25
ENDBRANCH  18  23
ENDBRANCH   1  21
TORSDOF 7
ENDMDL
MODEL 4
REMARK VINA RESULT:      -7.4      1.091      1.196
REMARK  Name = 
REMARK  7 active torsions:
REMARK  status: ('A' for Active; 'I' for Inactive)
REMARK    1  A    between atoms: C_2  and  C_3
REMARK    2  A    between atoms: C_3  and  N_4
REMARK    3  A    between atoms: C_5  and  C_7
REMARK    4  A    between atoms: C_7  and  C_8
REMARK    5  A    between atoms: C_11  and  C_12
REMARK    6  A    between atoms: C_12  and  C_13
REMARK    7  A    between atoms: C_18  and  C_19
REMARK                            x       y       z     vdW  Elec       q    Type
REMARK                         _______ _______ _______ _____ _____    ______ ____
ROOT
ATOM      1  C   UNL     1       1.799   9.029  17.897  0.00  0.00    +0.000 C 
ENDROOT
BRANCH   1   2
ATOM      2  C   UNL     1       0.651   9.869  18.368  0.00  0.00    +0.000 A 
ATOM      3  N   UNL     1      -0.532   9.885  17.791  0.00  0.00    +0.000 NA
ATOM      4  C   UNL     1      -1.381  10.738  18.474  0.00  0.00    +0.000 A 
ATOM      5  C   UNL     1      -2.728  10.984  18.155  0.00  0.00    +0.000 A 
ATOM      6  C   UNL     1      -3.487  11.846  18.956  0.00  0.00    +0.000 A 
ATOM      7  C   UNL     1      -2.945  12.487  20.080  0.00  0.00    +0.000 A 
ATOM      8  C   UNL     1      -1.581  12.272  20.373  0.00  0.00    +0.000 A 
ATOM      9  C   UNL     1      -0.826  11.393  19.572  0.00  0.00    +0.000 A 
ATOM     10  S   UNL     1       0.826  10.922  19.717  0.00  0.00    +0.000 S 
BRANCH   7  11
ATOM     11  C   UNL     1      -3.776  13.360  20.938  0.00  0.00    +0.000 A 
ATOM     12  C   UNL     1      -4.992  13.901  20.504  0.00  0.00    +0.000 A 
ATOM     13  C   UNL     1      -5.715  14.742  21.348  0.00  0.00    +0.000 A 
ATOM     14  C   UNL     1      -5.219  15.019  22.611  0.00  0.00    +0.000 A 
ATOM     15 CL   UNL     1      -6.066  16.062  23.675  0.00  0.00    +0.000 Cl
ATOM     16  C   UNL     1      -4.018  14.435  22.983  0.00  0.00    +0.000 A 
ATOM     17  N   UNL     1      -3.294  13.613  22.182  0.00  0.00    +0.000 NA
ENDBRANCH   7  11
ENDBRANCH   1   2
BRANCH   1  21
ATOM     18  C   UNL     1       2.571   5.851  19.250  0.00  0.00    +0.000 A 
ATOM     19  N   UNL     1       2.204   6.422  20.377  0.00  0.00    +0.000 NA
ATOM     20  N   UNL     1       1.858   7.717  20.062  0.00  0.00    +0.000 NA
ATOM     21  C   UNL     1       2.017   7.844  18.760  0.00  0.00    +0.000 A 
ATOM     22  O   UNL     1       2.488   6.694  18.173  0.00  0.00    +0.000 OA
BRANCH  18  23
ATOM     23  C   UNL     1       3.018   4.466  19.017  0.00  0.00    +0.000 C 
BRANCH  23  25
ATOM     24  N   UNL     1       5.179   5.433  18.258  0.00  0.00    +0.000 N 
ATOM     25  C   UNL     1       4.518   4.367  18.839  0.00  0.00    +0.000 C 
ATOM     26  O   UNL     1       5.126   3.381  19.262  0.00  0.00    +0.000 OA
ATOM     27  H   UNL     1       4.680   6.308  18.103  0.00  0.00    +0.000 HD
BRANCH  24  28
ATOM     28  C   UNL     1       6.620   5.450  18.145  0.00  0.00    +0.000 C 
ATOM     29  C   UNL     1       7.282   6.228  17.017  0.00  0.00    +0.000 C 
ATOM     30  C   UNL     1       7.257   4.734  16.966  0.00  0.00    +0.000 C 
BRANCH  28  32
ATOM     31  N   UNL     1       7.911   5.509  20.417  0.00  0.00    +0.000 NA
ATOM     32  C   UNL     1       7.330   5.457  19.411  0.00  0.00    +0.000 C 
ENDBRANCH  28  32
ENDBRANCH  24  28
ENDBRANCH  23  25
ENDBRANCH  18  23
ENDBRANCH   1  21
TORSDOF 7
ENDMDL
MODEL 5
REMARK VINA RESULT:      -7.3      4.646     11.107
REMARK  Name = 
REMARK  7 active torsions:
REMARK  status: ('A' for Active; 'I' for Inactive)
REMARK    1  A    between atoms: C_2  and  C_3
REMARK    2  A    between atoms: C_3  and  N_4
REMARK    3  A    between atoms: C_5  and  C_7
REMARK    4  A    between atoms: C_7  and  C_8
REMARK    5  A    between atoms: C_11  and  C_12
REMARK    6  A    between atoms: C_12  and  C_13
REMARK    7  A    between atoms: C_18  and  C_19
REMARK                            x       y       z     vdW  Elec       q    Type
REMARK                         _______ _______ _______ _____ _____    ______ ____
ROOT
ATOM      1  C   UNL     1      -0.223  10.257  21.460  0.00  0.00    +0.000 C 
ENDROOT
BRANCH   1   2
ATOM      2  C   UNL     1       0.651   9.278  20.739  0.00  0.00    +0.000 A 
ATOM      3  N   UNL     1       0.919   8.067  21.182  0.00  0.00    +0.000 NA
ATOM      4  C   UNL     1       1.730   7.402  20.280  0.00  0.00    +0.000 A 
ATOM      5  C   UNL     1       2.195   6.081  20.414  0.00  0.00    +0.000 A 
ATOM      6  C   UNL     1       2.983   5.514  19.405  0.00  0.00    +0.000 A 
ATOM      7  C   UNL     1       3.334   6.226  18.248  0.00  0.00    +0.000 A 
ATOM      8  C   UNL     1       2.903   7.565  18.137  0.00  0.00    +0.000 A 
ATOM      9  C   UNL     1       2.100   8.126  19.149  0.00  0.00    +0.000 A 
ATOM     10  S   UNL     1       1.410   9.702  19.254  0.00  0.00    +0.000 S 
BRANCH   7  11
ATOM     11  C   UNL     1       4.132   5.594  17.174  0.00  0.00    +0.000 A 
ATOM     12  C   UNL     1       4.232   4.205  17.032  0.00  0.00    +0.000 A 
ATOM     13  C   UNL     1       5.024   3.669  16.017  0.00  0.00    +0.000 A 
ATOM     14  C   UNL     1       5.691   4.527  15.158  0.00  0.00    +0.000 A 
ATOM     15 CL   UNL     1       6.689   3.912  13.909  0.00  0.00    +0.000 Cl
ATOM     16  C   UNL     1       5.533   5.891  15.344  0.00  0.00    +0.000 A 
ATOM     17  N   UNL     1       4.769   6.439  16.323  0.00  0.00    +0.000 NA
ENDBRANCH   7  11
ENDBRANCH   1   2
BRANCH   1  21
ATOM     18  C   UNL     1      -2.007  11.684  18.757  0.00  0.00    +0.000 A 
ATOM     19  N   UNL     1      -2.016  12.745  19.535  0.00  0.00    +0.000 NA
ATOM     20  N   UNL     1      -1.354  12.388  20.688  0.00  0.00    +0.000 NA
ATOM     21  C   UNL     1      -0.965  11.138  20.528  0.00  0.00    +0.000 A 
ATOM     22  O   UNL     1      -1.362  10.615  19.321  0.00  0.00    +0.000 OA
BRANCH  18  23
ATOM     23  C   UNL     1      -2.561  11.528  17.400  0.00  0.00    +0.000 C 
BRANCH  23  25
ATOM     24  N   UNL     1      -4.743  11.627  18.587  0.00  0.00    +0.000 N 
ATOM     25  C   UNL     1      -4.067  11.375  17.409  0.00  0.00    +0.000 C 
ATOM     26  O   UNL     1      -4.664  11.092  16.367  0.00  0.00    +0.000 OA
ATOM     27  H   UNL     1      -4.246  12.048  19.370  0.00  0.00    +0.000 HD
BRANCH  24  28
ATOM     28  C   UNL     1      -6.188  11.595  18.644  0.00  0.00    +0.000 C 
ATOM     29  C   UNL     1      -6.886  11.217  19.942  0.00  0.00    +0.000 C 
ATOM     30  C   UNL     1      -6.871  10.248  18.804  0.00  0.00    +0.000 C 
BRANCH  28  32
ATOM     31  N   UNL     1      -7.342  13.430  17.185  0.00  0.00    +0.000 NA
ATOM     32  C   UNL     1      -6.850  12.613  17.850  0.00  0.00    +0.000 C 
ENDBRANCH  28  32
ENDBRANCH  24  28
ENDBRANCH  23  25
ENDBRANCH  18  23
ENDBRANCH   1  21
TORSDOF 7
ENDMDL
MODEL 6
REMARK VINA RESULT:      -7.3      1.258      1.575
REMARK  Name = 
REMARK  7 active torsions:
REMARK  status: ('A' for Active; 'I' for Inactive)
REMARK    1  A    between atoms: C_2  and  C_3
REMARK    2  A    between atoms: C_3  and  N_4
REMARK    3  A    between atoms: C_5  and  C_7
REMARK    4  A    between atoms: C_7  and  C_8
REMARK    5  A    between atoms: C_11  and  C_12
REMARK    6  A    between atoms: C_12  and  C_13
REMARK    7  A    between atoms: C_18  and  C_19
REMARK                            x       y       z     vdW  Elec       q    Type
REMARK                         _______ _______ _______ _____ _____    ______ ____
ROOT
ATOM      1  C   UNL     1       1.934   9.553  17.855  0.00  0.00    +0.000 C 
ENDROOT
BRANCH   1   2
ATOM      2  C   UNL     1       0.723  10.269  18.374  0.00  0.00    +0.000 A 
ATOM      3  N   UNL     1      -0.465  10.202  17.812  0.00  0.00    +0.000 NA
ATOM      4  C   UNL     1      -1.375  10.949  18.539  0.00  0.00    +0.000 A 
ATOM      5  C   UNL     1      -2.744  11.086  18.248  0.00  0.00    +0.000 A 
ATOM      6  C   UNL     1      -3.563  11.846  19.092  0.00  0.00    +0.000 A 
ATOM      7  C   UNL     1      -3.061  12.488  20.234  0.00  0.00    +0.000 A 
ATOM      8  C   UNL     1      -1.680  12.385  20.500  0.00  0.00    +0.000 A 
ATOM      9  C   UNL     1      -0.863  11.608  19.655  0.00  0.00    +0.000 A 
ATOM     10  S   UNL     1       0.827  11.281  19.760  0.00  0.00    +0.000 S 
BRANCH   7  11
ATOM     11  C   UNL     1      -3.953  13.250  21.136  0.00  0.00    +0.000 A 
ATOM     12  C   UNL     1      -5.165  12.733  21.607  0.00  0.00    +0.000 A 
ATOM     13  C   UNL     1      -5.977  13.512  22.430  0.00  0.00    +0.000 A 
ATOM     14  C   UNL     1      -5.559  14.786  22.777  0.00  0.00    +0.000 A 
ATOM     15 CL   UNL     1      -6.533  15.785  23.772  0.00  0.00    +0.000 Cl
ATOM     16  C   UNL     1      -4.339  15.229  22.291  0.00  0.00    +0.000 A 
ATOM     17  N   UNL     1      -3.530  14.491  21.489  0.00  0.00    +0.000 NA
ENDBRANCH   7  11
ENDBRANCH   1   2
BRANCH   1  21
ATOM     18  C   UNL     1       2.730   6.217  18.728  0.00  0.00    +0.000 A 
ATOM     19  N   UNL     1       2.311   6.600  19.916  0.00  0.00    +0.000 NA
ATOM     20  N   UNL     1       1.948   7.922  19.792  0.00  0.00    +0.000 NA
ATOM     21  C   UNL     1       2.148   8.253  18.532  0.00  0.00    +0.000 A 
ATOM     22  O   UNL     1       2.665   7.216  17.793  0.00  0.00    +0.000 OA
BRANCH  18  23
ATOM     23  C   UNL     1       3.214   4.892  18.302  0.00  0.00    +0.000 C 
BRANCH  23  25
ATOM     24  N   UNL     1       5.245   6.140  17.594  0.00  0.00    +0.000 N 
ATOM     25  C   UNL     1       4.671   4.918  17.889  0.00  0.00    +0.000 C 
ATOM     26  O   UNL     1       5.328   3.874  17.882  0.00  0.00    +0.000 OA
ATOM     27  H   UNL     1       4.734   6.997  17.802  0.00  0.00    +0.000 HD
BRANCH  24  28
ATOM     28  C   UNL     1       6.654   6.251  17.288  0.00  0.00    +0.000 C 
ATOM     29  C   UNL     1       7.677   6.239  18.415  0.00  0.00    +0.000 C 
ATOM     30  C   UNL     1       7.381   7.519  17.702  0.00  0.00    +0.000 C 
BRANCH  28  32
ATOM     31  N   UNL     1       7.348   5.044  15.077  0.00  0.00    +0.000 NA
ATOM     32  C   UNL     1       7.064   5.591  16.062  0.00  0.00    +0.000 C 
ENDBRANCH  28  32
ENDBRANCH  24  28
ENDBRANCH  23  25
ENDBRANCH  18  23
ENDBRANCH   1  21
TORSDOF 7
ENDMDL
MODEL 7
REMARK VINA RESULT:      -7.3      3.804      6.396
REMARK  Name = 
REMARK  7 active torsions:
REMARK  status: ('A' for Active; 'I' for Inactive)
REMARK    1  A    between atoms: C_2  and  C_3
REMARK    2  A    between atoms: C_3  and  N_4
REMARK    3  A    between atoms: C_5  and  C_7
REMARK    4  A    between atoms: C_7  and  C_8
REMARK    5  A    between atoms: C_11  and  C_12
REMARK    6  A    between atoms: C_12  and  C_13
REMARK    7  A    between atoms: C_18  and  C_19
REMARK                            x       y       z     vdW  Elec       q    Type
REMARK                         _______ _______ _______ _____ _____    ______ ____
ROOT
ATOM      1  C   UNL     1       4.435   3.404  16.966  0.00  0.00    +0.000 C 
ENDROOT
BRANCH   1   2
ATOM      2  C   UNL     1       3.673   4.399  17.788  0.00  0.00    +0.000 A 
ATOM      3  N   UNL     1       2.963   4.083  18.850  0.00  0.00    +0.000 NA
ATOM      4  C   UNL     1       2.403   5.223  19.401  0.00  0.00    +0.000 A 
ATOM      5  C   UNL     1       1.604   5.267  20.558  0.00  0.00    +0.000 A 
ATOM      6  C   UNL     1       1.131   6.497  21.030  0.00  0.00    +0.000 A 
ATOM      7  C   UNL     1       1.426   7.706  20.381  0.00  0.00    +0.000 A 
ATOM      8  C   UNL     1       2.192   7.654  19.197  0.00  0.00    +0.000 A 
ATOM      9  C   UNL     1       2.676   6.415  18.734  0.00  0.00    +0.000 A 
ATOM     10  S   UNL     1       3.653   6.064  17.357  0.00  0.00    +0.000 S 
BRANCH   7  11
ATOM     11  C   UNL     1       0.952   9.000  20.922  0.00  0.00    +0.000 A 
ATOM     12  C   UNL     1       0.408   9.123  22.205  0.00  0.00    +0.000 A 
ATOM     13  C   UNL     1      -0.050  10.363  22.646  0.00  0.00    +0.000 A 
ATOM     14  C   UNL     1       0.053  11.459  21.804  0.00  0.00    +0.000 A 
ATOM     15 CL   UNL     1      -0.513  12.999  22.298  0.00  0.00    +0.000 Cl
ATOM     16  C   UNL     1       0.619  11.269  20.554  0.00  0.00    +0.000 A 
ATOM     17  N   UNL     1       1.072  10.073  20.100  0.00  0.00    +0.000 NA
ENDBRANCH   7  11
ENDBRANCH   1   2
BRANCH   1  21
ATOM     18  C   UNL     1       7.055   4.840  15.068  0.00  0.00    +0.000 A 
ATOM     19  N   UNL     1       7.730   4.685  16.186  0.00  0.00    +0.000 NA
ATOM     20  N   UNL     1       6.859   4.126  17.094  0.00  0.00    +0.000 NA
ATOM     21  C   UNL     1       5.714   3.957  16.462  0.00  0.00    +0.000 A 
ATOM     22  O   UNL     1       5.759   4.407  15.165  0.00  0.00    +0.000 OA
BRANCH  18  23
ATOM     23  C   UNL     1       7.516   5.377  13.775  0.00  0.00    +0.000 C 
BRANCH  23  25
ATOM     24  N   UNL     1       6.407   3.339  12.879  0.00  0.00    +0.000 N 
ATOM     25  C   UNL     1       7.111   4.497  12.610  0.00  0.00    +0.000 C 
ATOM     26  O   UNL     1       7.357   4.854  11.455  0.00  0.00    +0.000 OA
ATOM     27  H   UNL     1       6.049   3.177  13.819  0.00  0.00    +0.000 HD
BRANCH  24  28
ATOM     28  C   UNL     1       5.904   2.503  11.812  0.00  0.00    +0.000 C 
ATOM     29  C   UNL     1       6.188   1.008  11.823  0.00  0.00    +0.000 C 
ATOM     30  C   UNL     1       6.904   1.887  10.849  0.00  0.00    +0.000 C 
BRANCH  28  32
ATOM     31  N   UNL     1       3.562   3.163  10.857  0.00  0.00    +0.000 NA
ATOM     32  C   UNL     1       4.602   2.889  11.299  0.00  0.00    +0.000 C 
ENDBRANCH  28  32
ENDBRANCH  24  28
ENDBRANCH  23  25
ENDBRANCH  18  23
ENDBRANCH   1  21
TORSDOF 7
ENDMDL
MODEL 8
REMARK VINA RESULT:      -7.2      4.990     10.889
REMARK  Name = 
REMARK  7 active torsions:
REMARK  status: ('A' for Active; 'I' for Inactive)
REMARK    1  A    between atoms: C_2  and  C_3
REMARK    2  A    between atoms: C_3  and  N_4
REMARK    3  A    between atoms: C_5  and  C_7
REMARK    4  A    between atoms: C_7  and  C_8
REMARK    5  A    between atoms: C_11  and  C_12
REMARK    6  A    between atoms: C_12  and  C_13
REMARK    7  A    between atoms: C_18  and  C_19
REMARK                            x       y       z     vdW  Elec       q    Type
REMARK                         _______ _______ _______ _____ _____    ______ ____
ROOT
ATOM      1  C   UNL     1       0.727   8.323  21.212  0.00  0.00    +0.000 C 
ENDROOT
BRANCH   1   2
ATOM      2  C   UNL     1       1.672   7.606  20.297  0.00  0.00    +0.000 A 
ATOM      3  N   UNL     1       2.214   6.438  20.572  0.00  0.00    +0.000 NA
ATOM      4  C   UNL     1       3.017   6.030  19.521  0.00  0.00    +0.000 A 
ATOM      5  C   UNL     1       3.733   4.821  19.457  0.00  0.00    +0.000 A 
ATOM      6  C   UNL     1       4.481   4.515  18.314  0.00  0.00    +0.000 A 
ATOM      7  C   UNL     1       4.546   5.384  17.213  0.00  0.00    +0.000 A 
ATOM      8  C   UNL     1       3.862   6.615  17.298  0.00  0.00    +0.000 A 
ATOM      9  C   UNL     1       3.101   6.912  18.445  0.00  0.00    +0.000 A 
ATOM     10  S   UNL     1       2.147   8.304  18.799  0.00  0.00    +0.000 S 
BRANCH   7  11
ATOM     11  C   UNL     1       5.307   5.021  15.997  0.00  0.00    +0.000 A 
ATOM     12  C   UNL     1       6.638   5.407  15.802  0.00  0.00    +0.000 A 
ATOM     13  C   UNL     1       7.292   5.061  14.620  0.00  0.00    +0.000 A 
ATOM     14  C   UNL     1       6.612   4.327  13.663  0.00  0.00    +0.000 A 
ATOM     15 CL   UNL     1       7.372   3.895  12.189  0.00  0.00    +0.000 Cl
ATOM     16  C   UNL     1       5.302   3.961  13.929  0.00  0.00    +0.000 A 
ATOM     17  N   UNL     1       4.642   4.286  15.070  0.00  0.00    +0.000 NA
ENDBRANCH   7  11
ENDBRANCH   1   2
BRANCH   1  21
ATOM     18  C   UNL     1       0.151  11.563  19.908  0.00  0.00    +0.000 A 
ATOM     19  N   UNL     1       0.852  11.933  20.958  0.00  0.00    +0.000 NA
ATOM     20  N   UNL     1       1.182  10.779  21.632  0.00  0.00    +0.000 NA
ATOM     21  C   UNL     1       0.678   9.779  20.937  0.00  0.00    +0.000 A 
ATOM     22  O   UNL     1      -0.011  10.206  19.827  0.00  0.00    +0.000 OA
BRANCH  18  23
ATOM     23  C   UNL     1      -0.432  12.400  18.844  0.00  0.00    +0.000 C 
BRANCH  23  25
ATOM     24  N   UNL     1      -1.862  11.678  16.942  0.00  0.00    +0.000 N 
ATOM     25  C   UNL     1      -1.728  11.828  18.309  0.00  0.00    +0.000 C 
ATOM     26  O   UNL     1      -2.606  11.455  19.091  0.00  0.00    +0.000 OA
ATOM     27  H   UNL     1      -1.049  11.808  16.341  0.00  0.00    +0.000 HD
BRANCH  24  28
ATOM     28  C   UNL     1      -3.031  11.050  16.367  0.00  0.00    +0.000 C 
ATOM     29  C   UNL     1      -3.048   9.545  16.141  0.00  0.00    +0.000 C 
ATOM     30  C   UNL     1      -2.919  10.465  14.970  0.00  0.00    +0.000 C 
BRANCH  28  32
ATOM     31  N   UNL     1      -5.330  12.065  17.083  0.00  0.00    +0.000 NA
ATOM     32  C   UNL     1      -4.296  11.637  16.769  0.00  0.00    +0.000 C 
ENDBRANCH  28  32
ENDBRANCH  24  28
ENDBRANCH  23  25
ENDBRANCH  18  23
ENDBRANCH   1  21
TORSDOF 7
ENDMDL
MODEL 9
REMARK VINA RESULT:      -7.2      2.948      4.372
REMARK  Name = 
REMARK  7 active torsions:
REMARK  status: ('A' for Active; 'I' for Inactive)
REMARK    1  A    between atoms: C_2  and  C_3
REMARK    2  A    between atoms: C_3  and  N_4
REMARK    3  A    between atoms: C_5  and  C_7
REMARK    4  A    between atoms: C_7  and  C_8
REMARK    5  A    between atoms: C_11  and  C_12
REMARK    6  A    between atoms: C_12  and  C_13
REMARK    7  A    between atoms: C_18  and  C_19
REMARK                            x       y       z     vdW  Elec       q    Type
REMARK                         _______ _______ _______ _____ _____    ______ ____
ROOT
ATOM      1  C   UNL     1       3.277   7.598  16.914  0.00  0.00    +0.000 C 
ENDROOT
BRANCH   1   2
ATOM      2  C   UNL     1       2.488   8.249  18.009  0.00  0.00    +0.000 A 
ATOM      3  N   UNL     1       2.245   7.686  19.173  0.00  0.00    +0.000 NA
ATOM      4  C   UNL     1       1.516   8.548  19.974  0.00  0.00    +0.000 A 
ATOM      5  C   UNL     1       1.099   8.290  21.292  0.00  0.00    +0.000 A 
ATOM      6  C   UNL     1       0.396   9.268  22.004  0.00  0.00    +0.000 A 
ATOM      7  C   UNL     1       0.085  10.517  21.444  0.00  0.00    +0.000 A 
ATOM      8  C   UNL     1       0.466  10.757  20.107  0.00  0.00    +0.000 A 
ATOM      9  C   UNL     1       1.185   9.774  19.399  0.00  0.00    +0.000 A 
ATOM     10  S   UNL     1       1.802   9.811  17.789  0.00  0.00    +0.000 S 
BRANCH   7  11
ATOM     11  C   UNL     1      -0.620  11.553  22.229  0.00  0.00    +0.000 A 
ATOM     12  C   UNL     1      -1.747  11.267  23.009  0.00  0.00    +0.000 A 
ATOM     13  C   UNL     1      -2.387  12.294  23.702  0.00  0.00    +0.000 A 
ATOM     14  C   UNL     1      -1.885  13.582  23.615  0.00  0.00    +0.000 A 
ATOM     15 CL   UNL     1      -2.650  14.876  24.437  0.00  0.00    +0.000 Cl
ATOM     16  C   UNL     1      -0.755  13.791  22.841  0.00  0.00    +0.000 A 
ATOM     17  N   UNL     1      -0.113  12.811  22.155  0.00  0.00    +0.000 NA
ENDBRANCH   7  11
ENDBRANCH   1   2
BRANCH   1  21
ATOM     18  C   UNL     1       5.457   5.080  18.113  0.00  0.00    +0.000 A 
ATOM     19  N   UNL     1       6.316   6.076  18.163  0.00  0.00    +0.000 NA
ATOM     20  N   UNL     1       5.645   7.191  17.713  0.00  0.00    +0.000 NA
ATOM     21  C   UNL     1       4.415   6.807  17.439  0.00  0.00    +0.000 A 
ATOM     22  O   UNL     1       4.224   5.463  17.654  0.00  0.00    +0.000 OA
BRANCH  18  23
ATOM     23  C   UNL     1       5.651   3.671  18.499  0.00  0.00    +0.000 C 
BRANCH  23  25
ATOM     24  N   UNL     1       3.320   3.838  19.349  0.00  0.00    +0.000 N 
ATOM     25  C   UNL     1       4.519   3.150  19.359  0.00  0.00    +0.000 C 
ATOM     26  O   UNL     1       4.661   2.103  19.996  0.00  0.00    +0.000 OA
ATOM     27  H   UNL     1       3.172   4.578  18.664  0.00  0.00    +0.000 HD
BRANCH  24  28
ATOM     28  C   UNL     1       2.167   3.344  20.068  0.00  0.00    +0.000 C 
ATOM     29  C   UNL     1       1.600   4.145  21.231  0.00  0.00    +0.000 C 
ATOM     30  C   UNL     1       2.358   2.886  21.504  0.00  0.00    +0.000 C 
BRANCH  28  32
ATOM     31  N   UNL     1       0.441   2.089  18.560  0.00  0.00    +0.000 NA
ATOM     32  C   UNL     1       1.189   2.653  19.248  0.00  0.00    +0.000 C 
ENDBRANCH  28  32
ENDBRANCH  24  28
ENDBRANCH  23  25
ENDBRANCH  18  23
ENDBRANCH   1  21
TORSDOF 7
ENDMDL
