MODEL 1
REMARK VINA RESULT:      -7.2      0.000      0.000
REMARK  Name = 
REMARK  10 active torsions:
REMARK  status: ('A' for Active; 'I' for Inactive)
REMARK    1  A    between atoms: C_1  and  C_2
REMARK    2  A    between atoms: C_2  and  N_3
REMARK    3  A    between atoms: C_5  and  C_6
REMARK    4  A    between atoms: C_6  and  O_8
REMARK    5  A    between atoms: C_15  and  N_16
REMARK    6  A    between atoms: N_19  and  C_20
REMARK    7  A    between atoms: C_20  and  C_21
REMARK    8  A    between atoms: C_20  and  C_22
REMARK    9  A    between atoms: C_20  and  C_23
REMARK   10  A    between atoms: C_23  and  C_24
REMARK                            x       y       z     vdW  Elec       q    Type
REMARK                         _______ _______ _______ _____ _____    ______ ____
ROOT
ATOM      1  N   UNL     1       2.555   5.092  19.943  0.00  0.00    +0.000 N 
ATOM      2  C   UNL     1       3.180   4.088  19.217  0.00  0.00    +0.000 A 
ATOM      3  C   UNL     1       3.828   4.237  18.054  0.00  0.00    +0.000 A 
ATOM      4  C   UNL     1       3.898   5.601  17.492  0.00  0.00    +0.000 A 
ATOM      5  O   UNL     1       4.528   5.814  16.461  0.00  0.00    +0.000 OA
ATOM      6  C   UNL     1       3.166   6.676  18.186  0.00  0.00    +0.000 A 
ATOM      7  C   UNL     1       3.120   7.943  17.599  0.00  0.00    +0.000 A 
ATOM      8  C   UNL     1       2.365   8.942  18.201  0.00  0.00    +0.000 A 
ATOM      9  F   UNL     1       2.332  10.137  17.598  0.00  0.00    +0.000 F 
ATOM     10  C   UNL     1       1.648   8.711  19.390  0.00  0.00    +0.000 A 
ATOM     11  C   UNL     1       1.762   7.434  19.962  0.00  0.00    +0.000 A 
ATOM     12  C   UNL     1       2.501   6.393  19.390  0.00  0.00    +0.000 A 
ENDROOT
BRANCH  10  13
ATOM     13  N   UNL     1       0.763   9.615  19.963  0.00  0.00    +0.000 N 
ATOM     14  C   UNL     1      -0.002  10.525  19.101  0.00  0.00    +0.000 C 
ATOM     15  C   UNL     1      -1.304  10.967  19.808  0.00  0.00    +0.000 C 
ATOM     16  N   UNL     1      -1.172  11.484  21.190  0.00  0.00    +0.000 NA
ATOM     17  C   UNL     1      -0.392  10.498  21.970  0.00  0.00    +0.000 C 
ATOM     18  C   UNL     1       0.949  10.037  21.363  0.00  0.00    +0.000 C 
BRANCH  16  19
ATOM     19  C   UNL     1      -0.772  12.913  21.333  0.00  0.00    +0.000 C 
ATOM     20  C   UNL     1       0.726  13.243  21.168  0.00  0.00    +0.000 C 
ATOM     21  C   UNL     1      -1.515  13.767  20.281  0.00  0.00    +0.000 C 
BRANCH  19  22
ATOM     22  C   UNL     1      -1.207  13.419  22.744  0.00  0.00    +0.000 C 
ATOM     23  C   UNL     1      -2.668  13.395  23.123  0.00  0.00    +0.000 C 
ATOM     24  O   UNL     1      -0.378  13.769  23.594  0.00  0.00    +0.000 OA
ENDBRANCH  19  22
ENDBRANCH  16  19
ENDBRANCH  10  13
BRANCH   1  26
ATOM     25  C   UNL     1       1.959   3.335  21.591  0.00  0.00    +0.000 C 
ATOM     26  C   UNL     1       1.931   4.821  21.254  0.00  0.00    +0.000 C 
ENDBRANCH   1  26
BRANCH   3  27
ATOM     27  C   UNL     1       4.430   3.059  17.401  0.00  0.00    +0.000 C 
ATOM     28  O   UNL     1       3.965   1.935  17.480  0.00  0.00    +0.000 OA
BRANCH  27  29
ATOM     29  O   UNL     1       5.551   3.328  16.689  0.00  0.00    +0.000 OA
ATOM     30  H   UNL     1       6.186   3.933  17.147  0.00  0.00    +0.000 HD
ENDBRANCH  27  29
ENDBRANCH   3  27
TORSDOF 6
ENDMDL
MODEL 2
REMARK VINA RESULT:      -7.2      2.307      8.961
REMARK  Name = 
REMARK  10 active torsions:
REMARK  status: ('A' for Active; 'I' for Inactive)
REMARK    1  A    between atoms: C_1  and  C_2
REMARK    2  A    between atoms: C_2  and  N_3
REMARK    3  A    between atoms: C_5  and  C_6
REMARK    4  A    between atoms: C_6  and  O_8
REMARK    5  A    between atoms: C_15  and  N_16
REMARK    6  A    between atoms: N_19  and  C_20
REMARK    7  A    between atoms: C_20  and  C_21
REMARK    8  A    between atoms: C_20  and  C_22
REMARK    9  A    between atoms: C_20  and  C_23
REMARK   10  A    between atoms: C_23  and  C_24
REMARK                            x       y       z     vdW  Elec       q    Type
REMARK                         _______ _______ _______ _____ _____    ______ ____
ROOT
ATOM      1  N   UNL     1      -1.565  10.746  18.544  0.00  0.00    +0.000 N 
ATOM      2  C   UNL     1      -2.504  11.681  18.956  0.00  0.00    +0.000 A 
ATOM      3  C   UNL     1      -2.561  12.272  20.158  0.00  0.00    +0.000 A 
ATOM      4  C   UNL     1      -1.518  11.905  21.138  0.00  0.00    +0.000 A 
ATOM      5  O   UNL     1      -1.478  12.455  22.234  0.00  0.00    +0.000 OA
ATOM      6  C   UNL     1      -0.560  10.847  20.769  0.00  0.00    +0.000 A 
ATOM      7  C   UNL     1       0.352  10.403  21.730  0.00  0.00    +0.000 A 
ATOM      8  C   UNL     1       1.203   9.350  21.421  0.00  0.00    +0.000 A 
ATOM      9  F   UNL     1       2.049   8.943  22.376  0.00  0.00    +0.000 F 
ATOM     10  C   UNL     1       1.173   8.721  20.163  0.00  0.00    +0.000 A 
ATOM     11  C   UNL     1       0.269   9.232  19.219  0.00  0.00    +0.000 A 
ATOM     12  C   UNL     1      -0.614  10.283  19.484  0.00  0.00    +0.000 A 
ENDROOT
BRANCH  10  13
ATOM     13  N   UNL     1       1.891   7.576  19.839  0.00  0.00    +0.000 N 
ATOM     14  C   UNL     1       2.558   7.483  18.535  0.00  0.00    +0.000 C 
ATOM     15  C   UNL     1       3.747   6.497  18.609  0.00  0.00    +0.000 C 
ATOM     16  N   UNL     1       3.474   5.164  19.193  0.00  0.00    +0.000 NA
ATOM     17  C   UNL     1       2.806   5.368  20.498  0.00  0.00    +0.000 C 
ATOM     18  C   UNL     1       1.577   6.300  20.509  0.00  0.00    +0.000 C 
BRANCH  16  19
ATOM     19  C   UNL     1       2.866   4.149  18.286  0.00  0.00    +0.000 C 
ATOM     20  C   UNL     1       1.478   4.475  17.697  0.00  0.00    +0.000 C 
ATOM     21  C   UNL     1       3.798   3.912  17.076  0.00  0.00    +0.000 C 
BRANCH  19  22
ATOM     22  C   UNL     1       2.738   2.797  19.056  0.00  0.00    +0.000 C 
ATOM     23  C   UNL     1       1.369   2.212  19.305  0.00  0.00    +0.000 C 
ATOM     24  O   UNL     1       3.734   2.148  19.401  0.00  0.00    +0.000 OA
ENDBRANCH  19  22
ENDBRANCH  16  19
ENDBRANCH  10  13
BRANCH   1  26
ATOM     25  C   UNL     1      -2.678  10.822  16.328  0.00  0.00    +0.000 C 
ATOM     26  C   UNL     1      -1.560  10.214  17.166  0.00  0.00    +0.000 C 
ENDBRANCH   1  26
BRANCH   3  27
ATOM     27  C   UNL     1      -3.637  13.240  20.443  0.00  0.00    +0.000 C 
ATOM     28  O   UNL     1      -4.803  12.922  20.599  0.00  0.00    +0.000 OA
BRANCH  27  29
ATOM     29  O   UNL     1      -3.221  14.526  20.526  0.00  0.00    +0.000 OA
ATOM     30  H   UNL     1      -2.537  14.686  21.222  0.00  0.00    +0.000 HD
ENDBRANCH  27  29
ENDBRANCH   3  27
TORSDOF 6
ENDMDL
MODEL 3
REMARK VINA RESULT:      -7.1      2.550      8.970
REMARK  Name = 
REMARK  10 active torsions:
REMARK  status: ('A' for Active; 'I' for Inactive)
REMARK    1  A    between atoms: C_1  and  C_2
REMARK    2  A    between atoms: C_2  and  N_3
REMARK    3  A    between atoms: C_5  and  C_6
REMARK    4  A    between atoms: C_6  and  O_8
REMARK    5  A    between atoms: C_15  and  N_16
REMARK    6  A    between atoms: N_19  and  C_20
REMARK    7  A    between atoms: C_20  and  C_21
REMARK    8  A    between atoms: C_20  and  C_22
REMARK    9  A    between atoms: C_20  and  C_23
REMARK   10  A    between atoms: C_23  and  C_24
REMARK                            x       y       z     vdW  Elec       q    Type
REMARK                         _______ _______ _______ _____ _____    ______ ____
ROOT
ATOM      1  N   UNL     1       1.226  10.270  19.263  0.00  0.00    +0.000 N 
ATOM      2  C   UNL     1       0.215  11.032  19.831  0.00  0.00    +0.000 A 
ATOM      3  C   UNL     1      -0.523  10.701  20.900  0.00  0.00    +0.000 A 
ATOM      4  C   UNL     1      -0.226   9.406  21.547  0.00  0.00    +0.000 A 
ATOM      5  O   UNL     1      -0.824   9.072  22.565  0.00  0.00    +0.000 OA
ATOM      6  C   UNL     1       0.777   8.529  20.916  0.00  0.00    +0.000 A 
ATOM      7  C   UNL     1       0.977   7.251  21.446  0.00  0.00    +0.000 A 
ATOM      8  C   UNL     1       1.858   6.385  20.811  0.00  0.00    +0.000 A 
ATOM      9  F   UNL     1       2.009   5.164  21.339  0.00  0.00    +0.000 F 
ATOM     10  C   UNL     1       2.558   6.764  19.650  0.00  0.00    +0.000 A 
ATOM     11  C   UNL     1       2.354   8.072  19.183  0.00  0.00    +0.000 A 
ATOM     12  C   UNL     1       1.471   8.977  19.781  0.00  0.00    +0.000 A 
ENDROOT
BRANCH  10  13
ATOM     13  N   UNL     1       3.338   5.904  18.887  0.00  0.00    +0.000 N 
ATOM     14  C   UNL     1       4.768   5.765  19.186  0.00  0.00    +0.000 C 
ATOM     15  C   UNL     1       5.289   4.393  18.699  0.00  0.00    +0.000 C 
ATOM     16  N   UNL     1       4.971   4.016  17.302  0.00  0.00    +0.000 NA
ATOM     17  C   UNL     1       3.514   4.189  17.106  0.00  0.00    +0.000 C 
ATOM     18  C   UNL     1       2.916   5.549  17.520  0.00  0.00    +0.000 C 
BRANCH  16  19
ATOM     19  C   UNL     1       5.856   4.574  16.241  0.00  0.00    +0.000 C 
ATOM     20  C   UNL     1       6.185   3.656  15.045  0.00  0.00    +0.000 C 
ATOM     21  C   UNL     1       5.206   5.842  15.639  0.00  0.00    +0.000 C 
BRANCH  19  22
ATOM     22  C   UNL     1       7.211   5.000  16.886  0.00  0.00    +0.000 C 
ATOM     23  C   UNL     1       7.456   6.455  17.205  0.00  0.00    +0.000 C 
ATOM     24  O   UNL     1       8.064   4.167  17.219  0.00  0.00    +0.000 OA
ENDBRANCH  19  22
ENDBRANCH  16  19
ENDBRANCH  10  13
BRANCH   1  26
ATOM     25  C   UNL     1       2.310  12.263  18.258  0.00  0.00    +0.000 C 
ATOM     26  C   UNL     1       2.022  10.773  18.125  0.00  0.00    +0.000 C 
ENDBRANCH   1  26
BRANCH   3  27
ATOM     27  C   UNL     1      -1.574  11.622  21.373  0.00  0.00    +0.000 C 
ATOM     28  O   UNL     1      -2.290  12.266  20.625  0.00  0.00    +0.000 OA
BRANCH  27  29
ATOM     29  O   UNL     1      -1.690  11.691  22.720  0.00  0.00    +0.000 OA
ATOM     30  H   UNL     1      -0.843  11.896  23.189  0.00  0.00    +0.000 HD
ENDBRANCH  27  29
ENDBRANCH   3  27
TORSDOF 6
ENDMDL
MODEL 4
REMARK VINA RESULT:      -7.0      2.166      9.031
REMARK  Name = 
REMARK  10 active torsions:
REMARK  status: ('A' for Active; 'I' for Inactive)
REMARK    1  A    between atoms: C_1  and  C_2
REMARK    2  A    between atoms: C_2  and  N_3
REMARK    3  A    between atoms: C_5  and  C_6
REMARK    4  A    between atoms: C_6  and  O_8
REMARK    5  A    between atoms: C_15  and  N_16
REMARK    6  A    between atoms: N_19  and  C_20
REMARK    7  A    between atoms: C_20  and  C_21
REMARK    8  A    between atoms: C_20  and  C_22
REMARK    9  A    between atoms: C_20  and  C_23
REMARK   10  A    between atoms: C_23  and  C_24
REMARK                            x       y       z     vdW  Elec       q    Type
REMARK                         _______ _______ _______ _____ _____    ______ ____
ROOT
ATOM      1  N   UNL     1      -1.412  10.856  18.874  0.00  0.00    +0.000 N 
ATOM      2  C   UNL     1      -2.247  11.894  19.264  0.00  0.00    +0.000 A 
ATOM      3  C   UNL     1      -2.227  12.527  20.444  0.00  0.00    +0.000 A 
ATOM      4  C   UNL     1      -1.210  12.091  21.425  0.00  0.00    +0.000 A 
ATOM      5  O   UNL     1      -1.099  12.670  22.500  0.00  0.00    +0.000 OA
ATOM      6  C   UNL     1      -0.368  10.930  21.081  0.00  0.00    +0.000 A 
ATOM      7  C   UNL     1       0.510  10.431  22.047  0.00  0.00    +0.000 A 
ATOM      8  C   UNL     1       1.248   9.288  21.765  0.00  0.00    +0.000 A 
ATOM      9  F   UNL     1       2.064   8.831  22.722  0.00  0.00    +0.000 F 
ATOM     10  C   UNL     1       1.137   8.623  20.529  0.00  0.00    +0.000 A 
ATOM     11  C   UNL     1       0.273   9.190  19.578  0.00  0.00    +0.000 A 
ATOM     12  C   UNL     1      -0.497  10.333  19.817  0.00  0.00    +0.000 A 
ENDROOT
BRANCH  10  13
ATOM     13  N   UNL     1       1.732   7.402  20.237  0.00  0.00    +0.000 N 
ATOM     14  C   UNL     1       2.414   7.218  18.951  0.00  0.00    +0.000 C 
ATOM     15  C   UNL     1       3.486   6.110  19.065  0.00  0.00    +0.000 C 
ATOM     16  N   UNL     1       3.056   4.823  19.659  0.00  0.00    +0.000 NA
ATOM     17  C   UNL     1       2.386   5.118  20.944  0.00  0.00    +0.000 C 
ATOM     18  C   UNL     1       1.266   6.179  20.915  0.00  0.00    +0.000 C 
BRANCH  16  19
ATOM     19  C   UNL     1       2.362   3.867  18.751  0.00  0.00    +0.000 C 
ATOM     20  C   UNL     1       1.299   2.944  19.382  0.00  0.00    +0.000 C 
ATOM     21  C   UNL     1       1.637   4.649  17.632  0.00  0.00    +0.000 C 
BRANCH  19  22
ATOM     22  C   UNL     1       3.428   2.951  18.072  0.00  0.00    +0.000 C 
ATOM     23  C   UNL     1       3.540   1.506  18.494  0.00  0.00    +0.000 C 
ATOM     24  O   UNL     1       4.135   3.355  17.140  0.00  0.00    +0.000 OA
ENDBRANCH  19  22
ENDBRANCH  16  19
ENDBRANCH  10  13
BRANCH   1  26
ATOM     25  C   UNL     1      -2.882   9.781  17.189  0.00  0.00    +0.000 C 
ATOM     26  C   UNL     1      -1.480  10.282  17.515  0.00  0.00    +0.000 C 
ENDBRANCH   1  26
BRANCH   3  27
ATOM     27  C   UNL     1      -3.197  13.607  20.708  0.00  0.00    +0.000 C 
ATOM     28  O   UNL     1      -4.284  13.421  21.227  0.00  0.00    +0.000 OA
BRANCH  27  29
ATOM     29  O   UNL     1      -2.776  14.838  20.332  0.00  0.00    +0.000 OA
ATOM     30  H   UNL     1      -2.972  15.062  19.389  0.00  0.00    +0.000 HD
ENDBRANCH  27  29
ENDBRANCH   3  27
TORSDOF 6
ENDMDL
MODEL 5
REMARK VINA RESULT:      -7.0      2.058      8.719
REMARK  Name = 
REMARK  10 active torsions:
REMARK  status: ('A' for Active; 'I' for Inactive)
REMARK    1  A    between atoms: C_1  and  C_2
REMARK    2  A    between atoms: C_2  and  N_3
REMARK    3  A    between atoms: C_5  and  C_6
REMARK    4  A    between atoms: C_6  and  O_8
REMARK    5  A    between atoms: C_15  and  N_16
REMARK    6  A    between atoms: N_19  and  C_20
REMARK    7  A    between atoms: C_20  and  C_21
REMARK    8  A    between atoms: C_20  and  C_22
REMARK    9  A    between atoms: C_20  and  C_23
REMARK   10  A    between atoms: C_23  and  C_24
REMARK                            x       y       z     vdW  Elec       q    Type
REMARK                         _______ _______ _______ _____ _____    ______ ____
ROOT
ATOM      1  N   UNL     1       0.094  11.078  21.380  0.00  0.00    +0.000 N 
ATOM      2  C   UNL     1      -0.089  12.448  21.258  0.00  0.00    +0.000 A 
ATOM      3  C   UNL     1       0.197  13.194  20.182  0.00  0.00    +0.000 A 
ATOM      4  C   UNL     1       0.749  12.492  19.004  0.00  0.00    +0.000 A 
ATOM      5  O   UNL     1       0.975  13.108  17.967  0.00  0.00    +0.000 OA
ATOM      6  C   UNL     1       1.044  11.053  19.129  0.00  0.00    +0.000 A 
ATOM      7  C   UNL     1       1.680  10.405  18.067  0.00  0.00    +0.000 A 
ATOM      8  C   UNL     1       2.038   9.070  18.205  0.00  0.00    +0.000 A 
ATOM      9  F   UNL     1       2.662   8.491  17.172  0.00  0.00    +0.000 F 
ATOM     10  C   UNL     1       1.772   8.352  19.386  0.00  0.00    +0.000 A 
ATOM     11  C   UNL     1       1.093   9.037  20.406  0.00  0.00    +0.000 A 
ATOM     12  C   UNL     1       0.720  10.382  20.319  0.00  0.00    +0.000 A 
ENDROOT
BRANCH  10  13
ATOM     13  N   UNL     1       2.229   7.066  19.644  0.00  0.00    +0.000 N 
ATOM     14  C   UNL     1       3.213   6.452  18.743  0.00  0.00    +0.000 C 
ATOM     15  C   UNL     1       4.024   5.369  19.491  0.00  0.00    +0.000 C 
ATOM     16  N   UNL     1       3.249   4.357  20.246  0.00  0.00    +0.000 NA
ATOM     17  C   UNL     1       2.294   5.075  21.119  0.00  0.00    +0.000 C 
ATOM     18  C   UNL     1       1.407   6.142  20.446  0.00  0.00    +0.000 C 
BRANCH  16  19
ATOM     19  C   UNL     1       2.703   3.212  19.463  0.00  0.00    +0.000 C 
ATOM     20  C   UNL     1       1.433   2.528  20.010  0.00  0.00    +0.000 C 
ATOM     21  C   UNL     1       2.349   3.685  18.034  0.00  0.00    +0.000 C 
BRANCH  19  22
ATOM     22  C   UNL     1       3.805   2.115  19.338  0.00  0.00    +0.000 C 
ATOM     23  C   UNL     1       3.807   1.199  18.138  0.00  0.00    +0.000 C 
ATOM     24  O   UNL     1       4.727   2.021  20.158  0.00  0.00    +0.000 OA
ENDBRANCH  19  22
ENDBRANCH  16  19
ENDBRANCH  10  13
BRANCH   1  26
ATOM     25  C   UNL     1      -1.504  11.034  23.278  0.00  0.00    +0.000 C 
ATOM     26  C   UNL     1      -0.327  10.349  22.594  0.00  0.00    +0.000 C 
ENDBRANCH   1  26
BRANCH   3  27
ATOM     27  C   UNL     1      -0.046  14.649  20.219  0.00  0.00    +0.000 C 
ATOM     28  O   UNL     1       0.463  15.394  21.038  0.00  0.00    +0.000 OA
BRANCH  27  29
ATOM     29  O   UNL     1      -0.883  15.099  19.255  0.00  0.00    +0.000 OA
ATOM     30  H   UNL     1      -1.143  14.412  18.591  0.00  0.00    +0.000 HD
ENDBRANCH  27  29
ENDBRANCH   3  27
TORSDOF 6
ENDMDL
MODEL 6
REMARK VINA RESULT:      -6.9      1.130      1.520
REMARK  Name = 
REMARK  10 active torsions:
REMARK  status: ('A' for Active; 'I' for Inactive)
REMARK    1  A    between atoms: C_1  and  C_2
REMARK    2  A    between atoms: C_2  and  N_3
REMARK    3  A    between atoms: C_5  and  C_6
REMARK    4  A    between atoms: C_6  and  O_8
REMARK    5  A    between atoms: C_15  and  N_16
REMARK    6  A    between atoms: N_19  and  C_20
REMARK    7  A    between atoms: C_20  and  C_21
REMARK    8  A    between atoms: C_20  and  C_22
REMARK    9  A    between atoms: C_20  and  C_23
REMARK   10  A    between atoms: C_23  and  C_24
REMARK                            x       y       z     vdW  Elec       q    Type
REMARK                         _______ _______ _______ _____ _____    ______ ____
ROOT
ATOM      1  N   UNL     1       2.441   5.621  19.765  0.00  0.00    +0.000 N 
ATOM      2  C   UNL     1       3.112   4.619  19.078  0.00  0.00    +0.000 A 
ATOM      3  C   UNL     1       3.839   4.773  17.963  0.00  0.00    +0.000 A 
ATOM      4  C   UNL     1       3.951   6.141  17.415  0.00  0.00    +0.000 A 
ATOM      5  O   UNL     1       4.651   6.358  16.432  0.00  0.00    +0.000 OA
ATOM      6  C   UNL     1       3.176   7.214  18.065  0.00  0.00    +0.000 A 
ATOM      7  C   UNL     1       3.174   8.485  17.484  0.00  0.00    +0.000 A 
ATOM      8  C   UNL     1       2.382   9.482  18.039  0.00  0.00    +0.000 A 
ATOM      9  F   UNL     1       2.393  10.680  17.442  0.00  0.00    +0.000 F 
ATOM     10  C   UNL     1       1.584   9.245  19.174  0.00  0.00    +0.000 A 
ATOM     11  C   UNL     1       1.654   7.965  19.744  0.00  0.00    +0.000 A 
ATOM     12  C   UNL     1       2.429   6.925  19.218  0.00  0.00    +0.000 A 
ENDROOT
BRANCH  10  13
ATOM     13  N   UNL     1       0.663  10.149  19.690  0.00  0.00    +0.000 N 
ATOM     14  C   UNL     1       1.136  11.406  20.283  0.00  0.00    +0.000 C 
ATOM     15  C   UNL     1       0.028  12.482  20.215  0.00  0.00    +0.000 C 
ATOM     16  N   UNL     1      -1.311  12.095  20.718  0.00  0.00    +0.000 NA
ATOM     17  C   UNL     1      -1.692  10.825  20.061  0.00  0.00    +0.000 C 
ATOM     18  C   UNL     1      -0.664   9.677  20.122  0.00  0.00    +0.000 C 
BRANCH  16  19
ATOM     19  C   UNL     1      -1.518  12.171  22.192  0.00  0.00    +0.000 C 
ATOM     20  C   UNL     1      -1.154  10.919  23.018  0.00  0.00    +0.000 C 
ATOM     21  C   UNL     1      -0.675  13.327  22.775  0.00  0.00    +0.000 C 
BRANCH  19  22
ATOM     22  C   UNL     1      -3.019  12.492  22.474  0.00  0.00    +0.000 C 
ATOM     23  C   UNL     1      -3.795  13.335  21.491  0.00  0.00    +0.000 C 
ATOM     24  O   UNL     1      -3.617  12.010  23.445  0.00  0.00    +0.000 OA
ENDBRANCH  19  22
ENDBRANCH  16  19
ENDBRANCH  10  13
BRANCH   1  26
ATOM     25  C   UNL     1       1.708   3.853  21.345  0.00  0.00    +0.000 C 
ATOM     26  C   UNL     1       1.727   5.343  21.029  0.00  0.00    +0.000 C 
ENDBRANCH   1  26
BRANCH   3  27
ATOM     27  C   UNL     1       4.482   3.597  17.345  0.00  0.00    +0.000 C 
ATOM     28  O   UNL     1       3.935   2.513  17.235  0.00  0.00    +0.000 OA
BRANCH  27  29
ATOM     29  O   UNL     1       5.740   3.821  16.897  0.00  0.00    +0.000 OA
ATOM     30  H   UNL     1       6.052   4.753  17.013  0.00  0.00    +0.000 HD
ENDBRANCH  27  29
ENDBRANCH   3  27
TORSDOF 6
ENDMDL
MODEL 7
REMARK VINA RESULT:      -6.9      2.214      8.432
REMARK  Name = 
REMARK  10 active torsions:
REMARK  status: ('A' for Active; 'I' for Inactive)
REMARK    1  A    between atoms: C_1  and  C_2
REMARK    2  A    between atoms: C_2  and  N_3
REMARK    3  A    between atoms: C_5  and  C_6
REMARK    4  A    between atoms: C_6  and  O_8
REMARK    5  A    between atoms: C_15  and  N_16
REMARK    6  A    between atoms: N_19  and  C_20
REMARK    7  A    between atoms: C_20  and  C_21
REMARK    8  A    between atoms: C_20  and  C_22
REMARK    9  A    between atoms: C_20  and  C_23
REMARK   10  A    between atoms: C_23  and  C_24
REMARK                            x       y       z     vdW  Elec       q    Type
REMARK                         _______ _______ _______ _____ _____    ______ ____
ROOT
ATOM      1  N   UNL     1       0.125   9.985  21.196  0.00  0.00    +0.000 N 
ATOM      2  C   UNL     1      -0.142  11.338  21.351  0.00  0.00    +0.000 A 
ATOM      3  C   UNL     1       0.149  12.310  20.475  0.00  0.00    +0.000 A 
ATOM      4  C   UNL     1       0.807  11.905  19.216  0.00  0.00    +0.000 A 
ATOM      5  O   UNL     1       1.045  12.738  18.347  0.00  0.00    +0.000 OA
ATOM      6  C   UNL     1       1.191  10.490  19.056  0.00  0.00    +0.000 A 
ATOM      7  C   UNL     1       1.924  10.118  17.926  0.00  0.00    +0.000 A 
ATOM      8  C   UNL     1       2.362   8.806  17.805  0.00  0.00    +0.000 A 
ATOM      9  F   UNL     1       3.077   8.493  16.717  0.00  0.00    +0.000 F 
ATOM     10  C   UNL     1       2.084   7.840  18.791  0.00  0.00    +0.000 A 
ATOM     11  C   UNL     1       1.308   8.255  19.885  0.00  0.00    +0.000 A 
ATOM     12  C   UNL     1       0.851   9.566  20.056  0.00  0.00    +0.000 A 
ENDROOT
BRANCH  10  13
ATOM     13  N   UNL     1       2.612   6.555  18.804  0.00  0.00    +0.000 N 
ATOM     14  C   UNL     1       2.284   5.626  17.717  0.00  0.00    +0.000 C 
ATOM     15  C   UNL     1       3.390   4.555  17.572  0.00  0.00    +0.000 C 
ATOM     16  N   UNL     1       3.802   3.848  18.807  0.00  0.00    +0.000 NA
ATOM     17  C   UNL     1       4.110   4.869  19.833  0.00  0.00    +0.000 C 
ATOM     18  C   UNL     1       3.038   5.950  20.079  0.00  0.00    +0.000 C 
BRANCH  16  19
ATOM     19  C   UNL     1       2.946   2.707  19.240  0.00  0.00    +0.000 C 
ATOM     20  C   UNL     1       1.432   2.819  18.963  0.00  0.00    +0.000 C 
ATOM     21  C   UNL     1       3.414   1.413  18.535  0.00  0.00    +0.000 C 
BRANCH  19  22
ATOM     22  C   UNL     1       3.123   2.499  20.776  0.00  0.00    +0.000 C 
ATOM     23  C   UNL     1       1.959   2.765  21.699  0.00  0.00    +0.000 C 
ATOM     24  O   UNL     1       4.170   2.044  21.255  0.00  0.00    +0.000 OA
ENDBRANCH  19  22
ENDBRANCH  16  19
ENDBRANCH  10  13
BRANCH   1  26
ATOM     25  C   UNL     1      -0.052   9.487  23.620  0.00  0.00    +0.000 C 
ATOM     26  C   UNL     1      -0.308   8.994  22.201  0.00  0.00    +0.000 C 
ENDBRANCH   1  26
BRANCH   3  27
ATOM     27  C   UNL     1      -0.192  13.708  20.799  0.00  0.00    +0.000 C 
ATOM     28  O   UNL     1       0.532  14.443  21.448  0.00  0.00    +0.000 OA
BRANCH  27  29
ATOM     29  O   UNL     1      -1.384  14.119  20.306  0.00  0.00    +0.000 OA
ATOM     30  H   UNL     1      -2.099  14.195  20.986  0.00  0.00    +0.000 HD
ENDBRANCH  27  29
ENDBRANCH   3  27
TORSDOF 6
ENDMDL
MODEL 8
REMARK VINA RESULT:      -6.9      2.192      3.449
REMARK  Name = 
REMARK  10 active torsions:
REMARK  status: ('A' for Active; 'I' for Inactive)
REMARK    1  A    between atoms: C_1  and  C_2
REMARK    2  A    between atoms: C_2  and  N_3
REMARK    3  A    between atoms: C_5  and  C_6
REMARK    4  A    between atoms: C_6  and  O_8
REMARK    5  A    between atoms: C_15  and  N_16
REMARK    6  A    between atoms: N_19  and  C_20
REMARK    7  A    between atoms: C_20  and  C_21
REMARK    8  A    between atoms: C_20  and  C_22
REMARK    9  A    between atoms: C_20  and  C_23
REMARK   10  A    between atoms: C_23  and  C_24
REMARK                            x       y       z     vdW  Elec       q    Type
REMARK                         _______ _______ _______ _____ _____    ______ ____
ROOT
ATOM      1  N   UNL     1       3.850   5.664  18.240  0.00  0.00    +0.000 N 
ATOM      2  C   UNL     1       4.282   4.374  18.514  0.00  0.00    +0.000 A 
ATOM      3  C   UNL     1       3.806   3.563  19.468  0.00  0.00    +0.000 A 
ATOM      4  C   UNL     1       2.705   4.083  20.305  0.00  0.00    +0.000 A 
ATOM      5  O   UNL     1       2.183   3.369  21.155  0.00  0.00    +0.000 OA
ATOM      6  C   UNL     1       2.283   5.482  20.106  0.00  0.00    +0.000 A 
ATOM      7  C   UNL     1       1.330   6.024  20.973  0.00  0.00    +0.000 A 
ATOM      8  C   UNL     1       0.986   7.364  20.847  0.00  0.00    +0.000 A 
ATOM      9  F   UNL     1       0.083   7.850  21.708  0.00  0.00    +0.000 F 
ATOM     10  C   UNL     1       1.569   8.188  19.867  0.00  0.00    +0.000 A 
ATOM     11  C   UNL     1       2.488   7.584  18.995  0.00  0.00    +0.000 A 
ATOM     12  C   UNL     1       2.874   6.243  19.085  0.00  0.00    +0.000 A 
ENDROOT
BRANCH  10  13
ATOM     13  N   UNL     1       1.380   9.562  19.781  0.00  0.00    +0.000 N 
ATOM     14  C   UNL     1       0.810  10.288  20.922  0.00  0.00    +0.000 C 
ATOM     15  C   UNL     1       1.247  11.771  20.888  0.00  0.00    +0.000 C 
ATOM     16  N   UNL     1       1.051  12.495  19.610  0.00  0.00    +0.000 NA
ATOM     17  C   UNL     1       1.658  11.684  18.531  0.00  0.00    +0.000 C 
ATOM     18  C   UNL     1       1.241  10.201  18.460  0.00  0.00    +0.000 C 
BRANCH  16  19
ATOM     19  C   UNL     1      -0.314  13.033  19.350  0.00  0.00    +0.000 C 
ATOM     20  C   UNL     1      -0.940  12.725  17.973  0.00  0.00    +0.000 C 
ATOM     21  C   UNL     1      -1.301  12.474  20.401  0.00  0.00    +0.000 C 
BRANCH  19  22
ATOM     22  C   UNL     1      -0.284  14.585  19.509  0.00  0.00    +0.000 C 
ATOM     23  C   UNL     1       0.817  15.377  18.846  0.00  0.00    +0.000 C 
ATOM     24  O   UNL     1      -1.182  15.197  20.101  0.00  0.00    +0.000 OA
ENDBRANCH  19  22
ENDBRANCH  16  19
ENDBRANCH  10  13
BRANCH   1  26
ATOM     25  C   UNL     1       5.251   5.566  16.195  0.00  0.00    +0.000 C 
ATOM     26  C   UNL     1       4.404   6.439  17.112  0.00  0.00    +0.000 C 
ENDBRANCH   1  26
BRANCH   3  27
ATOM     27  C   UNL     1       4.387   2.217  19.637  0.00  0.00    +0.000 C 
ATOM     28  O   UNL     1       5.079   1.899  20.590  0.00  0.00    +0.000 OA
BRANCH  27  29
ATOM     29  O   UNL     1       4.082   1.349  18.644  0.00  0.00    +0.000 OA
ATOM     30  H   UNL     1       4.789   0.683  18.456  0.00  0.00    +0.000 HD
ENDBRANCH  27  29
ENDBRANCH   3  27
TORSDOF 6
ENDMDL
MODEL 9
REMARK VINA RESULT:      -6.8      2.226      3.225
REMARK  Name = 
REMARK  10 active torsions:
REMARK  status: ('A' for Active; 'I' for Inactive)
REMARK    1  A    between atoms: C_1  and  C_2
REMARK    2  A    between atoms: C_2  and  N_3
REMARK    3  A    between atoms: C_5  and  C_6
REMARK    4  A    between atoms: C_6  and  O_8
REMARK    5  A    between atoms: C_15  and  N_16
REMARK    6  A    between atoms: N_19  and  C_20
REMARK    7  A    between atoms: C_20  and  C_21
REMARK    8  A    between atoms: C_20  and  C_22
REMARK    9  A    between atoms: C_20  and  C_23
REMARK   10  A    between atoms: C_23  and  C_24
REMARK                            x       y       z     vdW  Elec       q    Type
REMARK                         _______ _______ _______ _____ _____    ______ ____
ROOT
ATOM      1  N   UNL     1       3.648   6.210  18.210  0.00  0.00    +0.000 N 
ATOM      2  C   UNL     1       4.159   4.939  18.431  0.00  0.00    +0.000 A 
ATOM      3  C   UNL     1       3.749   4.070  19.365  0.00  0.00    +0.000 A 
ATOM      4  C   UNL     1       2.637   4.497  20.239  0.00  0.00    +0.000 A 
ATOM      5  O   UNL     1       2.174   3.726  21.074  0.00  0.00    +0.000 OA
ATOM      6  C   UNL     1       2.131   5.875  20.096  0.00  0.00    +0.000 A 
ATOM      7  C   UNL     1       1.167   6.332  20.998  0.00  0.00    +0.000 A 
ATOM      8  C   UNL     1       0.744   7.653  20.926  0.00  0.00    +0.000 A 
ATOM      9  F   UNL     1      -0.168   8.056  21.819  0.00  0.00    +0.000 F 
ATOM     10  C   UNL     1       1.259   8.542  19.965  0.00  0.00    +0.000 A 
ATOM     11  C   UNL     1       2.194   8.022  19.055  0.00  0.00    +0.000 A 
ATOM     12  C   UNL     1       2.658   6.703  19.092  0.00  0.00    +0.000 A 
ENDROOT
BRANCH  10  13
ATOM     13  N   UNL     1       0.990   9.904  19.929  0.00  0.00    +0.000 N 
ATOM     14  C   UNL     1       0.978  10.607  18.641  0.00  0.00    +0.000 C 
ATOM     15  C   UNL     1       0.091  11.871  18.726  0.00  0.00    +0.000 C 
ATOM     16  N   UNL     1       0.343  12.789  19.862  0.00  0.00    +0.000 NA
ATOM     17  C   UNL     1       0.334  11.986  21.105  0.00  0.00    +0.000 C 
ATOM     18  C   UNL     1       1.230  10.730  21.126  0.00  0.00    +0.000 C 
BRANCH  16  19
ATOM     19  C   UNL     1       1.467  13.755  19.703  0.00  0.00    +0.000 C 
ATOM     20  C   UNL     1       2.721  13.258  18.954  0.00  0.00    +0.000 C 
ATOM     21  C   UNL     1       0.974  14.999  18.928  0.00  0.00    +0.000 C 
BRANCH  19  22
ATOM     22  C   UNL     1       1.927  14.230  21.116  0.00  0.00    +0.000 C 
ATOM     23  C   UNL     1       1.057  15.186  21.896  0.00  0.00    +0.000 C 
ATOM     24  O   UNL     1       2.950  13.785  21.652  0.00  0.00    +0.000 OA
ENDBRANCH  19  22
ENDBRANCH  16  19
ENDBRANCH  10  13
BRANCH   1  26
ATOM     25  C   UNL     1       5.098   6.292  16.198  0.00  0.00    +0.000 C 
ATOM     26  C   UNL     1       4.134   7.053  17.100  0.00  0.00    +0.000 C 
ENDBRANCH   1  26
BRANCH   3  27
ATOM     27  C   UNL     1       4.410   2.755  19.477  0.00  0.00    +0.000 C 
ATOM     28  O   UNL     1       5.145   2.450  20.400  0.00  0.00    +0.000 OA
BRANCH  27  29
ATOM     29  O   UNL     1       4.125   1.901  18.466  0.00  0.00    +0.000 OA
ATOM     30  H   UNL     1       4.509   0.996  18.581  0.00  0.00    +0.000 HD
ENDBRANCH  27  29
ENDBRANCH   3  27
TORSDOF 6
ENDMDL
