MODEL 1
REMARK VINA RESULT:      -5.8      0.000      0.000
REMARK  Name = 
REMARK  5 active torsions:
REMARK  status: ('A' for Active; 'I' for Inactive)
REMARK    1  A    between atoms: C_1  and  S_2
REMARK    2  A    between atoms: S_2  and  C_3
REMARK    3  A    between atoms: N_4  and  C_5
REMARK    4  A    between atoms: N_7  and  C_8
REMARK    5  A    between atoms: C_8  and  C_9
REMARK                            x       y       z     vdW  Elec       q    Type
REMARK                         _______ _______ _______ _____ _____    ______ ____
ROOT
ATOM      1  C   UNL     1       3.443   4.570  19.613  0.00  0.00    +0.000 C 
ATOM      2  N   UNL     1       3.576   3.489  20.310  0.00  0.00    +0.000 NA
ATOM      3  N   UNL     1       4.347   4.897  18.644  0.00  0.00    +0.000 N 
ATOM      4  H   UNL     1       4.192   5.742  18.112  0.00  0.00    +0.000 HD
ENDROOT
BRANCH   1   6
ATOM      5  C   UNL     1       2.671   7.036  18.566  0.00  0.00    +0.000 C 
ATOM      6  S   UNL     1       2.122   5.725  19.682  0.00  0.00    +0.000 S 
ENDBRANCH   1   6
BRANCH   2   7
ATOM      7  C   UNL     1       2.665   3.100  21.192  0.00  0.00    +0.000 C 
ATOM      8  N   UNL     1       1.902   2.724  21.984  0.00  0.00    +0.000 NA
ENDBRANCH   2   7
BRANCH   3   9
ATOM      9  C   UNL     1       5.467   4.058  18.270  0.00  0.00    +0.000 C 
BRANCH   9  10
ATOM     10  C   UNL     1       5.951   4.366  16.879  0.00  0.00    +0.000 A 
ATOM     11  C   UNL     1       5.433   3.737  15.741  0.00  0.00    +0.000 A 
ATOM     12  C   UNL     1       5.963   4.025  14.488  0.00  0.00    +0.000 A 
ATOM     13  C   UNL     1       7.009   4.927  14.420  0.00  0.00    +0.000 A 
ATOM     14 CL   UNL     1       7.736   5.314  12.915  0.00  0.00    +0.000 Cl
ATOM     15  N   UNL     1       7.546   5.551  15.485  0.00  0.00    +0.000 NA
ATOM     16  C   UNL     1       7.003   5.259  16.688  0.00  0.00    +0.000 A 
ENDBRANCH   9  10
ENDBRANCH   3   9
TORSDOF 4
ENDMDL
MODEL 2
REMARK VINA RESULT:      -5.7      3.686      6.553
REMARK  Name = 
REMARK  5 active torsions:
REMARK  status: ('A' for Active; 'I' for Inactive)
REMARK    1  A    between atoms: C_1  and  S_2
REMARK    2  A    between atoms: S_2  and  C_3
REMARK    3  A    between atoms: N_4  and  C_5
REMARK    4  A    between atoms: N_7  and  C_8
REMARK    5  A    between atoms: C_8  and  C_9
REMARK                            x       y       z     vdW  Elec       q    Type
REMARK                         _______ _______ _______ _____ _____    ______ ____
ROOT
ATOM      1  C   UNL     1       6.039   5.241  16.458  0.00  0.00    +0.000 C 
ATOM      2  N   UNL     1       6.026   4.859  15.223  0.00  0.00    +0.000 NA
ATOM      3  N   UNL     1       5.052   4.863  17.321  0.00  0.00    +0.000 N 
ATOM      4  H   UNL     1       5.115   5.171  18.282  0.00  0.00    +0.000 HD
ENDROOT
BRANCH   1   6
ATOM      5  C   UNL     1       7.102   5.689  18.996  0.00  0.00    +0.000 C 
ATOM      6  S   UNL     1       7.282   6.181  17.266  0.00  0.00    +0.000 S 
ENDBRANCH   1   6
BRANCH   2   7
ATOM      7  C   UNL     1       7.017   5.134  14.386  0.00  0.00    +0.000 C 
ATOM      8  N   UNL     1       7.861   5.419  13.640  0.00  0.00    +0.000 NA
ENDBRANCH   2   7
BRANCH   3   9
ATOM      9  C   UNL     1       3.968   3.971  16.966  0.00  0.00    +0.000 C 
BRANCH   9  10
ATOM     10  C   UNL     1       3.187   3.537  18.177  0.00  0.00    +0.000 A 
ATOM     11  C   UNL     1       1.788   3.545  18.218  0.00  0.00    +0.000 A 
ATOM     12  C   UNL     1       1.126   3.187  19.388  0.00  0.00    +0.000 A 
ATOM     13  C   UNL     1       1.894   2.844  20.486  0.00  0.00    +0.000 A 
ATOM     14 CL   UNL     1       1.155   2.417  21.973  0.00  0.00    +0.000 Cl
ATOM     15  N   UNL     1       3.241   2.829  20.498  0.00  0.00    +0.000 NA
ATOM     16  C   UNL     1       3.855   3.173  19.344  0.00  0.00    +0.000 A 
ENDBRANCH   9  10
ENDBRANCH   3   9
TORSDOF 4
ENDMDL
MODEL 3
REMARK VINA RESULT:      -5.7      2.392      2.976
REMARK  Name = 
REMARK  5 active torsions:
REMARK  status: ('A' for Active; 'I' for Inactive)
REMARK    1  A    between atoms: C_1  and  S_2
REMARK    2  A    between atoms: S_2  and  C_3
REMARK    3  A    between atoms: N_4  and  C_5
REMARK    4  A    between atoms: N_7  and  C_8
REMARK    5  A    between atoms: C_8  and  C_9
REMARK                            x       y       z     vdW  Elec       q    Type
REMARK                         _______ _______ _______ _____ _____    ______ ____
ROOT
ATOM      1  C   UNL     1       3.126   3.680  18.731  0.00  0.00    +0.000 C 
ATOM      2  N   UNL     1       3.856   3.178  19.673  0.00  0.00    +0.000 NA
ATOM      3  N   UNL     1       3.661   3.980  17.512  0.00  0.00    +0.000 N 
ATOM      4  H   UNL     1       3.047   4.353  16.801  0.00  0.00    +0.000 HD
ENDROOT
BRANCH   1   6
ATOM      5  C   UNL     1       0.697   2.313  18.703  0.00  0.00    +0.000 C 
ATOM      6  S   UNL     1       1.396   3.978  18.771  0.00  0.00    +0.000 S 
ENDBRANCH   1   6
BRANCH   2   7
ATOM      7  C   UNL     1       3.346   2.792  20.835  0.00  0.00    +0.000 C 
ATOM      8  N   UNL     1       2.888   2.408  21.831  0.00  0.00    +0.000 NA
ENDBRANCH   2   7
BRANCH   3   9
ATOM      9  C   UNL     1       5.036   3.711  17.146  0.00  0.00    +0.000 C 
BRANCH   9  10
ATOM     10  C   UNL     1       5.908   4.922  17.337  0.00  0.00    +0.000 A 
ATOM     11  C   UNL     1       6.917   4.983  18.304  0.00  0.00    +0.000 A 
ATOM     12  C   UNL     1       7.651   6.153  18.469  0.00  0.00    +0.000 A 
ATOM     13  C   UNL     1       7.336   7.232  17.663  0.00  0.00    +0.000 A 
ATOM     14 CL   UNL     1       8.175   8.719  17.822  0.00  0.00    +0.000 Cl
ATOM     15  N   UNL     1       6.370   7.225  16.725  0.00  0.00    +0.000 NA
ATOM     16  C   UNL     1       5.681   6.071  16.582  0.00  0.00    +0.000 A 
ENDBRANCH   9  10
ENDBRANCH   3   9
TORSDOF 4
ENDMDL
MODEL 4
REMARK VINA RESULT:      -5.6      1.687      2.218
REMARK  Name = 
REMARK  5 active torsions:
REMARK  status: ('A' for Active; 'I' for Inactive)
REMARK    1  A    between atoms: C_1  and  S_2
REMARK    2  A    between atoms: S_2  and  C_3
REMARK    3  A    between atoms: N_4  and  C_5
REMARK    4  A    between atoms: N_7  and  C_8
REMARK    5  A    between atoms: C_8  and  C_9
REMARK                            x       y       z     vdW  Elec       q    Type
REMARK                         _______ _______ _______ _____ _____    ______ ____
ROOT
ATOM      1  C   UNL     1       3.027   4.659  18.529  0.00  0.00    +0.000 C 
ATOM      2  N   UNL     1       3.338   5.744  19.160  0.00  0.00    +0.000 NA
ATOM      3  N   UNL     1       3.980   3.919  17.892  0.00  0.00    +0.000 N 
ATOM      4  H   UNL     1       3.692   3.069  17.427  0.00  0.00    +0.000 HD
ENDROOT
BRANCH   1   6
ATOM      5  C   UNL     1       1.750   2.251  19.115  0.00  0.00    +0.000 C 
ATOM      6  S   UNL     1       1.447   3.899  18.437  0.00  0.00    +0.000 S 
ENDBRANCH   1   6
BRANCH   2   7
ATOM      7  C   UNL     1       2.450   6.432  19.865  0.00  0.00    +0.000 C 
ATOM      8  N   UNL     1       1.640   7.033  20.443  0.00  0.00    +0.000 NA
ENDBRANCH   2   7
BRANCH   3   9
ATOM      9  C   UNL     1       5.394   4.232  17.916  0.00  0.00    +0.000 C 
BRANCH   9  10
ATOM     10  C   UNL     1       5.931   4.483  16.534  0.00  0.00    +0.000 A 
ATOM     11  C   UNL     1       5.405   3.864  15.394  0.00  0.00    +0.000 A 
ATOM     12  C   UNL     1       5.984   4.094  14.150  0.00  0.00    +0.000 A 
ATOM     13  C   UNL     1       7.084   4.931  14.094  0.00  0.00    +0.000 A 
ATOM     14 CL   UNL     1       7.871   5.243  12.603  0.00  0.00    +0.000 Cl
ATOM     15  N   UNL     1       7.631   5.542  15.162  0.00  0.00    +0.000 NA
ATOM     16  C   UNL     1       7.040   5.306  16.355  0.00  0.00    +0.000 A 
ENDBRANCH   9  10
ENDBRANCH   3   9
TORSDOF 4
ENDMDL
MODEL 5
REMARK VINA RESULT:      -5.6      1.403      1.414
REMARK  Name = 
REMARK  5 active torsions:
REMARK  status: ('A' for Active; 'I' for Inactive)
REMARK    1  A    between atoms: C_1  and  S_2
REMARK    2  A    between atoms: S_2  and  C_3
REMARK    3  A    between atoms: N_4  and  C_5
REMARK    4  A    between atoms: N_7  and  C_8
REMARK    5  A    between atoms: C_8  and  C_9
REMARK                            x       y       z     vdW  Elec       q    Type
REMARK                         _______ _______ _______ _____ _____    ______ ____
ROOT
ATOM      1  C   UNL     1       3.557   5.029  18.950  0.00  0.00    +0.000 C 
ATOM      2  N   UNL     1       3.202   3.833  18.610  0.00  0.00    +0.000 NA
ATOM      3  N   UNL     1       4.873   5.389  18.980  0.00  0.00    +0.000 N 
ATOM      4  H   UNL     1       5.101   6.341  19.234  0.00  0.00    +0.000 HD
ENDROOT
BRANCH   1   6
ATOM      5  C   UNL     1       2.852   7.550  17.992  0.00  0.00    +0.000 C 
ATOM      6  S   UNL     1       2.505   6.383  19.328  0.00  0.00    +0.000 S 
ENDBRANCH   1   6
BRANCH   2   7
ATOM      7  C   UNL     1       1.929   3.481  18.483  0.00  0.00    +0.000 C 
ATOM      8  N   UNL     1       0.810   3.209  18.334  0.00  0.00    +0.000 NA
ENDBRANCH   2   7
BRANCH   3   9
ATOM      9  C   UNL     1       5.957   4.516  18.583  0.00  0.00    +0.000 C 
BRANCH   9  10
ATOM     10  C   UNL     1       6.266   4.647  17.116  0.00  0.00    +0.000 A 
ATOM     11  C   UNL     1       5.706   3.807  16.146  0.00  0.00    +0.000 A 
ATOM     12  C   UNL     1       6.077   3.944  14.813  0.00  0.00    +0.000 A 
ATOM     13  C   UNL     1       7.012   4.913  14.498  0.00  0.00    +0.000 A 
ATOM     14 CL   UNL     1       7.542   5.125  12.881  0.00  0.00    +0.000 Cl
ATOM     15  N   UNL     1       7.585   5.738  15.394  0.00  0.00    +0.000 NA
ATOM     16  C   UNL     1       7.197   5.588  16.680  0.00  0.00    +0.000 A 
ENDBRANCH   9  10
ENDBRANCH   3   9
TORSDOF 4
ENDMDL
MODEL 6
REMARK VINA RESULT:      -5.6      3.619      6.267
REMARK  Name = 
REMARK  5 active torsions:
REMARK  status: ('A' for Active; 'I' for Inactive)
REMARK    1  A    between atoms: C_1  and  S_2
REMARK    2  A    between atoms: S_2  and  C_3
REMARK    3  A    between atoms: N_4  and  C_5
REMARK    4  A    between atoms: N_7  and  C_8
REMARK    5  A    between atoms: C_8  and  C_9
REMARK                            x       y       z     vdW  Elec       q    Type
REMARK                         _______ _______ _______ _____ _____    ______ ____
ROOT
ATOM      1  C   UNL     1       5.499   6.482  16.835  0.00  0.00    +0.000 C 
ATOM      2  N   UNL     1       5.114   5.746  15.845  0.00  0.00    +0.000 NA
ATOM      3  N   UNL     1       4.591   7.081  17.660  0.00  0.00    +0.000 N 
ATOM      4  H   UNL     1       4.939   7.632  18.432  0.00  0.00    +0.000 HD
ENDROOT
BRANCH   1   6
ATOM      5  C   UNL     1       7.437   5.452  18.554  0.00  0.00    +0.000 C 
ATOM      6  S   UNL     1       7.147   6.779  17.361  0.00  0.00    +0.000 S 
ENDBRANCH   1   6
BRANCH   2   7
ATOM      7  C   UNL     1       5.971   5.078  15.083  0.00  0.00    +0.000 C 
ATOM      8  N   UNL     1       6.758   4.502  14.452  0.00  0.00    +0.000 NA
ENDBRANCH   2   7
BRANCH   3   9
ATOM      9  C   UNL     1       3.158   6.899  17.549  0.00  0.00    +0.000 C 
BRANCH   9  10
ATOM     10  C   UNL     1       2.672   5.775  18.423  0.00  0.00    +0.000 A 
ATOM     11  C   UNL     1       1.947   4.688  17.923  0.00  0.00    +0.000 A 
ATOM     12  C   UNL     1       1.476   3.709  18.792  0.00  0.00    +0.000 A 
ATOM     13  C   UNL     1       1.739   3.862  20.141  0.00  0.00    +0.000 A 
ATOM     14 CL   UNL     1       1.169   2.714  21.280  0.00  0.00    +0.000 Cl
ATOM     15  N   UNL     1       2.424   4.893  20.671  0.00  0.00    +0.000 NA
ATOM     16  C   UNL     1       2.877   5.823  19.800  0.00  0.00    +0.000 A 
ENDBRANCH   9  10
ENDBRANCH   3   9
TORSDOF 4
ENDMDL
MODEL 7
REMARK VINA RESULT:      -5.5      1.391      1.480
REMARK  Name = 
REMARK  5 active torsions:
REMARK  status: ('A' for Active; 'I' for Inactive)
REMARK    1  A    between atoms: C_1  and  S_2
REMARK    2  A    between atoms: S_2  and  C_3
REMARK    3  A    between atoms: N_4  and  C_5
REMARK    4  A    between atoms: N_7  and  C_8
REMARK    5  A    between atoms: C_8  and  C_9
REMARK                            x       y       z     vdW  Elec       q    Type
REMARK                         _______ _______ _______ _____ _____    ______ ____
ROOT
ATOM      1  C   UNL     1       3.603   4.654  19.611  0.00  0.00    +0.000 C 
ATOM      2  N   UNL     1       3.841   3.397  19.425  0.00  0.00    +0.000 NA
ATOM      3  N   UNL     1       4.611   5.573  19.577  0.00  0.00    +0.000 N 
ATOM      4  H   UNL     1       4.373   6.547  19.709  0.00  0.00    +0.000 HD
ENDROOT
BRANCH   1   6
ATOM      5  C   UNL     1       2.398   7.168  19.570  0.00  0.00    +0.000 C 
ATOM      6  S   UNL     1       2.037   5.417  19.836  0.00  0.00    +0.000 S 
ENDBRANCH   1   6
BRANCH   2   7
ATOM      7  C   UNL     1       2.871   2.494  19.361  0.00  0.00    +0.000 C 
ATOM      8  N   UNL     1       2.014   1.718  19.255  0.00  0.00    +0.000 NA
ENDBRANCH   2   7
BRANCH   3   9
ATOM      9  C   UNL     1       5.989   5.248  19.273  0.00  0.00    +0.000 C 
BRANCH   9  10
ATOM     10  C   UNL     1       6.241   5.230  17.790  0.00  0.00    +0.000 A 
ATOM     11  C   UNL     1       5.328   5.744  16.861  0.00  0.00    +0.000 A 
ATOM     12  C   UNL     1       5.594   5.645  15.500  0.00  0.00    +0.000 A 
ATOM     13  C   UNL     1       6.765   5.020  15.113  0.00  0.00    +0.000 A 
ATOM     14 CL   UNL     1       7.152   4.833  13.453  0.00  0.00    +0.000 Cl
ATOM     15  N   UNL     1       7.669   4.502  15.967  0.00  0.00    +0.000 NA
ATOM     16  C   UNL     1       7.387   4.622  17.284  0.00  0.00    +0.000 A 
ENDBRANCH   9  10
ENDBRANCH   3   9
TORSDOF 4
ENDMDL
MODEL 8
REMARK VINA RESULT:      -5.5      3.672      6.541
REMARK  Name = 
REMARK  5 active torsions:
REMARK  status: ('A' for Active; 'I' for Inactive)
REMARK    1  A    between atoms: C_1  and  S_2
REMARK    2  A    between atoms: S_2  and  C_3
REMARK    3  A    between atoms: N_4  and  C_5
REMARK    4  A    between atoms: N_7  and  C_8
REMARK    5  A    between atoms: C_8  and  C_9
REMARK                            x       y       z     vdW  Elec       q    Type
REMARK                         _______ _______ _______ _____ _____    ______ ____
ROOT
ATOM      1  C   UNL     1       5.927   5.655  17.096  0.00  0.00    +0.000 C 
ATOM      2  N   UNL     1       5.794   5.329  15.853  0.00  0.00    +0.000 NA
ATOM      3  N   UNL     1       4.860   5.630  17.947  0.00  0.00    +0.000 N 
ATOM      4  H   UNL     1       5.015   5.875  18.915  0.00  0.00    +0.000 HD
ENDROOT
BRANCH   1   6
ATOM      5  C   UNL     1       7.625   7.825  17.519  0.00  0.00    +0.000 C 
ATOM      6  S   UNL     1       7.411   6.079  17.932  0.00  0.00    +0.000 S 
ENDBRANCH   1   6
BRANCH   2   7
ATOM      7  C   UNL     1       6.829   5.255  15.026  0.00  0.00    +0.000 C 
ATOM      8  N   UNL     1       7.702   5.192  14.262  0.00  0.00    +0.000 NA
ENDBRANCH   2   7
BRANCH   3   9
ATOM      9  C   UNL     1       3.535   5.185  17.566  0.00  0.00    +0.000 C 
BRANCH   9  10
ATOM     10  C   UNL     1       2.874   4.404  18.669  0.00  0.00    +0.000 A 
ATOM     11  C   UNL     1       1.484   4.296  18.791  0.00  0.00    +0.000 A 
ATOM     12  C   UNL     1       0.934   3.606  19.866  0.00  0.00    +0.000 A 
ATOM     13  C   UNL     1       1.800   3.058  20.794  0.00  0.00    +0.000 A 
ATOM     14 CL   UNL     1       1.200   2.217  22.163  0.00  0.00    +0.000 Cl
ATOM     15  N   UNL     1       3.142   3.142  20.725  0.00  0.00    +0.000 NA
ATOM     16  C   UNL     1       3.647   3.810  19.664  0.00  0.00    +0.000 A 
ENDBRANCH   9  10
ENDBRANCH   3   9
TORSDOF 4
ENDMDL
MODEL 9
REMARK VINA RESULT:      -5.5      3.819      6.490
REMARK  Name = 
REMARK  5 active torsions:
REMARK  status: ('A' for Active; 'I' for Inactive)
REMARK    1  A    between atoms: C_1  and  S_2
REMARK    2  A    between atoms: S_2  and  C_3
REMARK    3  A    between atoms: N_4  and  C_5
REMARK    4  A    between atoms: N_7  and  C_8
REMARK    5  A    between atoms: C_8  and  C_9
REMARK                            x       y       z     vdW  Elec       q    Type
REMARK                         _______ _______ _______ _____ _____    ______ ____
ROOT
ATOM      1  C   UNL     1       5.683   5.611  16.939  0.00  0.00    +0.000 C 
ATOM      2  N   UNL     1       5.842   6.772  17.485  0.00  0.00    +0.000 NA
ATOM      3  N   UNL     1       4.473   4.981  16.967  0.00  0.00    +0.000 N 
ATOM      4  H   UNL     1       4.392   4.083  16.510  0.00  0.00    +0.000 HD
ENDROOT
BRANCH   1   6
ATOM      5  C   UNL     1       5.937   4.158  14.573  0.00  0.00    +0.000 C 
ATOM      6  S   UNL     1       6.870   4.695  16.025  0.00  0.00    +0.000 S 
ENDBRANCH   1   6
BRANCH   2   7
ATOM      7  C   UNL     1       6.980   7.448  17.394  0.00  0.00    +0.000 C 
ATOM      8  N   UNL     1       7.969   8.043  17.263  0.00  0.00    +0.000 NA
ENDBRANCH   2   7
BRANCH   3   9
ATOM      9  C   UNL     1       3.274   5.563  17.533  0.00  0.00    +0.000 C 
BRANCH   9  10
ATOM     10  C   UNL     1       2.695   4.696  18.618  0.00  0.00    +0.000 A 
ATOM     11  C   UNL     1       1.534   3.936  18.440  0.00  0.00    +0.000 A 
ATOM     12  C   UNL     1       1.018   3.200  19.501  0.00  0.00    +0.000 A 
ATOM     13  C   UNL     1       1.680   3.262  20.714  0.00  0.00    +0.000 A 
ATOM     14 CL   UNL     1       1.091   2.405  22.078  0.00  0.00    +0.000 Cl
ATOM     15  N   UNL     1       2.794   3.984  20.937  0.00  0.00    +0.000 NA
ATOM     16  C   UNL     1       3.277   4.681  19.884  0.00  0.00    +0.000 A 
ENDBRANCH   9  10
ENDBRANCH   3   9
TORSDOF 4
ENDMDL
