MODEL 1
REMARK VINA RESULT:      -7.2      0.000      0.000
REMARK  Name = 
REMARK  4 active torsions:
REMARK  status: ('A' for Active; 'I' for Inactive)
REMARK    1  A    between atoms: C_1  and  C_2
REMARK    2  A    between atoms: N_4  and  C_5
REMARK    3  A    between atoms: C_7  and  C_8
REMARK    4  A    between atoms: C_8  and  O_9
REMARK                            x       y       z     vdW  Elec       q    Type
REMARK                         _______ _______ _______ _____ _____    ______ ____
ROOT
ATOM      1  C   UNL     1       5.345   4.350  14.422  0.00  0.00    +0.000 C 
ATOM      2  C   UNL     1       5.601   4.619  15.869  0.00  0.00    +0.000 A 
ATOM      3  C   UNL     1       4.628   4.713  16.781  0.00  0.00    +0.000 A 
ATOM      4  N   UNL     1       4.860   4.957  18.123  0.00  0.00    +0.000 N 
ATOM      5  C   UNL     1       6.158   5.048  18.613  0.00  0.00    +0.000 A 
ATOM      6  O   UNL     1       6.445   5.147  19.803  0.00  0.00    +0.000 OA
ATOM      7  N   UNL     1       7.153   4.987  17.671  0.00  0.00    +0.000 N 
ATOM      8  C   UNL     1       6.996   4.768  16.330  0.00  0.00    +0.000 A 
ATOM      9  O   UNL     1       7.947   4.677  15.561  0.00  0.00    +0.000 OA
ATOM     10  H   UNL     1       8.101   5.040  18.010  0.00  0.00    +0.000 HD
ENDROOT
BRANCH   4  11
ATOM     11  C   UNL     1       3.768   4.918  19.101  0.00  0.00    +0.000 C 
ATOM     12  O   UNL     1       3.642   3.587  19.672  0.00  0.00    +0.000 OA
ATOM     13  C   UNL     1       2.401   2.997  19.213  0.00  0.00    +0.000 C 
ATOM     14  C   UNL     1       1.624   4.127  18.642  0.00  0.00    +0.000 C 
ATOM     15  C   UNL     1       2.421   5.183  18.526  0.00  0.00    +0.000 C 
ATOM     16  F   UNL     1       1.983   6.366  18.064  0.00  0.00    +0.000 F 
BRANCH  13  17
ATOM     17  C   UNL     1       2.669   1.922  18.147  0.00  0.00    +0.000 C 
BRANCH  17  18
ATOM     18  O   UNL     1       4.000   1.421  18.237  0.00  0.00    +0.000 OA
ATOM     19  H   UNL     1       4.054   0.631  17.671  0.00  0.00    +0.000 HD
ENDBRANCH  17  18
ENDBRANCH  13  17
ENDBRANCH   4  11
TORSDOF 3
ENDMDL
MODEL 2
REMARK VINA RESULT:      -7.1      1.029      1.095
REMARK  Name = 
REMARK  4 active torsions:
REMARK  status: ('A' for Active; 'I' for Inactive)
REMARK    1  A    between atoms: C_1  and  C_2
REMARK    2  A    between atoms: N_4  and  C_5
REMARK    3  A    between atoms: C_7  and  C_8
REMARK    4  A    between atoms: C_8  and  O_9
REMARK                            x       y       z     vdW  Elec       q    Type
REMARK                         _______ _______ _______ _____ _____    ______ ____
ROOT
ATOM      1  C   UNL     1       5.116   4.404  14.372  0.00  0.00    +0.000 C 
ATOM      2  C   UNL     1       5.714   4.670  15.714  0.00  0.00    +0.000 A 
ATOM      3  C   UNL     1       5.040   4.523  16.860  0.00  0.00    +0.000 A 
ATOM      4  N   UNL     1       5.591   4.763  18.106  0.00  0.00    +0.000 N 
ATOM      5  C   UNL     1       6.932   5.109  18.234  0.00  0.00    +0.000 A 
ATOM      6  O   UNL     1       7.520   5.224  19.307  0.00  0.00    +0.000 OA
ATOM      7  N   UNL     1       7.611   5.294  17.057  0.00  0.00    +0.000 N 
ATOM      8  C   UNL     1       7.126   5.094  15.794  0.00  0.00    +0.000 A 
ATOM      9  O   UNL     1       7.820   5.233  14.792  0.00  0.00    +0.000 OA
ATOM     10  H   UNL     1       8.588   5.533  17.132  0.00  0.00    +0.000 HD
ENDROOT
BRANCH   4  11
ATOM     11  C   UNL     1       4.850   4.459  19.335  0.00  0.00    +0.000 C 
ATOM     12  O   UNL     1       4.889   3.033  19.615  0.00  0.00    +0.000 OA
ATOM     13  C   UNL     1       3.560   2.485  19.434  0.00  0.00    +0.000 C 
ATOM     14  C   UNL     1       2.659   3.665  19.381  0.00  0.00    +0.000 C 
ATOM     15  C   UNL     1       3.395   4.764  19.263  0.00  0.00    +0.000 C 
ATOM     16  F   UNL     1       2.851   5.992  19.223  0.00  0.00    +0.000 F 
BRANCH  13  17
ATOM     17  C   UNL     1       3.477   1.674  18.129  0.00  0.00    +0.000 C 
BRANCH  17  18
ATOM     18  O   UNL     1       2.213   1.844  17.493  0.00  0.00    +0.000 OA
ATOM     19  H   UNL     1       2.308   2.565  16.845  0.00  0.00    +0.000 HD
ENDBRANCH  17  18
ENDBRANCH  13  17
ENDBRANCH   4  11
TORSDOF 3
ENDMDL
MODEL 3
REMARK VINA RESULT:      -6.9      1.071      1.073
REMARK  Name = 
REMARK  4 active torsions:
REMARK  status: ('A' for Active; 'I' for Inactive)
REMARK    1  A    between atoms: C_1  and  C_2
REMARK    2  A    between atoms: N_4  and  C_5
REMARK    3  A    between atoms: C_7  and  C_8
REMARK    4  A    between atoms: C_8  and  O_9
REMARK                            x       y       z     vdW  Elec       q    Type
REMARK                         _______ _______ _______ _____ _____    ______ ____
ROOT
ATOM      1  C   UNL     1       5.359   3.975  13.771  0.00  0.00    +0.000 C 
ATOM      2  C   UNL     1       5.737   4.623  15.062  0.00  0.00    +0.000 A 
ATOM      3  C   UNL     1       4.947   4.625  16.141  0.00  0.00    +0.000 A 
ATOM      4  N   UNL     1       5.295   5.219  17.341  0.00  0.00    +0.000 N 
ATOM      5  C   UNL     1       6.549   5.797  17.509  0.00  0.00    +0.000 A 
ATOM      6  O   UNL     1       6.973   6.238  18.575  0.00  0.00    +0.000 OA
ATOM      7  N   UNL     1       7.343   5.825  16.391  0.00  0.00    +0.000 N 
ATOM      8  C   UNL     1       7.057   5.276  15.171  0.00  0.00    +0.000 A 
ATOM      9  O   UNL     1       7.848   5.303  14.235  0.00  0.00    +0.000 OA
ATOM     10  H   UNL     1       8.261   6.230  16.498  0.00  0.00    +0.000 HD
ENDROOT
BRANCH   4  11
ATOM     11  C   UNL     1       4.451   5.076  18.531  0.00  0.00    +0.000 C 
ATOM     12  O   UNL     1       4.631   3.764  19.132  0.00  0.00    +0.000 OA
ATOM     13  C   UNL     1       3.414   2.999  18.957  0.00  0.00    +0.000 C 
ATOM     14  C   UNL     1       2.387   3.993  18.552  0.00  0.00    +0.000 C 
ATOM     15  C   UNL     1       2.989   5.138  18.256  0.00  0.00    +0.000 C 
ATOM     16  F   UNL     1       2.306   6.234  17.885  0.00  0.00    +0.000 F 
BRANCH  13  17
ATOM     17  C   UNL     1       3.595   1.925  17.870  0.00  0.00    +0.000 C 
BRANCH  17  18
ATOM     18  O   UNL     1       4.009   0.683  18.433  0.00  0.00    +0.000 OA
ATOM     19  H   UNL     1       3.641   0.634  19.334  0.00  0.00    +0.000 HD
ENDBRANCH  17  18
ENDBRANCH  13  17
ENDBRANCH   4  11
TORSDOF 3
ENDMDL
MODEL 4
REMARK VINA RESULT:      -6.7      2.206      4.860
REMARK  Name = 
REMARK  4 active torsions:
REMARK  status: ('A' for Active; 'I' for Inactive)
REMARK    1  A    between atoms: C_1  and  C_2
REMARK    2  A    between atoms: N_4  and  C_5
REMARK    3  A    between atoms: C_7  and  C_8
REMARK    4  A    between atoms: C_8  and  O_9
REMARK                            x       y       z     vdW  Elec       q    Type
REMARK                         _______ _______ _______ _____ _____    ______ ____
ROOT
ATOM      1  C   UNL     1       2.463   8.449  17.982  0.00  0.00    +0.000 C 
ATOM      2  C   UNL     1       2.891   7.107  18.476  0.00  0.00    +0.000 A 
ATOM      3  C   UNL     1       3.727   6.309  17.803  0.00  0.00    +0.000 A 
ATOM      4  N   UNL     1       4.131   5.067  18.259  0.00  0.00    +0.000 N 
ATOM      5  C   UNL     1       3.733   4.607  19.509  0.00  0.00    +0.000 A 
ATOM      6  O   UNL     1       4.141   3.571  20.030  0.00  0.00    +0.000 OA
ATOM      7  N   UNL     1       2.848   5.410  20.182  0.00  0.00    +0.000 N 
ATOM      8  C   UNL     1       2.393   6.637  19.785  0.00  0.00    +0.000 A 
ATOM      9  O   UNL     1       1.639   7.315  20.474  0.00  0.00    +0.000 OA
ATOM     10  H   UNL     1       2.559   5.097  21.097  0.00  0.00    +0.000 HD
ENDROOT
BRANCH   4  11
ATOM     11  C   UNL     1       5.151   4.292  17.545  0.00  0.00    +0.000 C 
ATOM     12  O   UNL     1       6.283   4.013  18.415  0.00  0.00    +0.000 OA
ATOM     13  C   UNL     1       7.430   4.760  17.941  0.00  0.00    +0.000 C 
ATOM     14  C   UNL     1       7.059   5.214  16.577  0.00  0.00    +0.000 C 
ATOM     15  C   UNL     1       5.762   5.002  16.389  0.00  0.00    +0.000 C 
ATOM     16  F   UNL     1       5.148   5.288  15.229  0.00  0.00    +0.000 F 
BRANCH  13  17
ATOM     17  C   UNL     1       7.717   5.961  18.859  0.00  0.00    +0.000 C 
BRANCH  17  18
ATOM     18  O   UNL     1       7.797   5.562  20.224  0.00  0.00    +0.000 OA
ATOM     19  H   UNL     1       6.985   5.065  20.432  0.00  0.00    +0.000 HD
ENDBRANCH  17  18
ENDBRANCH  13  17
ENDBRANCH   4  11
TORSDOF 3
ENDMDL
MODEL 5
REMARK VINA RESULT:      -6.7      1.989      2.352
REMARK  Name = 
REMARK  4 active torsions:
REMARK  status: ('A' for Active; 'I' for Inactive)
REMARK    1  A    between atoms: C_1  and  C_2
REMARK    2  A    between atoms: N_4  and  C_5
REMARK    3  A    between atoms: C_7  and  C_8
REMARK    4  A    between atoms: C_8  and  O_9
REMARK                            x       y       z     vdW  Elec       q    Type
REMARK                         _______ _______ _______ _____ _____    ______ ____
ROOT
ATOM      1  C   UNL     1       7.543   4.572  17.739  0.00  0.00    +0.000 C 
ATOM      2  C   UNL     1       6.217   5.258  17.751  0.00  0.00    +0.000 A 
ATOM      3  C   UNL     1       5.113   4.713  18.274  0.00  0.00    +0.000 A 
ATOM      4  N   UNL     1       3.883   5.347  18.292  0.00  0.00    +0.000 N 
ATOM      5  C   UNL     1       3.749   6.648  17.818  0.00  0.00    +0.000 A 
ATOM      6  O   UNL     1       2.721   7.316  17.907  0.00  0.00    +0.000 OA
ATOM      7  N   UNL     1       4.873   7.191  17.251  0.00  0.00    +0.000 N 
ATOM      8  C   UNL     1       6.112   6.617  17.181  0.00  0.00    +0.000 A 
ATOM      9  O   UNL     1       7.080   7.195  16.700  0.00  0.00    +0.000 OA
ATOM     10  H   UNL     1       4.796   8.138  16.913  0.00  0.00    +0.000 HD
ENDROOT
BRANCH   4  11
ATOM     11  C   UNL     1       2.738   4.761  18.995  0.00  0.00    +0.000 C 
ATOM     12  O   UNL     1       3.179   3.721  19.911  0.00  0.00    +0.000 OA
ATOM     13  C   UNL     1       2.721   2.439  19.417  0.00  0.00    +0.000 C 
ATOM     14  C   UNL     1       1.706   2.763  18.382  0.00  0.00    +0.000 C 
ATOM     15  C   UNL     1       1.768   4.061  18.109  0.00  0.00    +0.000 C 
ATOM     16  F   UNL     1       0.943   4.650  17.228  0.00  0.00    +0.000 F 
BRANCH  13  17
ATOM     17  C   UNL     1       3.886   1.639  18.810  0.00  0.00    +0.000 C 
BRANCH  17  18
ATOM     18  O   UNL     1       5.028   1.659  19.661  0.00  0.00    +0.000 OA
ATOM     19  H   UNL     1       4.919   2.405  20.278  0.00  0.00    +0.000 HD
ENDBRANCH  17  18
ENDBRANCH  13  17
ENDBRANCH   4  11
TORSDOF 3
ENDMDL
MODEL 6
REMARK VINA RESULT:      -6.7      2.297      4.943
REMARK  Name = 
REMARK  4 active torsions:
REMARK  status: ('A' for Active; 'I' for Inactive)
REMARK    1  A    between atoms: C_1  and  C_2
REMARK    2  A    between atoms: N_4  and  C_5
REMARK    3  A    between atoms: C_7  and  C_8
REMARK    4  A    between atoms: C_8  and  O_9
REMARK                            x       y       z     vdW  Elec       q    Type
REMARK                         _______ _______ _______ _____ _____    ______ ____
ROOT
ATOM      1  C   UNL     1       2.601   8.352  17.838  0.00  0.00    +0.000 C 
ATOM      2  C   UNL     1       2.981   7.027  18.413  0.00  0.00    +0.000 A 
ATOM      3  C   UNL     1       3.845   6.192  17.826  0.00  0.00    +0.000 A 
ATOM      4  N   UNL     1       4.203   4.966  18.357  0.00  0.00    +0.000 N 
ATOM      5  C   UNL     1       3.723   4.563  19.598  0.00  0.00    +0.000 A 
ATOM      6  O   UNL     1       4.084   3.546  20.186  0.00  0.00    +0.000 OA
ATOM      7  N   UNL     1       2.810   5.404  20.182  0.00  0.00    +0.000 N 
ATOM      8  C   UNL     1       2.397   6.618  19.707  0.00  0.00    +0.000 A 
ATOM      9  O   UNL     1       1.611   7.333  20.319  0.00  0.00    +0.000 OA
ATOM     10  H   UNL     1       2.461   5.133  21.089  0.00  0.00    +0.000 HD
ENDROOT
BRANCH   4  11
ATOM     11  C   UNL     1       5.254   4.150  17.740  0.00  0.00    +0.000 C 
ATOM     12  O   UNL     1       6.514   4.320  18.447  0.00  0.00    +0.000 OA
ATOM     13  C   UNL     1       7.440   5.026  17.586  0.00  0.00    +0.000 C 
ATOM     14  C   UNL     1       6.832   4.966  16.232  0.00  0.00    +0.000 C 
ATOM     15  C   UNL     1       5.582   4.531  16.339  0.00  0.00    +0.000 C 
ATOM     16  F   UNL     1       4.791   4.345  15.270  0.00  0.00    +0.000 F 
BRANCH  13  17
ATOM     17  C   UNL     1       7.611   6.484  18.046  0.00  0.00    +0.000 C 
BRANCH  17  18
ATOM     18  O   UNL     1       7.452   7.392  16.960  0.00  0.00    +0.000 OA
ATOM     19  H   UNL     1       8.094   8.114  17.086  0.00  0.00    +0.000 HD
ENDBRANCH  17  18
ENDBRANCH  13  17
ENDBRANCH   4  11
TORSDOF 3
ENDMDL
MODEL 7
REMARK VINA RESULT:      -6.7      1.940      2.219
REMARK  Name = 
REMARK  4 active torsions:
REMARK  status: ('A' for Active; 'I' for Inactive)
REMARK    1  A    between atoms: C_1  and  C_2
REMARK    2  A    between atoms: N_4  and  C_5
REMARK    3  A    between atoms: C_7  and  C_8
REMARK    4  A    between atoms: C_8  and  O_9
REMARK                            x       y       z     vdW  Elec       q    Type
REMARK                         _______ _______ _______ _____ _____    ______ ____
ROOT
ATOM      1  C   UNL     1       4.464   6.857  16.813  0.00  0.00    +0.000 C 
ATOM      2  C   UNL     1       4.636   5.700  17.742  0.00  0.00    +0.000 A 
ATOM      3  C   UNL     1       3.824   5.463  18.778  0.00  0.00    +0.000 A 
ATOM      4  N   UNL     1       3.977   4.390  19.638  0.00  0.00    +0.000 N 
ATOM      5  C   UNL     1       4.968   3.440  19.417  0.00  0.00    +0.000 A 
ATOM      6  O   UNL     1       5.092   2.403  20.065  0.00  0.00    +0.000 OA
ATOM      7  N   UNL     1       5.821   3.704  18.376  0.00  0.00    +0.000 N 
ATOM      8  C   UNL     1       5.742   4.751  17.500  0.00  0.00    +0.000 A 
ATOM      9  O   UNL     1       6.519   4.885  16.562  0.00  0.00    +0.000 OA
ATOM     10  H   UNL     1       6.538   3.018  18.195  0.00  0.00    +0.000 HD
ENDROOT
BRANCH   4  11
ATOM     11  C   UNL     1       2.982   4.102  20.676  0.00  0.00    +0.000 C 
ATOM     12  O   UNL     1       2.484   2.742  20.543  0.00  0.00    +0.000 OA
ATOM     13  C   UNL     1       1.099   2.791  20.123  0.00  0.00    +0.000 C 
ATOM     14  C   UNL     1       0.677   4.197  20.344  0.00  0.00    +0.000 C 
ATOM     15  C   UNL     1       1.752   4.936  20.593  0.00  0.00    +0.000 C 
ATOM     16  F   UNL     1       1.674   6.250  20.863  0.00  0.00    +0.000 F 
BRANCH  13  17
ATOM     17  C   UNL     1       0.964   2.404  18.640  0.00  0.00    +0.000 C 
BRANCH  17  18
ATOM     18  O   UNL     1       2.107   1.687  18.185  0.00  0.00    +0.000 OA
ATOM     19  H   UNL     1       2.727   1.620  18.934  0.00  0.00    +0.000 HD
ENDBRANCH  17  18
ENDBRANCH  13  17
ENDBRANCH   4  11
TORSDOF 3
ENDMDL
MODEL 8
REMARK VINA RESULT:      -6.6      1.966      5.023
REMARK  Name = 
REMARK  4 active torsions:
REMARK  status: ('A' for Active; 'I' for Inactive)
REMARK    1  A    between atoms: C_1  and  C_2
REMARK    2  A    between atoms: N_4  and  C_5
REMARK    3  A    between atoms: C_7  and  C_8
REMARK    4  A    between atoms: C_8  and  O_9
REMARK                            x       y       z     vdW  Elec       q    Type
REMARK                         _______ _______ _______ _____ _____    ______ ____
ROOT
ATOM      1  C   UNL     1       2.204   7.051  19.811  0.00  0.00    +0.000 C 
ATOM      2  C   UNL     1       2.686   5.754  19.250  0.00  0.00    +0.000 A 
ATOM      3  C   UNL     1       3.749   5.651  18.445  0.00  0.00    +0.000 A 
ATOM      4  N   UNL     1       4.202   4.451  17.928  0.00  0.00    +0.000 N 
ATOM      5  C   UNL     1       3.599   3.251  18.287  0.00  0.00    +0.000 A 
ATOM      6  O   UNL     1       4.014   2.141  17.963  0.00  0.00    +0.000 OA
ATOM      7  N   UNL     1       2.488   3.361  19.084  0.00  0.00    +0.000 N 
ATOM      8  C   UNL     1       1.974   4.512  19.615  0.00  0.00    +0.000 A 
ATOM      9  O   UNL     1       1.003   4.516  20.363  0.00  0.00    +0.000 OA
ATOM     10  H   UNL     1       2.046   2.499  19.365  0.00  0.00    +0.000 HD
ENDROOT
BRANCH   4  11
ATOM     11  C   UNL     1       5.449   4.379  17.159  0.00  0.00    +0.000 C 
ATOM     12  O   UNL     1       6.565   4.040  18.027  0.00  0.00    +0.000 OA
ATOM     13  C   UNL     1       7.441   5.189  18.132  0.00  0.00    +0.000 C 
ATOM     14  C   UNL     1       7.016   6.100  17.039  0.00  0.00    +0.000 C 
ATOM     15  C   UNL     1       5.863   5.669  16.542  0.00  0.00    +0.000 C 
ATOM     16  F   UNL     1       5.250   6.280  15.515  0.00  0.00    +0.000 F 
BRANCH  13  17
ATOM     17  C   UNL     1       7.288   5.869  19.503  0.00  0.00    +0.000 C 
BRANCH  17  18
ATOM     18  O   UNL     1       8.149   5.281  20.473  0.00  0.00    +0.000 OA
ATOM     19  H   UNL     1       8.946   4.971  20.006  0.00  0.00    +0.000 HD
ENDBRANCH  17  18
ENDBRANCH  13  17
ENDBRANCH   4  11
TORSDOF 3
ENDMDL
MODEL 9
REMARK VINA RESULT:      -6.5      1.608      1.779
REMARK  Name = 
REMARK  4 active torsions:
REMARK  status: ('A' for Active; 'I' for Inactive)
REMARK    1  A    between atoms: C_1  and  C_2
REMARK    2  A    between atoms: N_4  and  C_5
REMARK    3  A    between atoms: C_7  and  C_8
REMARK    4  A    between atoms: C_8  and  O_9
REMARK                            x       y       z     vdW  Elec       q    Type
REMARK                         _______ _______ _______ _____ _____    ______ ____
ROOT
ATOM      1  C   UNL     1       5.557   3.722  13.761  0.00  0.00    +0.000 C 
ATOM      2  C   UNL     1       5.978   4.296  15.074  0.00  0.00    +0.000 A 
ATOM      3  C   UNL     1       5.374   4.003  16.231  0.00  0.00    +0.000 A 
ATOM      4  N   UNL     1       5.764   4.528  17.450  0.00  0.00    +0.000 N 
ATOM      5  C   UNL     1       6.879   5.353  17.543  0.00  0.00    +0.000 A 
ATOM      6  O   UNL     1       7.354   5.762  18.600  0.00  0.00    +0.000 OA
ATOM      7  N   UNL     1       7.475   5.680  16.352  0.00  0.00    +0.000 N 
ATOM      8  C   UNL     1       7.133   5.216  15.112  0.00  0.00    +0.000 A 
ATOM      9  O   UNL     1       7.754   5.521  14.099  0.00  0.00    +0.000 OA
ATOM     10  H   UNL     1       8.294   6.269  16.402  0.00  0.00    +0.000 HD
ENDROOT
BRANCH   4  11
ATOM     11  C   UNL     1       5.154   4.071  18.703  0.00  0.00    +0.000 C 
ATOM     12  O   UNL     1       4.429   2.828  18.494  0.00  0.00    +0.000 OA
ATOM     13  C   UNL     1       3.011   3.084  18.637  0.00  0.00    +0.000 C 
ATOM     14  C   UNL     1       2.922   4.421  19.277  0.00  0.00    +0.000 C 
ATOM     15  C   UNL     1       4.120   4.992  19.252  0.00  0.00    +0.000 C 
ATOM     16  F   UNL     1       4.352   6.201  19.790  0.00  0.00    +0.000 F 
BRANCH  13  17
ATOM     17  C   UNL     1       2.314   3.085  17.266  0.00  0.00    +0.000 C 
BRANCH  17  18
ATOM     18  O   UNL     1       1.190   3.960  17.256  0.00  0.00    +0.000 OA
ATOM     19  H   UNL     1       1.077   4.279  16.342  0.00  0.00    +0.000 HD
ENDBRANCH  17  18
ENDBRANCH  13  17
ENDBRANCH   4  11
TORSDOF 3
ENDMDL
