MODEL 1
REMARK VINA RESULT:      -7.9      0.000      0.000
REMARK  Name = 
REMARK  3 active torsions:
REMARK  status: ('A' for Active; 'I' for Inactive)
REMARK    1  A    between atoms: C_2  and  C_3
REMARK    2  A    between atoms: C_3  and  N_4
REMARK    3  A    between atoms: C_5  and  C_6
REMARK                            x       y       z     vdW  Elec       q    Type
REMARK                         _______ _______ _______ _____ _____    ______ ____
ROOT
ATOM      1  N   UNL     1       2.269   6.630  18.933  0.00  0.00    +0.000 N 
ATOM      2  C   UNL     1       1.768   6.136  20.129  0.00  0.00    +0.000 A 
ATOM      3  C   UNL     1       1.222   7.217  20.802  0.00  0.00    +0.000 A 
ATOM      4  C   UNL     1       1.379   8.381  20.011  0.00  0.00    +0.000 A 
ATOM      5  C   UNL     1       1.010   9.729  20.188  0.00  0.00    +0.000 A 
ATOM      6  C   UNL     1       1.326  10.657  19.193  0.00  0.00    +0.000 A 
ATOM      7 CL   UNL     1       0.860  12.304  19.392  0.00  0.00    +0.000 Cl
ATOM      8  C   UNL     1       2.009  10.271  18.046  0.00  0.00    +0.000 A 
ATOM      9  C   UNL     1       2.384   8.937  17.852  0.00  0.00    +0.000 A 
ATOM     10  C   UNL     1       2.052   8.002  18.849  0.00  0.00    +0.000 A 
ENDROOT
BRANCH   2  11
ATOM     11  C   UNL     1       1.816   4.763  20.579  0.00  0.00    +0.000 A 
ATOM     12  C   UNL     1       2.510   4.220  21.645  0.00  0.00    +0.000 A 
ATOM     13  C   UNL     1       2.320   2.813  21.780  0.00  0.00    +0.000 A 
ATOM     14  C   UNL     1       1.518   2.307  20.786  0.00  0.00    +0.000 A 
ATOM     15  S   UNL     1       0.968   3.529  19.727  0.00  0.00    +0.000 S 
ENDBRANCH   2  11
BRANCH   1  16
ATOM     16  C   UNL     1       3.035   5.882  17.940  0.00  0.00    +0.000 C 
BRANCH  16  18
ATOM     17  O   UNL     1       4.883   5.513  19.448  0.00  0.00    +0.000 OA
ATOM     18  C   UNL     1       4.509   5.725  18.296  0.00  0.00    +0.000 C 
ATOM     19  N   UNL     1       5.421   5.861  17.250  0.00  0.00    +0.000 N 
ATOM     20  C   UNL     1       5.082   6.076  15.844  0.00  0.00    +0.000 C 
ATOM     21  C   UNL     1       5.660   4.958  14.982  0.00  0.00    +0.000 C 
ATOM     22  C   UNL     1       7.162   4.793  15.215  0.00  0.00    +0.000 C 
ATOM     23  C   UNL     1       7.481   4.638  16.702  0.00  0.00    +0.000 C 
ATOM     24  C   UNL     1       6.855   5.762  17.525  0.00  0.00    +0.000 C 
ENDBRANCH  16  18
ENDBRANCH   1  16
TORSDOF 3
ENDMDL
MODEL 2
REMARK VINA RESULT:      -7.1      2.170      4.762
REMARK  Name = 
REMARK  3 active torsions:
REMARK  status: ('A' for Active; 'I' for Inactive)
REMARK    1  A    between atoms: C_2  and  C_3
REMARK    2  A    between atoms: C_3  and  N_4
REMARK    3  A    between atoms: C_5  and  C_6
REMARK                            x       y       z     vdW  Elec       q    Type
REMARK                         _______ _______ _______ _____ _____    ______ ____
ROOT
ATOM      1  N   UNL     1       3.774   6.506  18.753  0.00  0.00    +0.000 N 
ATOM      2  C   UNL     1       4.198   6.636  17.439  0.00  0.00    +0.000 A 
ATOM      3  C   UNL     1       3.456   7.668  16.888  0.00  0.00    +0.000 A 
ATOM      4  C   UNL     1       2.576   8.182  17.873  0.00  0.00    +0.000 A 
ATOM      5  C   UNL     1       1.623   9.219  17.874  0.00  0.00    +0.000 A 
ATOM      6  C   UNL     1       0.897   9.475  19.040  0.00  0.00    +0.000 A 
ATOM      7 CL   UNL     1      -0.256  10.754  19.056  0.00  0.00    +0.000 Cl
ATOM      8  C   UNL     1       1.093   8.714  20.186  0.00  0.00    +0.000 A 
ATOM      9  C   UNL     1       2.036   7.679  20.204  0.00  0.00    +0.000 A 
ATOM     10  C   UNL     1       2.776   7.433  19.033  0.00  0.00    +0.000 A 
ENDROOT
BRANCH   2  11
ATOM     11  C   UNL     1       5.211   5.843  16.779  0.00  0.00    +0.000 A 
ATOM     12  C   UNL     1       5.058   4.851  15.829  0.00  0.00    +0.000 A 
ATOM     13  C   UNL     1       6.295   4.281  15.408  0.00  0.00    +0.000 A 
ATOM     14  C   UNL     1       7.364   4.823  16.081  0.00  0.00    +0.000 A 
ATOM     15  S   UNL     1       6.876   6.038  17.178  0.00  0.00    +0.000 S 
ENDBRANCH   2  11
BRANCH   1  16
ATOM     16  C   UNL     1       4.193   5.476  19.700  0.00  0.00    +0.000 C 
BRANCH  16  18
ATOM     17  O   UNL     1       5.211   3.397  19.017  0.00  0.00    +0.000 OA
ATOM     18  C   UNL     1       4.186   4.068  19.115  0.00  0.00    +0.000 C 
ATOM     19  N   UNL     1       2.957   3.586  18.667  0.00  0.00    +0.000 N 
ATOM     20  C   UNL     1       1.676   4.285  18.771  0.00  0.00    +0.000 C 
ATOM     21  C   UNL     1       0.677   3.447  19.564  0.00  0.00    +0.000 C 
ATOM     22  C   UNL     1       0.543   2.039  18.984  0.00  0.00    +0.000 C 
ATOM     23  C   UNL     1       1.909   1.368  18.830  0.00  0.00    +0.000 C 
ATOM     24  C   UNL     1       2.881   2.257  18.058  0.00  0.00    +0.000 C 
ENDBRANCH  16  18
ENDBRANCH   1  16
TORSDOF 3
ENDMDL
MODEL 3
REMARK VINA RESULT:      -7.0      1.481      1.729
REMARK  Name = 
REMARK  3 active torsions:
REMARK  status: ('A' for Active; 'I' for Inactive)
REMARK    1  A    between atoms: C_2  and  C_3
REMARK    2  A    between atoms: C_3  and  N_4
REMARK    3  A    between atoms: C_5  and  C_6
REMARK                            x       y       z     vdW  Elec       q    Type
REMARK                         _______ _______ _______ _____ _____    ______ ____
ROOT
ATOM      1  N   UNL     1       2.546   6.379  18.879  0.00  0.00    +0.000 N 
ATOM      2  C   UNL     1       2.349   5.243  19.651  0.00  0.00    +0.000 A 
ATOM      3  C   UNL     1       1.615   5.643  20.756  0.00  0.00    +0.000 A 
ATOM      4  C   UNL     1       1.351   7.031  20.658  0.00  0.00    +0.000 A 
ATOM      5  C   UNL     1       0.653   7.944  21.473  0.00  0.00    +0.000 A 
ATOM      6  C   UNL     1       0.580   9.284  21.086  0.00  0.00    +0.000 A 
ATOM      7 CL   UNL     1      -0.290  10.402  22.065  0.00  0.00    +0.000 Cl
ATOM      8  C   UNL     1       1.196   9.726  19.921  0.00  0.00    +0.000 A 
ATOM      9  C   UNL     1       1.894   8.834  19.099  0.00  0.00    +0.000 A 
ATOM     10  C   UNL     1       1.954   7.483  19.484  0.00  0.00    +0.000 A 
ENDROOT
BRANCH   2  11
ATOM     11  C   UNL     1       2.825   3.910  19.357  0.00  0.00    +0.000 A 
ATOM     12  C   UNL     1       3.836   3.191  19.969  0.00  0.00    +0.000 A 
ATOM     13  C   UNL     1       4.029   1.898  19.399  0.00  0.00    +0.000 A 
ATOM     14  C   UNL     1       3.188   1.677  18.335  0.00  0.00    +0.000 A 
ATOM     15  S   UNL     1       2.149   3.003  18.057  0.00  0.00    +0.000 S 
ENDBRANCH   2  11
BRANCH   1  16
ATOM     16  C   UNL     1       3.360   6.474  17.670  0.00  0.00    +0.000 C 
BRANCH  16  18
ATOM     17  O   UNL     1       5.321   6.150  19.040  0.00  0.00    +0.000 OA
ATOM     18  C   UNL     1       4.842   6.214  17.909  0.00  0.00    +0.000 C 
ATOM     19  N   UNL     1       5.642   6.078  16.774  0.00  0.00    +0.000 N 
ATOM     20  C   UNL     1       5.171   6.100  15.390  0.00  0.00    +0.000 C 
ATOM     21  C   UNL     1       5.544   4.800  14.682  0.00  0.00    +0.000 C 
ATOM     22  C   UNL     1       7.040   4.510  14.799  0.00  0.00    +0.000 C 
ATOM     23  C   UNL     1       7.506   4.562  16.254  0.00  0.00    +0.000 C 
ATOM     24  C   UNL     1       7.083   5.866  16.927  0.00  0.00    +0.000 C 
ENDBRANCH  16  18
ENDBRANCH   1  16
TORSDOF 3
ENDMDL
MODEL 4
REMARK VINA RESULT:      -7.0      5.142      8.342
REMARK  Name = 
REMARK  3 active torsions:
REMARK  status: ('A' for Active; 'I' for Inactive)
REMARK    1  A    between atoms: C_2  and  C_3
REMARK    2  A    between atoms: C_3  and  N_4
REMARK    3  A    between atoms: C_5  and  C_6
REMARK                            x       y       z     vdW  Elec       q    Type
REMARK                         _______ _______ _______ _____ _____    ______ ____
ROOT
ATOM      1  N   UNL     1      -0.003  11.030  19.944  0.00  0.00    +0.000 N 
ATOM      2  C   UNL     1      -0.162  10.945  21.319  0.00  0.00    +0.000 A 
ATOM      3  C   UNL     1       0.474   9.780  21.716  0.00  0.00    +0.000 A 
ATOM      4  C   UNL     1       1.034   9.148  20.578  0.00  0.00    +0.000 A 
ATOM      5  C   UNL     1       1.785   7.970  20.396  0.00  0.00    +0.000 A 
ATOM      6  C   UNL     1       2.192   7.615  19.108  0.00  0.00    +0.000 A 
ATOM      7 CL   UNL     1       3.126   6.187  18.879  0.00  0.00    +0.000 Cl
ATOM      8  C   UNL     1       1.855   8.398  18.010  0.00  0.00    +0.000 A 
ATOM      9  C   UNL     1       1.111   9.573  18.172  0.00  0.00    +0.000 A 
ATOM     10  C   UNL     1       0.714   9.935  19.472  0.00  0.00    +0.000 A 
ENDROOT
BRANCH   2  11
ATOM     11  C   UNL     1      -0.859  11.889  22.164  0.00  0.00    +0.000 A 
ATOM     12  C   UNL     1      -1.981  11.692  22.947  0.00  0.00    +0.000 A 
ATOM     13  C   UNL     1      -2.392  12.866  23.644  0.00  0.00    +0.000 A 
ATOM     14  C   UNL     1      -1.597  13.946  23.342  0.00  0.00    +0.000 A 
ATOM     15  S   UNL     1      -0.343  13.530  22.260  0.00  0.00    +0.000 S 
ENDBRANCH   2  11
BRANCH   1  16
ATOM     16  C   UNL     1      -0.597  12.033  19.063  0.00  0.00    +0.000 C 
BRANCH  16  18
ATOM     17  O   UNL     1      -2.791  12.696  19.821  0.00  0.00    +0.000 OA
ATOM     18  C   UNL     1      -2.121  12.010  19.051  0.00  0.00    +0.000 C 
ATOM     19  N   UNL     1      -2.724  11.148  18.136  0.00  0.00    +0.000 N 
ATOM     20  C   UNL     1      -2.024  10.320  17.153  0.00  0.00    +0.000 C 
ATOM     21  C   UNL     1      -2.491  10.663  15.742  0.00  0.00    +0.000 C 
ATOM     22  C   UNL     1      -4.012  10.576  15.620  0.00  0.00    +0.000 C 
ATOM     23  C   UNL     1      -4.706  11.401  16.705  0.00  0.00    +0.000 C 
ATOM     24  C   UNL     1      -4.183  11.044  18.094  0.00  0.00    +0.000 C 
ENDBRANCH  16  18
ENDBRANCH   1  16
TORSDOF 3
ENDMDL
MODEL 5
REMARK VINA RESULT:      -7.0      2.324      5.682
REMARK  Name = 
REMARK  3 active torsions:
REMARK  status: ('A' for Active; 'I' for Inactive)
REMARK    1  A    between atoms: C_2  and  C_3
REMARK    2  A    between atoms: C_3  and  N_4
REMARK    3  A    between atoms: C_5  and  C_6
REMARK                            x       y       z     vdW  Elec       q    Type
REMARK                         _______ _______ _______ _____ _____    ______ ____
ROOT
ATOM      1  N   UNL     1       4.156   5.098  17.267  0.00  0.00    +0.000 N 
ATOM      2  C   UNL     1       4.735   5.751  16.189  0.00  0.00    +0.000 A 
ATOM      3  C   UNL     1       4.331   7.074  16.269  0.00  0.00    +0.000 A 
ATOM      4  C   UNL     1       3.506   7.237  17.409  0.00  0.00    +0.000 A 
ATOM      5  C   UNL     1       2.843   8.345  17.974  0.00  0.00    +0.000 A 
ATOM      6  C   UNL     1       2.083   8.165  19.132  0.00  0.00    +0.000 A 
ATOM      7 CL   UNL     1       1.285   9.517  19.840  0.00  0.00    +0.000 Cl
ATOM      8  C   UNL     1       1.964   6.911  19.721  0.00  0.00    +0.000 A 
ATOM      9  C   UNL     1       2.616   5.800  19.175  0.00  0.00    +0.000 A 
ATOM     10  C   UNL     1       3.392   5.987  18.017  0.00  0.00    +0.000 A 
ENDROOT
BRANCH   2  11
ATOM     11  C   UNL     1       5.586   5.159  15.181  0.00  0.00    +0.000 A 
ATOM     12  C   UNL     1       5.234   4.383  14.092  0.00  0.00    +0.000 A 
ATOM     13  C   UNL     1       6.355   3.968  13.314  0.00  0.00    +0.000 A 
ATOM     14  C   UNL     1       7.542   4.401  13.854  0.00  0.00    +0.000 A 
ATOM     15  S   UNL     1       7.298   5.335  15.263  0.00  0.00    +0.000 S 
ENDBRANCH   2  11
BRANCH   1  16
ATOM     16  C   UNL     1       4.205   3.664  17.540  0.00  0.00    +0.000 C 
BRANCH  16  18
ATOM     17  O   UNL     1       5.442   3.602  19.612  0.00  0.00    +0.000 OA
ATOM     18  C   UNL     1       4.403   3.328  19.014  0.00  0.00    +0.000 C 
ATOM     19  N   UNL     1       3.353   2.665  19.649  0.00  0.00    +0.000 N 
ATOM     20  C   UNL     1       2.066   2.327  19.042  0.00  0.00    +0.000 C 
ATOM     21  C   UNL     1       0.925   2.963  19.830  0.00  0.00    +0.000 C 
ATOM     22  C   UNL     1       0.999   2.600  21.313  0.00  0.00    +0.000 C 
ATOM     23  C   UNL     1       2.380   2.907  21.893  0.00  0.00    +0.000 C 
ATOM     24  C   UNL     1       3.489   2.276  21.053  0.00  0.00    +0.000 C 
ENDBRANCH  16  18
ENDBRANCH   1  16
TORSDOF 3
ENDMDL
MODEL 6
REMARK VINA RESULT:      -7.0      2.268      4.377
REMARK  Name = 
REMARK  3 active torsions:
REMARK  status: ('A' for Active; 'I' for Inactive)
REMARK    1  A    between atoms: C_2  and  C_3
REMARK    2  A    between atoms: C_3  and  N_4
REMARK    3  A    between atoms: C_5  and  C_6
REMARK                            x       y       z     vdW  Elec       q    Type
REMARK                         _______ _______ _______ _____ _____    ______ ____
ROOT
ATOM      1  N   UNL     1       2.639   7.061  19.533  0.00  0.00    +0.000 N 
ATOM      2  C   UNL     1       3.095   7.256  18.237  0.00  0.00    +0.000 A 
ATOM      3  C   UNL     1       2.460   8.394  17.767  0.00  0.00    +0.000 A 
ATOM      4  C   UNL     1       1.615   8.906  18.782  0.00  0.00    +0.000 A 
ATOM      5  C   UNL     1       0.761  10.024  18.859  0.00  0.00    +0.000 A 
ATOM      6  C   UNL     1       0.043  10.251  20.035  0.00  0.00    +0.000 A 
ATOM      7 CL   UNL     1      -0.987  11.627  20.145  0.00  0.00    +0.000 Cl
ATOM      8  C   UNL     1       0.149   9.385  21.117  0.00  0.00    +0.000 A 
ATOM      9  C   UNL     1       0.992   8.269  21.059  0.00  0.00    +0.000 A 
ATOM     10  C   UNL     1       1.725   8.051  19.878  0.00  0.00    +0.000 A 
ENDROOT
BRANCH   2  11
ATOM     11  C   UNL     1       4.042   6.428  17.524  0.00  0.00    +0.000 A 
ATOM     12  C   UNL     1       3.833   5.219  16.888  0.00  0.00    +0.000 A 
ATOM     13  C   UNL     1       5.015   4.688  16.292  0.00  0.00    +0.000 A 
ATOM     14  C   UNL     1       6.110   5.486  16.526  0.00  0.00    +0.000 A 
ATOM     15  S   UNL     1       5.700   6.882  17.420  0.00  0.00    +0.000 S 
ENDBRANCH   2  11
BRANCH   1  16
ATOM     16  C   UNL     1       2.945   5.922  20.396  0.00  0.00    +0.000 C 
BRANCH  16  18
ATOM     17  O   UNL     1       0.764   4.900  20.233  0.00  0.00    +0.000 OA
ATOM     18  C   UNL     1       1.985   4.751  20.226  0.00  0.00    +0.000 C 
ATOM     19  N   UNL     1       2.560   3.488  20.089  0.00  0.00    +0.000 N 
ATOM     20  C   UNL     1       3.994   3.205  20.030  0.00  0.00    +0.000 C 
ATOM     21  C   UNL     1       4.342   2.494  18.725  0.00  0.00    +0.000 C 
ATOM     22  C   UNL     1       3.479   1.249  18.521  0.00  0.00    +0.000 C 
ATOM     23  C   UNL     1       1.991   1.573  18.656  0.00  0.00    +0.000 C 
ATOM     24  C   UNL     1       1.699   2.311  19.961  0.00  0.00    +0.000 C 
ENDBRANCH  16  18
ENDBRANCH   1  16
TORSDOF 3
ENDMDL
MODEL 7
REMARK VINA RESULT:      -6.9      1.957      2.531
REMARK  Name = 
REMARK  3 active torsions:
REMARK  status: ('A' for Active; 'I' for Inactive)
REMARK    1  A    between atoms: C_2  and  C_3
REMARK    2  A    between atoms: C_3  and  N_4
REMARK    3  A    between atoms: C_5  and  C_6
REMARK                            x       y       z     vdW  Elec       q    Type
REMARK                         _______ _______ _______ _____ _____    ______ ____
ROOT
ATOM      1  N   UNL     1       3.139   5.660  18.076  0.00  0.00    +0.000 N 
ATOM      2  C   UNL     1       3.019   4.812  19.167  0.00  0.00    +0.000 A 
ATOM      3  C   UNL     1       2.420   5.552  20.173  0.00  0.00    +0.000 A 
ATOM      4  C   UNL     1       2.163   6.860  19.695  0.00  0.00    +0.000 A 
ATOM      5  C   UNL     1       1.572   8.003  20.270  0.00  0.00    +0.000 A 
ATOM      6  C   UNL     1       1.470   9.171  19.511  0.00  0.00    +0.000 A 
ATOM      7 CL   UNL     1       0.731  10.566  20.199  0.00  0.00    +0.000 Cl
ATOM      8  C   UNL     1       1.956   9.223  18.210  0.00  0.00    +0.000 A 
ATOM      9  C   UNL     1       2.546   8.098  17.621  0.00  0.00    +0.000 A 
ATOM     10  C   UNL     1       2.633   6.918  18.383  0.00  0.00    +0.000 A 
ENDROOT
BRANCH   2  11
ATOM     11  C   UNL     1       3.443   3.431  19.234  0.00  0.00    +0.000 A 
ATOM     12  C   UNL     1       4.367   2.845  20.079  0.00  0.00    +0.000 A 
ATOM     13  C   UNL     1       4.531   1.447  19.848  0.00  0.00    +0.000 A 
ATOM     14  C   UNL     1       3.758   1.007  18.799  0.00  0.00    +0.000 A 
ATOM     15  S   UNL     1       2.814   2.265  18.133  0.00  0.00    +0.000 S 
ENDBRANCH   2  11
BRANCH   1  16
ATOM     16  C   UNL     1       3.812   5.358  16.814  0.00  0.00    +0.000 C 
BRANCH  16  18
ATOM     17  O   UNL     1       4.904   7.228  15.747  0.00  0.00    +0.000 OA
ATOM     18  C   UNL     1       4.994   6.273  16.517  0.00  0.00    +0.000 C 
ATOM     19  N   UNL     1       6.199   5.957  17.143  0.00  0.00    +0.000 N 
ATOM     20  C   UNL     1       6.405   4.871  18.101  0.00  0.00    +0.000 C 
ATOM     21  C   UNL     1       6.921   5.424  19.426  0.00  0.00    +0.000 C 
ATOM     22  C   UNL     1       8.168   6.286  19.225  0.00  0.00    +0.000 C 
ATOM     23  C   UNL     1       7.933   7.367  18.168  0.00  0.00    +0.000 C 
ATOM     24  C   UNL     1       7.388   6.769  16.873  0.00  0.00    +0.000 C 
ENDBRANCH  16  18
ENDBRANCH   1  16
TORSDOF 3
ENDMDL
MODEL 8
REMARK VINA RESULT:      -6.8      6.760      9.684
REMARK  Name = 
REMARK  3 active torsions:
REMARK  status: ('A' for Active; 'I' for Inactive)
REMARK    1  A    between atoms: C_2  and  C_3
REMARK    2  A    between atoms: C_3  and  N_4
REMARK    3  A    between atoms: C_5  and  C_6
REMARK                            x       y       z     vdW  Elec       q    Type
REMARK                         _______ _______ _______ _____ _____    ______ ____
ROOT
ATOM      1  N   UNL     1      -3.455  12.598  20.195  0.00  0.00    +0.000 N 
ATOM      2  C   UNL     1      -4.798  12.849  20.439  0.00  0.00    +0.000 A 
ATOM      3  C   UNL     1      -5.487  12.419  19.317  0.00  0.00    +0.000 A 
ATOM      4  C   UNL     1      -4.563  11.893  18.380  0.00  0.00    +0.000 A 
ATOM      5  C   UNL     1      -4.701  11.318  17.101  0.00  0.00    +0.000 A 
ATOM      6  C   UNL     1      -3.558  10.893  16.420  0.00  0.00    +0.000 A 
ATOM      7 CL   UNL     1      -3.720  10.171  14.865  0.00  0.00    +0.000 Cl
ATOM      8  C   UNL     1      -2.295  11.044  16.978  0.00  0.00    +0.000 A 
ATOM      9  C   UNL     1      -2.137  11.612  18.248  0.00  0.00    +0.000 A 
ATOM     10  C   UNL     1      -3.291  12.027  18.938  0.00  0.00    +0.000 A 
ENDROOT
BRANCH   2  11
ATOM     11  C   UNL     1      -5.359  13.446  21.630  0.00  0.00    +0.000 A 
ATOM     12  C   UNL     1      -6.080  12.847  22.647  0.00  0.00    +0.000 A 
ATOM     13  C   UNL     1      -6.479  13.762  23.666  0.00  0.00    +0.000 A 
ATOM     14  C   UNL     1      -6.089  15.048  23.380  0.00  0.00    +0.000 A 
ATOM     15  S   UNL     1      -5.214  15.139  21.916  0.00  0.00    +0.000 S 
ENDBRANCH   2  11
BRANCH   1  16
ATOM     16  C   UNL     1      -2.334  12.983  21.048  0.00  0.00    +0.000 C 
BRANCH  16  18
ATOM     17  O   UNL     1      -2.794  11.874  23.143  0.00  0.00    +0.000 OA
ATOM     18  C   UNL     1      -2.050  11.990  22.170  0.00  0.00    +0.000 C 
ATOM     19  N   UNL     1      -0.885  11.234  22.054  0.00  0.00    +0.000 N 
ATOM     20  C   UNL     1       0.045  11.268  20.926  0.00  0.00    +0.000 C 
ATOM     21  C   UNL     1       0.179   9.879  20.307  0.00  0.00    +0.000 C 
ATOM     22  C   UNL     1       0.552   8.833  21.358  0.00  0.00    +0.000 C 
ATOM     23  C   UNL     1      -0.404   8.875  22.550  0.00  0.00    +0.000 C 
ATOM     24  C   UNL     1      -0.527  10.289  23.113  0.00  0.00    +0.000 C 
ENDBRANCH  16  18
ENDBRANCH   1  16
TORSDOF 3
ENDMDL
MODEL 9
REMARK VINA RESULT:      -6.7      3.197      6.379
REMARK  Name = 
REMARK  3 active torsions:
REMARK  status: ('A' for Active; 'I' for Inactive)
REMARK    1  A    between atoms: C_2  and  C_3
REMARK    2  A    between atoms: C_3  and  N_4
REMARK    3  A    between atoms: C_5  and  C_6
REMARK                            x       y       z     vdW  Elec       q    Type
REMARK                         _______ _______ _______ _____ _____    ______ ____
ROOT
ATOM      1  N   UNL     1       4.176   4.829  16.805  0.00  0.00    +0.000 N 
ATOM      2  C   UNL     1       4.153   6.121  17.309  0.00  0.00    +0.000 A 
ATOM      3  C   UNL     1       5.122   6.829  16.617  0.00  0.00    +0.000 A 
ATOM      4  C   UNL     1       5.740   5.968  15.676  0.00  0.00    +0.000 A 
ATOM      5  C   UNL     1       6.757   6.151  14.719  0.00  0.00    +0.000 A 
ATOM      6  C   UNL     1       7.150   5.068  13.929  0.00  0.00    +0.000 A 
ATOM      7 CL   UNL     1       8.379   5.288  12.743  0.00  0.00    +0.000 Cl
ATOM      8  C   UNL     1       6.563   3.818  14.086  0.00  0.00    +0.000 A 
ATOM      9  C   UNL     1       5.551   3.617  15.032  0.00  0.00    +0.000 A 
ATOM     10  C   UNL     1       5.147   4.713  15.816  0.00  0.00    +0.000 A 
ENDROOT
BRANCH   2  11
ATOM     11  C   UNL     1       3.288   6.621  18.354  0.00  0.00    +0.000 A 
ATOM     12  C   UNL     1       3.007   6.069  19.590  0.00  0.00    +0.000 A 
ATOM     13  C   UNL     1       2.094   6.850  20.359  0.00  0.00    +0.000 A 
ATOM     14  C   UNL     1       1.665   7.960  19.672  0.00  0.00    +0.000 A 
ATOM     15  S   UNL     1       2.393   8.077  18.131  0.00  0.00    +0.000 S 
ENDBRANCH   2  11
BRANCH   1  16
ATOM     16  C   UNL     1       3.404   3.692  17.301  0.00  0.00    +0.000 C 
BRANCH  16  18
ATOM     17  O   UNL     1       5.070   3.204  18.978  0.00  0.00    +0.000 OA
ATOM     18  C   UNL     1       3.886   3.167  18.648  0.00  0.00    +0.000 C 
ATOM     19  N   UNL     1       2.917   2.612  19.484  0.00  0.00    +0.000 N 
ATOM     20  C   UNL     1       1.483   2.552  19.205  0.00  0.00    +0.000 C 
ATOM     21  C   UNL     1       0.699   3.269  20.300  0.00  0.00    +0.000 C 
ATOM     22  C   UNL     1       1.061   2.736  21.687  0.00  0.00    +0.000 C 
ATOM     23  C   UNL     1       2.573   2.753  21.913  0.00  0.00    +0.000 C 
ATOM     24  C   UNL     1       3.313   2.052  20.777  0.00  0.00    +0.000 C 
ENDBRANCH  16  18
ENDBRANCH   1  16
TORSDOF 3
ENDMDL
