MODEL 1
REMARK VINA RESULT:      -7.7      0.000      0.000
REMARK  Name = 
REMARK  6 active torsions:
REMARK  status: ('A' for Active; 'I' for Inactive)
REMARK    1  A    between atoms: C_1  and  C_2
REMARK    2  A    between atoms: C_2  and  C_3
REMARK    3  A    between atoms: C_8  and  C_9
REMARK    4  A    between atoms: N_11  and  C_12
REMARK    5  A    between atoms: N_11  and  C_17
REMARK    6  A    between atoms: C_12  and  C_13
REMARK                            x       y       z     vdW  Elec       q    Type
REMARK                         _______ _______ _______ _____ _____    ______ ____
ROOT
ATOM      1  C   UNL     1       4.369   3.855  18.147  0.00  0.00    +0.000 C 
ATOM      2  O   UNL     1       4.241   2.634  17.991  0.00  0.00    +0.000 OA
ATOM      3  N   UNL     1       3.769   4.484  19.297  0.00  0.00    +0.000 N 
ENDROOT
BRANCH   1   9
ATOM      4  C   UNL     1       6.469   4.820  17.198  0.00  0.00    +0.000 A 
ATOM      5  C   UNL     1       7.355   4.693  16.116  0.00  0.00    +0.000 A 
ATOM      6  C   UNL     1       6.879   4.519  14.827  0.00  0.00    +0.000 A 
ATOM      7  C   UNL     1       5.509   4.475  14.609  0.00  0.00    +0.000 A 
ATOM      8  C   UNL     1       4.615   4.404  15.690  0.00  0.00    +0.000 A 
ATOM      9  C   UNL     1       5.088   4.507  17.004  0.00  0.00    +0.000 A 
BRANCH   4  11
ATOM     10  C   UNL     1       7.814   6.589  18.506  0.00  0.00    +0.000 C 
ATOM     11  C   UNL     1       7.067   5.257  18.520  0.00  0.00    +0.000 C 
ENDBRANCH   4  11
ENDBRANCH   1   9
BRANCH   3  12
ATOM     12  C   UNL     1       2.767   3.572  19.923  0.00  0.00    +0.000 C 
ATOM     13  C   UNL     1       2.488   3.527  21.416  0.00  0.00    +0.000 C 
ATOM     14  C   UNL     1       1.241   2.652  21.457  0.00  0.00    +0.000 C 
ATOM     15  N   UNL     1       0.411   3.141  20.345  0.00  0.00    +0.000 NA
ATOM     16  C   UNL     1       1.359   3.569  19.289  0.00  0.00    +0.000 C 
ATOM     17  H   UNL     1      -0.110   3.958  20.662  0.00  0.00    +0.000 HD
ENDBRANCH   3  12
BRANCH   3  18
ATOM     18  C   UNL     1       3.781   5.953  19.463  0.00  0.00    +0.000 C 
BRANCH  18  19
ATOM     19  C   UNL     1       2.725   6.759  18.689  0.00  0.00    +0.000 C 
ATOM     20  C   UNL     1       2.003   8.043  19.225  0.00  0.00    +0.000 C 
ATOM     21  C   UNL     1       2.079   8.606  17.777  0.00  0.00    +0.000 C 
ATOM     22  C   UNL     1       3.330   7.719  17.605  0.00  0.00    +0.000 C 
ENDBRANCH  18  19
ENDBRANCH   3  18
TORSDOF 5
ENDMDL
MODEL 2
REMARK VINA RESULT:      -7.7      1.238      2.523
REMARK  Name = 
REMARK  6 active torsions:
REMARK  status: ('A' for Active; 'I' for Inactive)
REMARK    1  A    between atoms: C_1  and  C_2
REMARK    2  A    between atoms: C_2  and  C_3
REMARK    3  A    between atoms: C_8  and  C_9
REMARK    4  A    between atoms: N_11  and  C_12
REMARK    5  A    between atoms: N_11  and  C_17
REMARK    6  A    between atoms: C_12  and  C_13
REMARK                            x       y       z     vdW  Elec       q    Type
REMARK                         _______ _______ _______ _____ _____    ______ ____
ROOT
ATOM      1  C   UNL     1       4.900   4.195  18.958  0.00  0.00    +0.000 C 
ATOM      2  O   UNL     1       5.131   3.193  19.647  0.00  0.00    +0.000 OA
ATOM      3  N   UNL     1       3.534   4.588  18.723  0.00  0.00    +0.000 N 
ENDROOT
BRANCH   1   9
ATOM      4  C   UNL     1       6.240   4.886  16.966  0.00  0.00    +0.000 A 
ATOM      5  C   UNL     1       6.873   6.000  16.390  0.00  0.00    +0.000 A 
ATOM      6  C   UNL     1       7.620   6.870  17.167  0.00  0.00    +0.000 A 
ATOM      7  C   UNL     1       7.743   6.631  18.528  0.00  0.00    +0.000 A 
ATOM      8  C   UNL     1       6.965   5.643  19.153  0.00  0.00    +0.000 A 
ATOM      9  C   UNL     1       6.149   4.799  18.389  0.00  0.00    +0.000 A 
BRANCH   4  11
ATOM     10  C   UNL     1       6.176   3.928  14.573  0.00  0.00    +0.000 C 
ATOM     11  C   UNL     1       5.664   3.861  16.011  0.00  0.00    +0.000 C 
ENDBRANCH   4  11
ENDBRANCH   1   9
BRANCH   3  12
ATOM     12  C   UNL     1       2.605   3.472  19.070  0.00  0.00    +0.000 C 
ATOM     13  C   UNL     1       1.304   3.666  19.829  0.00  0.00    +0.000 C 
ATOM     14  C   UNL     1       0.663   2.292  19.670  0.00  0.00    +0.000 C 
ATOM     15  N   UNL     1       0.905   1.933  18.264  0.00  0.00    +0.000 NA
ATOM     16  C   UNL     1       2.217   2.525  17.914  0.00  0.00    +0.000 C 
ATOM     17  H   UNL     1       0.187   2.371  17.688  0.00  0.00    +0.000 HD
ENDBRANCH   3  12
BRANCH   3  18
ATOM     18  C   UNL     1       3.200   5.697  17.805  0.00  0.00    +0.000 C 
BRANCH  18  19
ATOM     19  C   UNL     1       3.063   7.102  18.415  0.00  0.00    +0.000 C 
ATOM     20  C   UNL     1       2.106   8.224  17.882  0.00  0.00    +0.000 C 
ATOM     21  C   UNL     1       1.859   8.620  19.366  0.00  0.00    +0.000 C 
ATOM     22  C   UNL     1       2.174   7.149  19.706  0.00  0.00    +0.000 C 
ENDBRANCH  18  19
ENDBRANCH   3  18
TORSDOF 5
ENDMDL
MODEL 3
REMARK VINA RESULT:      -7.4      0.863      1.137
REMARK  Name = 
REMARK  6 active torsions:
REMARK  status: ('A' for Active; 'I' for Inactive)
REMARK    1  A    between atoms: C_1  and  C_2
REMARK    2  A    between atoms: C_2  and  C_3
REMARK    3  A    between atoms: C_8  and  C_9
REMARK    4  A    between atoms: N_11  and  C_12
REMARK    5  A    between atoms: N_11  and  C_17
REMARK    6  A    between atoms: C_12  and  C_13
REMARK                            x       y       z     vdW  Elec       q    Type
REMARK                         _______ _______ _______ _____ _____    ______ ____
ROOT
ATOM      1  C   UNL     1       4.498   4.564  18.127  0.00  0.00    +0.000 C 
ATOM      2  O   UNL     1       5.103   3.656  18.711  0.00  0.00    +0.000 OA
ATOM      3  N   UNL     1       3.256   5.048  18.676  0.00  0.00    +0.000 N 
ENDROOT
BRANCH   1   9
ATOM      4  C   UNL     1       6.482   5.485  16.920  0.00  0.00    +0.000 A 
ATOM      5  C   UNL     1       7.403   5.174  15.907  0.00  0.00    +0.000 A 
ATOM      6  C   UNL     1       6.983   4.588  14.724  0.00  0.00    +0.000 A 
ATOM      7  C   UNL     1       5.636   4.310  14.544  0.00  0.00    +0.000 A 
ATOM      8  C   UNL     1       4.732   4.431  15.612  0.00  0.00    +0.000 A 
ATOM      9  C   UNL     1       5.157   4.957  16.839  0.00  0.00    +0.000 A 
BRANCH   4  11
ATOM     10  C   UNL     1       7.672   7.651  17.655  0.00  0.00    +0.000 C 
ATOM     11  C   UNL     1       6.988   6.346  18.059  0.00  0.00    +0.000 C 
ENDBRANCH   4  11
ENDBRANCH   1   9
BRANCH   3  12
ATOM     12  C   UNL     1       2.728   4.088  19.690  0.00  0.00    +0.000 C 
ATOM     13  C   UNL     1       2.448   4.461  21.136  0.00  0.00    +0.000 C 
ATOM     14  C   UNL     1       1.702   3.224  21.621  0.00  0.00    +0.000 C 
ATOM     15  N   UNL     1       0.779   2.896  20.523  0.00  0.00    +0.000 NA
ATOM     16  C   UNL     1       1.482   3.275  19.275  0.00  0.00    +0.000 C 
ATOM     17  H   UNL     1      -0.054   3.476  20.614  0.00  0.00    +0.000 HD
ENDBRANCH   3  12
BRANCH   3  18
ATOM     18  C   UNL     1       2.430   6.037  17.954  0.00  0.00    +0.000 C 
BRANCH  18  19
ATOM     19  C   UNL     1       2.569   7.511  18.370  0.00  0.00    +0.000 C 
ATOM     20  C   UNL     1       1.752   8.700  17.755  0.00  0.00    +0.000 C 
ATOM     21  C   UNL     1       1.706   9.316  19.184  0.00  0.00    +0.000 C 
ATOM     22  C   UNL     1       1.821   7.867  19.703  0.00  0.00    +0.000 C 
ENDBRANCH  18  19
ENDBRANCH   3  18
TORSDOF 5
ENDMDL
MODEL 4
REMARK VINA RESULT:      -7.2      1.025      2.413
REMARK  Name = 
REMARK  6 active torsions:
REMARK  status: ('A' for Active; 'I' for Inactive)
REMARK    1  A    between atoms: C_1  and  C_2
REMARK    2  A    between atoms: C_2  and  C_3
REMARK    3  A    between atoms: C_8  and  C_9
REMARK    4  A    between atoms: N_11  and  C_12
REMARK    5  A    between atoms: N_11  and  C_17
REMARK    6  A    between atoms: C_12  and  C_13
REMARK                            x       y       z     vdW  Elec       q    Type
REMARK                         _______ _______ _______ _____ _____    ______ ____
ROOT
ATOM      1  C   UNL     1       5.033   4.237  18.786  0.00  0.00    +0.000 C 
ATOM      2  O   UNL     1       5.104   3.027  18.534  0.00  0.00    +0.000 OA
ATOM      3  N   UNL     1       3.857   4.752  19.441  0.00  0.00    +0.000 N 
ENDROOT
BRANCH   1   9
ATOM      4  C   UNL     1       6.048   5.648  16.991  0.00  0.00    +0.000 A 
ATOM      5  C   UNL     1       6.665   6.891  16.777  0.00  0.00    +0.000 A 
ATOM      6  C   UNL     1       7.617   7.371  17.661  0.00  0.00    +0.000 A 
ATOM      7  C   UNL     1       7.962   6.608  18.768  0.00  0.00    +0.000 A 
ATOM      8  C   UNL     1       7.223   5.462  19.104  0.00  0.00    +0.000 A 
ATOM      9  C   UNL     1       6.209   5.003  18.255  0.00  0.00    +0.000 A 
BRANCH   4  11
ATOM     10  C   UNL     1       5.940   4.141  14.902  0.00  0.00    +0.000 C 
ATOM     11  C   UNL     1       5.217   5.095  15.851  0.00  0.00    +0.000 C 
ENDBRANCH   4  11
ENDBRANCH   1   9
BRANCH   3  12
ATOM     12  C   UNL     1       2.748   3.755  19.374  0.00  0.00    +0.000 C 
ATOM     13  C   UNL     1       1.569   3.744  20.332  0.00  0.00    +0.000 C 
ATOM     14  C   UNL     1       0.652   2.729  19.659  0.00  0.00    +0.000 C 
ATOM     15  N   UNL     1       0.717   3.065  18.228  0.00  0.00    +0.000 NA
ATOM     16  C   UNL     1       2.095   3.555  17.988  0.00  0.00    +0.000 C 
ATOM     17  H   UNL     1       0.066   3.827  18.042  0.00  0.00    +0.000 HD
ENDBRANCH   3  12
BRANCH   3  18
ATOM     18  C   UNL     1       3.665   6.202  19.648  0.00  0.00    +0.000 C 
BRANCH  18  19
ATOM     19  C   UNL     1       2.592   6.901  18.796  0.00  0.00    +0.000 C 
ATOM     20  C   UNL     1       1.820   8.201  19.212  0.00  0.00    +0.000 C 
ATOM     21  C   UNL     1       1.894   8.638  17.721  0.00  0.00    +0.000 C 
ATOM     22  C   UNL     1       3.176   7.783  17.638  0.00  0.00    +0.000 C 
ENDBRANCH  18  19
ENDBRANCH   3  18
TORSDOF 5
ENDMDL
MODEL 5
REMARK VINA RESULT:      -7.1      1.727      5.228
REMARK  Name = 
REMARK  6 active torsions:
REMARK  status: ('A' for Active; 'I' for Inactive)
REMARK    1  A    between atoms: C_1  and  C_2
REMARK    2  A    between atoms: C_2  and  C_3
REMARK    3  A    between atoms: C_8  and  C_9
REMARK    4  A    between atoms: N_11  and  C_12
REMARK    5  A    between atoms: N_11  and  C_17
REMARK    6  A    between atoms: C_12  and  C_13
REMARK                            x       y       z     vdW  Elec       q    Type
REMARK                         _______ _______ _______ _____ _____    ______ ____
ROOT
ATOM      1  C   UNL     1       3.636   3.135  17.711  0.00  0.00    +0.000 C 
ATOM      2  O   UNL     1       3.842   2.189  16.941  0.00  0.00    +0.000 OA
ATOM      3  N   UNL     1       4.284   4.399  17.463  0.00  0.00    +0.000 N 
ENDROOT
BRANCH   1   9
ATOM      4  C   UNL     1       3.417   2.600  20.142  0.00  0.00    +0.000 A 
ATOM      5  C   UNL     1       2.735   2.994  21.304  0.00  0.00    +0.000 A 
ATOM      6  C   UNL     1       1.380   3.279  21.268  0.00  0.00    +0.000 A 
ATOM      7  C   UNL     1       0.695   3.170  20.066  0.00  0.00    +0.000 A 
ATOM      8  C   UNL     1       1.390   2.970  18.863  0.00  0.00    +0.000 A 
ATOM      9  C   UNL     1       2.773   2.750  18.875  0.00  0.00    +0.000 A 
BRANCH   4  11
ATOM     10  C   UNL     1       5.016   1.070  21.465  0.00  0.00    +0.000 C 
ATOM     11  C   UNL     1       4.824   2.068  20.325  0.00  0.00    +0.000 C 
ENDBRANCH   4  11
ENDBRANCH   1   9
BRANCH   3  12
ATOM     12  C   UNL     1       5.403   4.226  16.490  0.00  0.00    +0.000 C 
ATOM     13  C   UNL     1       5.386   4.788  15.079  0.00  0.00    +0.000 C 
ATOM     14  C   UNL     1       6.829   4.553  14.650  0.00  0.00    +0.000 C 
ATOM     15  N   UNL     1       7.630   4.939  15.822  0.00  0.00    +0.000 NA
ATOM     16  C   UNL     1       6.815   4.579  17.007  0.00  0.00    +0.000 C 
ATOM     17  H   UNL     1       7.756   5.951  15.812  0.00  0.00    +0.000 HD
ENDBRANCH   3  12
BRANCH   3  18
ATOM     18  C   UNL     1       4.175   5.519  18.419  0.00  0.00    +0.000 C 
BRANCH  18  19
ATOM     19  C   UNL     1       2.914   6.396  18.339  0.00  0.00    +0.000 C 
ATOM     20  C   UNL     1       2.273   7.162  19.548  0.00  0.00    +0.000 C 
ATOM     21  C   UNL     1       1.953   8.317  18.556  0.00  0.00    +0.000 C 
ATOM     22  C   UNL     1       3.172   7.826  17.748  0.00  0.00    +0.000 C 
ENDBRANCH  18  19
ENDBRANCH   3  18
TORSDOF 5
ENDMDL
MODEL 6
REMARK VINA RESULT:      -7.0      2.169      5.868
REMARK  Name = 
REMARK  6 active torsions:
REMARK  status: ('A' for Active; 'I' for Inactive)
REMARK    1  A    between atoms: C_1  and  C_2
REMARK    2  A    between atoms: C_2  and  C_3
REMARK    3  A    between atoms: C_8  and  C_9
REMARK    4  A    between atoms: N_11  and  C_12
REMARK    5  A    between atoms: N_11  and  C_17
REMARK    6  A    between atoms: C_12  and  C_13
REMARK                            x       y       z     vdW  Elec       q    Type
REMARK                         _______ _______ _______ _____ _____    ______ ____
ROOT
ATOM      1  C   UNL     1       5.081   4.712  18.744  0.00  0.00    +0.000 C 
ATOM      2  O   UNL     1       5.515   5.353  19.710  0.00  0.00    +0.000 OA
ATOM      3  N   UNL     1       5.836   4.691  17.516  0.00  0.00    +0.000 N 
ENDROOT
BRANCH   1   9
ATOM      4  C   UNL     1       2.600   4.780  18.449  0.00  0.00    +0.000 A 
ATOM      5  C   UNL     1       1.520   4.014  17.984  0.00  0.00    +0.000 A 
ATOM      6  C   UNL     1       1.424   2.666  18.288  0.00  0.00    +0.000 A 
ATOM      7  C   UNL     1       2.409   2.074  19.066  0.00  0.00    +0.000 A 
ATOM      8  C   UNL     1       3.589   2.769  19.375  0.00  0.00    +0.000 A 
ATOM      9  C   UNL     1       3.732   4.114  19.012  0.00  0.00    +0.000 A 
BRANCH   4  11
ATOM     10  C   UNL     1       2.331   7.085  19.573  0.00  0.00    +0.000 C 
ATOM     11  C   UNL     1       2.492   6.283  18.283  0.00  0.00    +0.000 C 
ENDBRANCH   4  11
ENDBRANCH   1   9
BRANCH   3  12
ATOM     12  C   UNL     1       6.862   5.775  17.520  0.00  0.00    +0.000 C 
ATOM     13  C   UNL     1       6.532   7.246  17.337  0.00  0.00    +0.000 C 
ATOM     14  C   UNL     1       7.867   7.893  17.684  0.00  0.00    +0.000 C 
ATOM     15  N   UNL     1       8.335   7.159  18.870  0.00  0.00    +0.000 NA
ATOM     16  C   UNL     1       7.856   5.767  18.702  0.00  0.00    +0.000 C 
ATOM     17  H   UNL     1       7.889   7.557  19.696  0.00  0.00    +0.000 HD
ENDBRANCH   3  12
BRANCH   3  18
ATOM     18  C   UNL     1       5.302   4.050  16.296  0.00  0.00    +0.000 C 
BRANCH  18  19
ATOM     19  C   UNL     1       5.730   4.642  14.943  0.00  0.00    +0.000 C 
ATOM     20  C   UNL     1       7.209   4.732  14.429  0.00  0.00    +0.000 C 
ATOM     21  C   UNL     1       6.660   4.409  13.009  0.00  0.00    +0.000 C 
ATOM     22  C   UNL     1       5.512   3.672  13.730  0.00  0.00    +0.000 C 
ENDBRANCH  18  19
ENDBRANCH   3  18
TORSDOF 5
ENDMDL
MODEL 7
REMARK VINA RESULT:      -6.9      1.970      5.791
REMARK  Name = 
REMARK  6 active torsions:
REMARK  status: ('A' for Active; 'I' for Inactive)
REMARK    1  A    between atoms: C_1  and  C_2
REMARK    2  A    between atoms: C_2  and  C_3
REMARK    3  A    between atoms: C_8  and  C_9
REMARK    4  A    between atoms: N_11  and  C_12
REMARK    5  A    between atoms: N_11  and  C_17
REMARK    6  A    between atoms: C_12  and  C_13
REMARK                            x       y       z     vdW  Elec       q    Type
REMARK                         _______ _______ _______ _____ _____    ______ ____
ROOT
ATOM      1  C   UNL     1       3.802   4.404  17.944  0.00  0.00    +0.000 C 
ATOM      2  O   UNL     1       2.856   4.118  17.199  0.00  0.00    +0.000 OA
ATOM      3  N   UNL     1       5.064   4.787  17.364  0.00  0.00    +0.000 N 
ENDROOT
BRANCH   1   9
ATOM      4  C   UNL     1       2.548   5.121  19.983  0.00  0.00    +0.000 A 
ATOM      5  C   UNL     1       1.642   4.651  20.947  0.00  0.00    +0.000 A 
ATOM      6  C   UNL     1       1.794   3.394  21.510  0.00  0.00    +0.000 A 
ATOM      7  C   UNL     1       2.860   2.598  21.115  0.00  0.00    +0.000 A 
ATOM      8  C   UNL     1       3.659   2.965  20.020  0.00  0.00    +0.000 A 
ATOM      9  C   UNL     1       3.471   4.203  19.393  0.00  0.00    +0.000 A 
BRANCH   4  11
ATOM     10  C   UNL     1       1.695   7.474  20.602  0.00  0.00    +0.000 C 
ATOM     11  C   UNL     1       2.451   6.587  19.614  0.00  0.00    +0.000 C 
ENDBRANCH   4  11
ENDBRANCH   1   9
BRANCH   3  12
ATOM     12  C   UNL     1       5.107   4.413  15.920  0.00  0.00    +0.000 C 
ATOM     13  C   UNL     1       5.330   5.413  14.798  0.00  0.00    +0.000 C 
ATOM     14  C   UNL     1       5.540   4.481  13.611  0.00  0.00    +0.000 C 
ATOM     15  N   UNL     1       6.412   3.415  14.128  0.00  0.00    +0.000 NA
ATOM     16  C   UNL     1       6.034   3.234  15.549  0.00  0.00    +0.000 C 
ATOM     17  H   UNL     1       7.379   3.738  14.089  0.00  0.00    +0.000 HD
ENDBRANCH   3  12
BRANCH   3  18
ATOM     18  C   UNL     1       6.259   5.013  18.204  0.00  0.00    +0.000 C 
BRANCH  18  19
ATOM     19  C   UNL     1       7.256   6.089  17.739  0.00  0.00    +0.000 C 
ATOM     20  C   UNL     1       6.873   7.555  17.338  0.00  0.00    +0.000 C 
ATOM     21  C   UNL     1       8.198   8.011  18.014  0.00  0.00    +0.000 C 
ATOM     22  C   UNL     1       8.053   6.763  18.910  0.00  0.00    +0.000 C 
ENDBRANCH  18  19
ENDBRANCH   3  18
TORSDOF 5
ENDMDL
MODEL 8
REMARK VINA RESULT:      -6.8      1.154      2.574
REMARK  Name = 
REMARK  6 active torsions:
REMARK  status: ('A' for Active; 'I' for Inactive)
REMARK    1  A    between atoms: C_1  and  C_2
REMARK    2  A    between atoms: C_2  and  C_3
REMARK    3  A    between atoms: C_8  and  C_9
REMARK    4  A    between atoms: N_11  and  C_12
REMARK    5  A    between atoms: N_11  and  C_17
REMARK    6  A    between atoms: C_12  and  C_13
REMARK                            x       y       z     vdW  Elec       q    Type
REMARK                         _______ _______ _______ _____ _____    ______ ____
ROOT
ATOM      1  C   UNL     1       4.325   4.464  18.853  0.00  0.00    +0.000 C 
ATOM      2  O   UNL     1       4.267   3.405  19.492  0.00  0.00    +0.000 OA
ATOM      3  N   UNL     1       3.103   5.152  18.518  0.00  0.00    +0.000 N 
ENDROOT
BRANCH   1   9
ATOM      4  C   UNL     1       6.007   4.843  17.045  0.00  0.00    +0.000 A 
ATOM      5  C   UNL     1       6.903   5.805  16.552  0.00  0.00    +0.000 A 
ATOM      6  C   UNL     1       7.698   6.542  17.415  0.00  0.00    +0.000 A 
ATOM      7  C   UNL     1       7.604   6.319  18.782  0.00  0.00    +0.000 A 
ATOM      8  C   UNL     1       6.584   5.509  19.305  0.00  0.00    +0.000 A 
ATOM      9  C   UNL     1       5.726   4.812  18.446  0.00  0.00    +0.000 A 
BRANCH   4  11
ATOM     10  C   UNL     1       5.881   4.057  14.593  0.00  0.00    +0.000 C 
ATOM     11  C   UNL     1       5.372   3.918  16.027  0.00  0.00    +0.000 C 
ENDBRANCH   4  11
ENDBRANCH   1   9
BRANCH   3  12
ATOM     12  C   UNL     1       1.931   4.247  18.701  0.00  0.00    +0.000 C 
ATOM     13  C   UNL     1       1.899   2.806  18.222  0.00  0.00    +0.000 C 
ATOM     14  C   UNL     1       0.622   2.303  18.886  0.00  0.00    +0.000 C 
ATOM     15  N   UNL     1       0.673   2.855  20.248  0.00  0.00    +0.000 NA
ATOM     16  C   UNL     1       1.345   4.171  20.128  0.00  0.00    +0.000 C 
ATOM     17  H   UNL     1       1.253   2.247  20.825  0.00  0.00    +0.000 HD
ENDBRANCH   3  12
BRANCH   3  18
ATOM     18  C   UNL     1       3.108   6.348  17.650  0.00  0.00    +0.000 C 
BRANCH  18  19
ATOM     19  C   UNL     1       2.846   7.708  18.319  0.00  0.00    +0.000 C 
ATOM     20  C   UNL     1       1.735   8.725  17.884  0.00  0.00    +0.000 C 
ATOM     21  C   UNL     1       1.534   9.043  19.394  0.00  0.00    +0.000 C 
ATOM     22  C   UNL     1       2.039   7.609  19.660  0.00  0.00    +0.000 C 
ENDBRANCH  18  19
ENDBRANCH   3  18
TORSDOF 5
ENDMDL
MODEL 9
REMARK VINA RESULT:      -6.8      2.341      5.813
REMARK  Name = 
REMARK  6 active torsions:
REMARK  status: ('A' for Active; 'I' for Inactive)
REMARK    1  A    between atoms: C_1  and  C_2
REMARK    2  A    between atoms: C_2  and  C_3
REMARK    3  A    between atoms: C_8  and  C_9
REMARK    4  A    between atoms: N_11  and  C_12
REMARK    5  A    between atoms: N_11  and  C_17
REMARK    6  A    between atoms: C_12  and  C_13
REMARK                            x       y       z     vdW  Elec       q    Type
REMARK                         _______ _______ _______ _____ _____    ______ ____
ROOT
ATOM      1  C   UNL     1       5.125   4.572  18.928  0.00  0.00    +0.000 C 
ATOM      2  O   UNL     1       5.651   4.827  20.020  0.00  0.00    +0.000 OA
ATOM      3  N   UNL     1       5.624   5.217  17.740  0.00  0.00    +0.000 N 
ENDROOT
BRANCH   1   9
ATOM      4  C   UNL     1       2.651   4.231  18.862  0.00  0.00    +0.000 A 
ATOM      5  C   UNL     1       1.656   3.468  18.231  0.00  0.00    +0.000 A 
ATOM      6  C   UNL     1       1.826   2.107  18.032  0.00  0.00    +0.000 A 
ATOM      7  C   UNL     1       2.995   1.498  18.466  0.00  0.00    +0.000 A 
ATOM      8  C   UNL     1       4.077   2.270  18.919  0.00  0.00    +0.000 A 
ATOM      9  C   UNL     1       3.945   3.657  19.060  0.00  0.00    +0.000 A 
BRANCH   4  11
ATOM     10  C   UNL     1       1.746   5.815  20.684  0.00  0.00    +0.000 C 
ATOM     11  C   UNL     1       2.275   5.644  19.262  0.00  0.00    +0.000 C 
ENDBRANCH   4  11
ENDBRANCH   1   9
BRANCH   3  12
ATOM     12  C   UNL     1       6.481   6.384  18.103  0.00  0.00    +0.000 C 
ATOM     13  C   UNL     1       7.950   6.268  18.472  0.00  0.00    +0.000 C 
ATOM     14  C   UNL     1       8.368   7.733  18.482  0.00  0.00    +0.000 C 
ATOM     15  N   UNL     1       7.725   8.309  17.291  0.00  0.00    +0.000 NA
ATOM     16  C   UNL     1       6.442   7.585  17.133  0.00  0.00    +0.000 C 
ATOM     17  H   UNL     1       8.310   8.113  16.479  0.00  0.00    +0.000 HD
ENDBRANCH   3  12
BRANCH   3  18
ATOM     18  C   UNL     1       4.953   5.048  16.434  0.00  0.00    +0.000 C 
BRANCH  18  19
ATOM     19  C   UNL     1       5.668   4.188  15.379  0.00  0.00    +0.000 C 
ATOM     20  C   UNL     1       5.231   4.058  13.879  0.00  0.00    +0.000 C 
ATOM     21  C   UNL     1       6.743   4.024  13.514  0.00  0.00    +0.000 C 
ATOM     22  C   UNL     1       6.969   4.846  14.800  0.00  0.00    +0.000 C 
ENDBRANCH  18  19
ENDBRANCH   3  18
TORSDOF 5
ENDMDL
