MODEL 1
REMARK VINA RESULT:      -7.0      0.000      0.000
REMARK  Name = 
REMARK  8 active torsions:
REMARK  status: ('A' for Active; 'I' for Inactive)
REMARK    1  A    between atoms: C_1  and  N_2
REMARK    2  A    between atoms: N_2  and  C_3
REMARK    3  A    between atoms: N_2  and  C_4
REMARK    4  A    between atoms: C_7  and  C_8
REMARK    5  A    between atoms: C_8  and  C_9
REMARK    6  A    between atoms: C_9  and  C_10
REMARK    7  A    between atoms: C_12  and  O_13
REMARK    8  A    between atoms: C_15  and  O_16
REMARK                            x       y       z     vdW  Elec       q    Type
REMARK                         _______ _______ _______ _____ _____    ______ ____
ROOT
ATOM      1  C   UNL     1       6.677   4.245  15.765  0.00  0.00    +0.000 C 
ENDROOT
BRANCH   1   2
ATOM      2  C   UNL     1       7.169   5.207  16.814  0.00  0.00    +0.000 A 
ATOM      3  C   UNL     1       7.173   6.587  16.559  0.00  0.00    +0.000 A 
ATOM      4  C   UNL     1       7.616   7.470  17.540  0.00  0.00    +0.000 A 
ATOM      5  C   UNL     1       8.057   7.006  18.774  0.00  0.00    +0.000 A 
ATOM      6  C   UNL     1       8.060   5.639  19.018  0.00  0.00    +0.000 A 
ATOM      7  C   UNL     1       7.623   4.737  18.053  0.00  0.00    +0.000 A 
BRANCH   4   8
ATOM      8  O   UNL     1       7.634   8.816  17.321  0.00  0.00    +0.000 OA
ATOM      9  H   UNL     1       7.087   9.009  16.541  0.00  0.00    +0.000 HD
ENDBRANCH   4   8
BRANCH   6  10
ATOM     10  O   UNL     1       8.488   5.130  20.209  0.00  0.00    +0.000 OA
ATOM     11  H   UNL     1       7.757   5.189  20.846  0.00  0.00    +0.000 HD
ENDBRANCH   6  10
ENDBRANCH   1   2
BRANCH   1  12
ATOM     12  C   UNL     1       5.154   4.301  15.575  0.00  0.00    +0.000 C 
BRANCH  12  16
ATOM     13  C   UNL     1       2.896   3.907  19.310  0.00  0.00    +0.000 A 
ATOM     14  C   UNL     1       2.946   5.111  18.599  0.00  0.00    +0.000 A 
ATOM     15  C   UNL     1       3.659   5.246  17.403  0.00  0.00    +0.000 A 
ATOM     16  C   UNL     1       4.372   4.173  16.863  0.00  0.00    +0.000 A 
ATOM     17  C   UNL     1       4.290   2.945  17.523  0.00  0.00    +0.000 A 
ATOM     18  C   UNL     1       3.565   2.820  18.721  0.00  0.00    +0.000 A 
BRANCH  13  20
ATOM     19  C   UNL     1       2.530   2.698  21.429  0.00  0.00    +0.000 C 
ATOM     20  N   UNL     1       2.194   3.785  20.514  0.00  0.00    +0.000 N 
ATOM     21  C   UNL     1       0.822   4.282  20.568  0.00  0.00    +0.000 C 
ENDBRANCH  13  20
ENDBRANCH  12  16
ENDBRANCH   1  12
TORSDOF 6
ENDMDL
MODEL 2
REMARK VINA RESULT:      -7.0      0.521      2.251
REMARK  Name = 
REMARK  8 active torsions:
REMARK  status: ('A' for Active; 'I' for Inactive)
REMARK    1  A    between atoms: C_1  and  N_2
REMARK    2  A    between atoms: N_2  and  C_3
REMARK    3  A    between atoms: N_2  and  C_4
REMARK    4  A    between atoms: C_7  and  C_8
REMARK    5  A    between atoms: C_8  and  C_9
REMARK    6  A    between atoms: C_9  and  C_10
REMARK    7  A    between atoms: C_12  and  O_13
REMARK    8  A    between atoms: C_15  and  O_16
REMARK                            x       y       z     vdW  Elec       q    Type
REMARK                         _______ _______ _______ _____ _____    ______ ____
ROOT
ATOM      1  C   UNL     1       6.745   4.218  15.830  0.00  0.00    +0.000 C 
ENDROOT
BRANCH   1   2
ATOM      2  C   UNL     1       7.182   5.193  16.891  0.00  0.00    +0.000 A 
ATOM      3  C   UNL     1       7.531   4.733  18.170  0.00  0.00    +0.000 A 
ATOM      4  C   UNL     1       7.947   5.640  19.141  0.00  0.00    +0.000 A 
ATOM      5  C   UNL     1       8.024   7.000  18.864  0.00  0.00    +0.000 A 
ATOM      6  C   UNL     1       7.669   7.451  17.599  0.00  0.00    +0.000 A 
ATOM      7  C   UNL     1       7.248   6.564  16.613  0.00  0.00    +0.000 A 
BRANCH   4   8
ATOM      8  O   UNL     1       8.291   5.224  20.394  0.00  0.00    +0.000 OA
ATOM      9  H   UNL     1       9.168   4.808  20.351  0.00  0.00    +0.000 HD
ENDBRANCH   4   8
BRANCH   6  10
ATOM     10  O   UNL     1       7.719   8.775  17.276  0.00  0.00    +0.000 OA
ATOM     11  H   UNL     1       6.878   9.185  17.538  0.00  0.00    +0.000 HD
ENDBRANCH   6  10
ENDBRANCH   1   2
BRANCH   1  12
ATOM     12  C   UNL     1       5.233   4.267  15.565  0.00  0.00    +0.000 C 
BRANCH  12  16
ATOM     13  C   UNL     1       2.787   4.236  19.202  0.00  0.00    +0.000 A 
ATOM     14  C   UNL     1       3.383   3.073  18.700  0.00  0.00    +0.000 A 
ATOM     15  C   UNL     1       4.169   3.073  17.543  0.00  0.00    +0.000 A 
ATOM     16  C   UNL     1       4.391   4.248  16.822  0.00  0.00    +0.000 A 
ATOM     17  C   UNL     1       3.856   5.432  17.334  0.00  0.00    +0.000 A 
ATOM     18  C   UNL     1       3.072   5.421  18.500  0.00  0.00    +0.000 A 
BRANCH  13  20
ATOM     19  C   UNL     1       1.175   3.047  20.641  0.00  0.00    +0.000 C 
ATOM     20  N   UNL     1       1.989   4.224  20.350  0.00  0.00    +0.000 N 
ATOM     21  C   UNL     1       1.496   5.499  20.863  0.00  0.00    +0.000 C 
ENDBRANCH  13  20
ENDBRANCH  12  16
ENDBRANCH   1  12
TORSDOF 6
ENDMDL
MODEL 3
REMARK VINA RESULT:      -7.0      3.810      6.746
REMARK  Name = 
REMARK  8 active torsions:
REMARK  status: ('A' for Active; 'I' for Inactive)
REMARK    1  A    between atoms: C_1  and  N_2
REMARK    2  A    between atoms: N_2  and  C_3
REMARK    3  A    between atoms: N_2  and  C_4
REMARK    4  A    between atoms: C_7  and  C_8
REMARK    5  A    between atoms: C_8  and  C_9
REMARK    6  A    between atoms: C_9  and  C_10
REMARK    7  A    between atoms: C_12  and  O_13
REMARK    8  A    between atoms: C_15  and  O_16
REMARK                            x       y       z     vdW  Elec       q    Type
REMARK                         _______ _______ _______ _____ _____    ______ ____
ROOT
ATOM      1  C   UNL     1       2.642   6.089  18.481  0.00  0.00    +0.000 C 
ENDROOT
BRANCH   1   2
ATOM      2  C   UNL     1       2.168   4.826  19.150  0.00  0.00    +0.000 A 
ATOM      3  C   UNL     1       2.456   4.594  20.504  0.00  0.00    +0.000 A 
ATOM      4  C   UNL     1       2.002   3.430  21.118  0.00  0.00    +0.000 A 
ATOM      5  C   UNL     1       1.265   2.488  20.410  0.00  0.00    +0.000 A 
ATOM      6  C   UNL     1       0.990   2.718  19.068  0.00  0.00    +0.000 A 
ATOM      7  C   UNL     1       1.434   3.873  18.432  0.00  0.00    +0.000 A 
BRANCH   4   8
ATOM      8  O   UNL     1       2.268   3.176  22.432  0.00  0.00    +0.000 OA
ATOM      9  H   UNL     1       2.097   2.235  22.605  0.00  0.00    +0.000 HD
ENDBRANCH   4   8
BRANCH   6  10
ATOM     10  O   UNL     1       0.276   1.825  18.325  0.00  0.00    +0.000 OA
ATOM     11  H   UNL     1       0.323   2.097  17.393  0.00  0.00    +0.000 HD
ENDBRANCH   6  10
ENDBRANCH   1   2
BRANCH   1  12
ATOM     12  C   UNL     1       4.173   6.206  18.449  0.00  0.00    +0.000 C 
BRANCH  12  16
ATOM     13  C   UNL     1       5.992   4.700  14.757  0.00  0.00    +0.000 A 
ATOM     14  C   UNL     1       5.736   3.865  15.851  0.00  0.00    +0.000 A 
ATOM     15  C   UNL     1       5.151   4.334  17.031  0.00  0.00    +0.000 A 
ATOM     16  C   UNL     1       4.801   5.678  17.178  0.00  0.00    +0.000 A 
ATOM     17  C   UNL     1       4.992   6.520  16.081  0.00  0.00    +0.000 A 
ATOM     18  C   UNL     1       5.575   6.036  14.897  0.00  0.00    +0.000 A 
BRANCH  13  20
ATOM     19  C   UNL     1       7.704   4.973  13.002  0.00  0.00    +0.000 C 
ATOM     20  N   UNL     1       6.593   4.227  13.587  0.00  0.00    +0.000 N 
ATOM     21  C   UNL     1       5.783   3.435  12.664  0.00  0.00    +0.000 C 
ENDBRANCH  13  20
ENDBRANCH  12  16
ENDBRANCH   1  12
TORSDOF 6
ENDMDL
MODEL 4
REMARK VINA RESULT:      -6.9      0.595      2.015
REMARK  Name = 
REMARK  8 active torsions:
REMARK  status: ('A' for Active; 'I' for Inactive)
REMARK    1  A    between atoms: C_1  and  N_2
REMARK    2  A    between atoms: N_2  and  C_3
REMARK    3  A    between atoms: N_2  and  C_4
REMARK    4  A    between atoms: C_7  and  C_8
REMARK    5  A    between atoms: C_8  and  C_9
REMARK    6  A    between atoms: C_9  and  C_10
REMARK    7  A    between atoms: C_12  and  O_13
REMARK    8  A    between atoms: C_15  and  O_16
REMARK                            x       y       z     vdW  Elec       q    Type
REMARK                         _______ _______ _______ _____ _____    ______ ____
ROOT
ATOM      1  C   UNL     1       6.759   4.280  15.781  0.00  0.00    +0.000 C 
ENDROOT
BRANCH   1   2
ATOM      2  C   UNL     1       7.210   5.232  16.857  0.00  0.00    +0.000 A 
ATOM      3  C   UNL     1       7.621   4.740  18.106  0.00  0.00    +0.000 A 
ATOM      4  C   UNL     1       8.049   5.626  19.091  0.00  0.00    +0.000 A 
ATOM      5  C   UNL     1       8.079   6.996  18.857  0.00  0.00    +0.000 A 
ATOM      6  C   UNL     1       7.664   7.478  17.623  0.00  0.00    +0.000 A 
ATOM      7  C   UNL     1       7.229   6.613  16.624  0.00  0.00    +0.000 A 
BRANCH   4   8
ATOM      8  O   UNL     1       8.452   5.179  20.315  0.00  0.00    +0.000 OA
ATOM      9  H   UNL     1       8.336   4.214  20.345  0.00  0.00    +0.000 HD
ENDBRANCH   4   8
BRANCH   6  10
ATOM     10  O   UNL     1       7.667   8.813  17.343  0.00  0.00    +0.000 OA
ATOM     11  H   UNL     1       8.391   8.993  16.721  0.00  0.00    +0.000 HD
ENDBRANCH   6  10
ENDBRANCH   1   2
BRANCH   1  12
ATOM     12  C   UNL     1       5.264   4.419  15.455  0.00  0.00    +0.000 C 
BRANCH  12  16
ATOM     13  C   UNL     1       2.652   4.054  18.955  0.00  0.00    +0.000 A 
ATOM     14  C   UNL     1       2.933   5.293  18.367  0.00  0.00    +0.000 A 
ATOM     15  C   UNL     1       3.761   5.419  17.246  0.00  0.00    +0.000 A 
ATOM     16  C   UNL     1       4.361   4.302  16.662  0.00  0.00    +0.000 A 
ATOM     17  C   UNL     1       4.049   3.049  17.194  0.00  0.00    +0.000 A 
ATOM     18  C   UNL     1       3.211   2.933  18.316  0.00  0.00    +0.000 A 
BRANCH  13  20
ATOM     19  C   UNL     1       2.113   4.769  21.253  0.00  0.00    +0.000 C 
ATOM     20  N   UNL     1       1.836   3.938  20.085  0.00  0.00    +0.000 N 
ATOM     21  C   UNL     1       1.182   2.656  20.337  0.00  0.00    +0.000 C 
ENDBRANCH  13  20
ENDBRANCH  12  16
ENDBRANCH   1  12
TORSDOF 6
ENDMDL
MODEL 5
REMARK VINA RESULT:      -6.9      3.827      6.684
REMARK  Name = 
REMARK  8 active torsions:
REMARK  status: ('A' for Active; 'I' for Inactive)
REMARK    1  A    between atoms: C_1  and  N_2
REMARK    2  A    between atoms: N_2  and  C_3
REMARK    3  A    between atoms: N_2  and  C_4
REMARK    4  A    between atoms: C_7  and  C_8
REMARK    5  A    between atoms: C_8  and  C_9
REMARK    6  A    between atoms: C_9  and  C_10
REMARK    7  A    between atoms: C_12  and  O_13
REMARK    8  A    between atoms: C_15  and  O_16
REMARK                            x       y       z     vdW  Elec       q    Type
REMARK                         _______ _______ _______ _____ _____    ______ ____
ROOT
ATOM      1  C   UNL     1       2.459   6.068  18.271  0.00  0.00    +0.000 C 
ENDROOT
BRANCH   1   2
ATOM      2  C   UNL     1       2.043   4.809  18.986  0.00  0.00    +0.000 A 
ATOM      3  C   UNL     1       2.347   4.636  20.344  0.00  0.00    +0.000 A 
ATOM      4  C   UNL     1       1.947   3.475  21.000  0.00  0.00    +0.000 A 
ATOM      5  C   UNL     1       1.246   2.480  20.329  0.00  0.00    +0.000 A 
ATOM      6  C   UNL     1       0.954   2.652  18.982  0.00  0.00    +0.000 A 
ATOM      7  C   UNL     1       1.346   3.803  18.305  0.00  0.00    +0.000 A 
BRANCH   4   8
ATOM      8  O   UNL     1       2.231   3.277  22.320  0.00  0.00    +0.000 OA
ATOM      9  H   UNL     1       1.402   3.326  22.825  0.00  0.00    +0.000 HD
ENDBRANCH   4   8
BRANCH   6  10
ATOM     10  O   UNL     1       0.275   1.704  18.275  0.00  0.00    +0.000 OA
ATOM     11  H   UNL     1       0.102   0.950  18.863  0.00  0.00    +0.000 HD
ENDBRANCH   6  10
ENDBRANCH   1   2
BRANCH   1  12
ATOM     12  C   UNL     1       3.982   6.270  18.264  0.00  0.00    +0.000 C 
BRANCH  12  16
ATOM     13  C   UNL     1       5.954   4.698  14.680  0.00  0.00    +0.000 A 
ATOM     14  C   UNL     1       5.743   6.069  14.868  0.00  0.00    +0.000 A 
ATOM     15  C   UNL     1       5.119   6.581  16.010  0.00  0.00    +0.000 A 
ATOM     16  C   UNL     1       4.664   5.736  17.024  0.00  0.00    +0.000 A 
ATOM     17  C   UNL     1       4.915   4.369  16.888  0.00  0.00    +0.000 A 
ATOM     18  C   UNL     1       5.547   3.866  15.738  0.00  0.00    +0.000 A 
BRANCH  13  20
ATOM     19  C   UNL     1       7.676   4.925  12.928  0.00  0.00    +0.000 C 
ATOM     20  N   UNL     1       6.563   4.193  13.527  0.00  0.00    +0.000 N 
ATOM     21  C   UNL     1       5.760   3.374  12.622  0.00  0.00    +0.000 C 
ENDBRANCH  13  20
ENDBRANCH  12  16
ENDBRANCH   1  12
TORSDOF 6
ENDMDL
MODEL 6
REMARK VINA RESULT:      -6.8      0.456      1.336
REMARK  Name = 
REMARK  8 active torsions:
REMARK  status: ('A' for Active; 'I' for Inactive)
REMARK    1  A    between atoms: C_1  and  N_2
REMARK    2  A    between atoms: N_2  and  C_3
REMARK    3  A    between atoms: N_2  and  C_4
REMARK    4  A    between atoms: C_7  and  C_8
REMARK    5  A    between atoms: C_8  and  C_9
REMARK    6  A    between atoms: C_9  and  C_10
REMARK    7  A    between atoms: C_12  and  O_13
REMARK    8  A    between atoms: C_15  and  O_16
REMARK                            x       y       z     vdW  Elec       q    Type
REMARK                         _______ _______ _______ _____ _____    ______ ____
ROOT
ATOM      1  C   UNL     1       6.661   4.232  15.921  0.00  0.00    +0.000 C 
ENDROOT
BRANCH   1   2
ATOM      2  C   UNL     1       7.151   5.214  16.952  0.00  0.00    +0.000 A 
ATOM      3  C   UNL     1       7.239   6.579  16.640  0.00  0.00    +0.000 A 
ATOM      4  C   UNL     1       7.681   7.482  17.604  0.00  0.00    +0.000 A 
ATOM      5  C   UNL     1       8.038   7.052  18.877  0.00  0.00    +0.000 A 
ATOM      6  C   UNL     1       7.957   5.698  19.178  0.00  0.00    +0.000 A 
ATOM      7  C   UNL     1       7.521   4.777  18.231  0.00  0.00    +0.000 A 
BRANCH   4   8
ATOM      8  O   UNL     1       7.780   8.814  17.330  0.00  0.00    +0.000 OA
ATOM      9  H   UNL     1       6.978   9.256  17.654  0.00  0.00    +0.000 HD
ENDBRANCH   4   8
BRANCH   6  10
ATOM     10  O   UNL     1       8.300   5.222  20.409  0.00  0.00    +0.000 OA
ATOM     11  H   UNL     1       8.016   5.867  21.076  0.00  0.00    +0.000 HD
ENDBRANCH   6  10
ENDBRANCH   1   2
BRANCH   1  12
ATOM     12  C   UNL     1       5.152   4.348  15.661  0.00  0.00    +0.000 C 
BRANCH  12  16
ATOM     13  C   UNL     1       2.667   3.539  19.179  0.00  0.00    +0.000 A 
ATOM     14  C   UNL     1       3.455   2.547  18.585  0.00  0.00    +0.000 A 
ATOM     15  C   UNL     1       4.256   2.796  17.465  0.00  0.00    +0.000 A 
ATOM     16  C   UNL     1       4.297   4.061  16.875  0.00  0.00    +0.000 A 
ATOM     17  C   UNL     1       3.566   5.083  17.484  0.00  0.00    +0.000 A 
ATOM     18  C   UNL     1       2.770   4.822  18.613  0.00  0.00    +0.000 A 
BRANCH  13  20
ATOM     19  C   UNL     1       0.411   3.167  20.107  0.00  0.00    +0.000 C 
ATOM     20  N   UNL     1       1.857   3.277  20.288  0.00  0.00    +0.000 N 
ATOM     21  C   UNL     1       2.316   3.722  21.601  0.00  0.00    +0.000 C 
ENDBRANCH  13  20
ENDBRANCH  12  16
ENDBRANCH   1  12
TORSDOF 6
ENDMDL
MODEL 7
REMARK VINA RESULT:      -6.8      2.723      3.635
REMARK  Name = 
REMARK  8 active torsions:
REMARK  status: ('A' for Active; 'I' for Inactive)
REMARK    1  A    between atoms: C_1  and  N_2
REMARK    2  A    between atoms: N_2  and  C_3
REMARK    3  A    between atoms: N_2  and  C_4
REMARK    4  A    between atoms: C_7  and  C_8
REMARK    5  A    between atoms: C_8  and  C_9
REMARK    6  A    between atoms: C_9  and  C_10
REMARK    7  A    between atoms: C_12  and  O_13
REMARK    8  A    between atoms: C_15  and  O_16
REMARK                            x       y       z     vdW  Elec       q    Type
REMARK                         _______ _______ _______ _____ _____    ______ ____
ROOT
ATOM      1  C   UNL     1       3.941   3.514  18.146  0.00  0.00    +0.000 C 
ENDROOT
BRANCH   1   2
ATOM      2  C   UNL     1       5.211   4.321  18.076  0.00  0.00    +0.000 A 
ATOM      3  C   UNL     1       5.694   4.770  16.837  0.00  0.00    +0.000 A 
ATOM      4  C   UNL     1       6.861   5.527  16.782  0.00  0.00    +0.000 A 
ATOM      5  C   UNL     1       7.560   5.848  17.940  0.00  0.00    +0.000 A 
ATOM      6  C   UNL     1       7.083   5.395  19.163  0.00  0.00    +0.000 A 
ATOM      7  C   UNL     1       5.920   4.635  19.242  0.00  0.00    +0.000 A 
BRANCH   4   8
ATOM      8  O   UNL     1       7.356   5.974  15.593  0.00  0.00    +0.000 OA
ATOM      9  H   UNL     1       6.845   6.754  15.320  0.00  0.00    +0.000 HD
ENDBRANCH   4   8
BRANCH   6  10
ATOM     10  O   UNL     1       7.732   5.676  20.329  0.00  0.00    +0.000 OA
ATOM     11  H   UNL     1       7.534   4.970  20.966  0.00  0.00    +0.000 HD
ENDBRANCH   6  10
ENDBRANCH   1   2
BRANCH   1  12
ATOM     12  C   UNL     1       2.716   4.289  17.640  0.00  0.00    +0.000 C 
BRANCH  12  16
ATOM     13  C   UNL     1       1.773   7.869  19.987  0.00  0.00    +0.000 A 
ATOM     14  C   UNL     1       1.683   6.582  20.530  0.00  0.00    +0.000 A 
ATOM     15  C   UNL     1       1.987   5.433  19.791  0.00  0.00    +0.000 A 
ATOM     16  C   UNL     1       2.389   5.520  18.457  0.00  0.00    +0.000 A 
ATOM     17  C   UNL     1       2.544   6.795  17.909  0.00  0.00    +0.000 A 
ATOM     18  C   UNL     1       2.241   7.942  18.662  0.00  0.00    +0.000 A 
BRANCH  13  20
ATOM     19  C   UNL     1       1.148   8.877  22.150  0.00  0.00    +0.000 C 
ATOM     20  N   UNL     1       1.451   9.010  20.727  0.00  0.00    +0.000 N 
ATOM     21  C   UNL     1       0.829  10.134  20.031  0.00  0.00    +0.000 C 
ENDBRANCH  13  20
ENDBRANCH  12  16
ENDBRANCH   1  12
TORSDOF 6
ENDMDL
MODEL 8
REMARK VINA RESULT:      -6.8      3.957      5.307
REMARK  Name = 
REMARK  8 active torsions:
REMARK  status: ('A' for Active; 'I' for Inactive)
REMARK    1  A    between atoms: C_1  and  N_2
REMARK    2  A    between atoms: N_2  and  C_3
REMARK    3  A    between atoms: N_2  and  C_4
REMARK    4  A    between atoms: C_7  and  C_8
REMARK    5  A    between atoms: C_8  and  C_9
REMARK    6  A    between atoms: C_9  and  C_10
REMARK    7  A    between atoms: C_12  and  O_13
REMARK    8  A    between atoms: C_15  and  O_16
REMARK                            x       y       z     vdW  Elec       q    Type
REMARK                         _______ _______ _______ _____ _____    ______ ____
ROOT
ATOM      1  C   UNL     1       3.354   5.410  18.261  0.00  0.00    +0.000 C 
ENDROOT
BRANCH   1   2
ATOM      2  C   UNL     1       4.854   5.513  18.173  0.00  0.00    +0.000 A 
ATOM      3  C   UNL     1       5.636   5.435  19.335  0.00  0.00    +0.000 A 
ATOM      4  C   UNL     1       7.023   5.518  19.243  0.00  0.00    +0.000 A 
ATOM      5  C   UNL     1       7.649   5.678  18.012  0.00  0.00    +0.000 A 
ATOM      6  C   UNL     1       6.871   5.764  16.866  0.00  0.00    +0.000 A 
ATOM      7  C   UNL     1       5.483   5.686  16.933  0.00  0.00    +0.000 A 
BRANCH   4   8
ATOM      8  O   UNL     1       7.809   5.447  20.355  0.00  0.00    +0.000 OA
ATOM      9  H   UNL     1       8.158   4.543  20.429  0.00  0.00    +0.000 HD
ENDBRANCH   4   8
BRANCH   6  10
ATOM     10  O   UNL     1       7.433   5.928  15.634  0.00  0.00    +0.000 OA
ATOM     11  H   UNL     1       7.329   6.857  15.372  0.00  0.00    +0.000 HD
ENDBRANCH   6  10
ENDBRANCH   1   2
BRANCH   1  12
ATOM     12  C   UNL     1       2.797   5.971  19.578  0.00  0.00    +0.000 C 
BRANCH  12  16
ATOM     13  C   UNL     1       1.011   9.952  19.166  0.00  0.00    +0.000 A 
ATOM     14  C   UNL     1       0.979   9.248  20.376  0.00  0.00    +0.000 A 
ATOM     15  C   UNL     1       1.551   7.979  20.519  0.00  0.00    +0.000 A 
ATOM     16  C   UNL     1       2.179   7.345  19.445  0.00  0.00    +0.000 A 
ATOM     17  C   UNL     1       2.275   8.051  18.244  0.00  0.00    +0.000 A 
ATOM     18  C   UNL     1       1.702   9.327  18.113  0.00  0.00    +0.000 A 
BRANCH  13  20
ATOM     19  C   UNL     1      -0.984  11.306  18.642  0.00  0.00    +0.000 C 
ATOM     20  N   UNL     1       0.422  11.213  19.027  0.00  0.00    +0.000 N 
ATOM     21  C   UNL     1       1.275  12.337  18.652  0.00  0.00    +0.000 C 
ENDBRANCH  13  20
ENDBRANCH  12  16
ENDBRANCH   1  12
TORSDOF 6
ENDMDL
MODEL 9
REMARK VINA RESULT:      -6.7      3.814      4.918
REMARK  Name = 
REMARK  8 active torsions:
REMARK  status: ('A' for Active; 'I' for Inactive)
REMARK    1  A    between atoms: C_1  and  N_2
REMARK    2  A    between atoms: N_2  and  C_3
REMARK    3  A    between atoms: N_2  and  C_4
REMARK    4  A    between atoms: C_7  and  C_8
REMARK    5  A    between atoms: C_8  and  C_9
REMARK    6  A    between atoms: C_9  and  C_10
REMARK    7  A    between atoms: C_12  and  O_13
REMARK    8  A    between atoms: C_15  and  O_16
REMARK                            x       y       z     vdW  Elec       q    Type
REMARK                         _______ _______ _______ _____ _____    ______ ____
ROOT
ATOM      1  C   UNL     1       3.406   5.017  18.353  0.00  0.00    +0.000 C 
ENDROOT
BRANCH   1   2
ATOM      2  C   UNL     1       4.906   5.037  18.218  0.00  0.00    +0.000 A 
ATOM      3  C   UNL     1       5.504   4.815  16.969  0.00  0.00    +0.000 A 
ATOM      4  C   UNL     1       6.891   4.848  16.850  0.00  0.00    +0.000 A 
ATOM      5  C   UNL     1       7.697   5.099  17.955  0.00  0.00    +0.000 A 
ATOM      6  C   UNL     1       7.101   5.309  19.191  0.00  0.00    +0.000 A 
ATOM      7  C   UNL     1       5.717   5.279  19.334  0.00  0.00    +0.000 A 
BRANCH   4   8
ATOM      8  O   UNL     1       7.502   4.634  15.650  0.00  0.00    +0.000 OA
ATOM      9  H   UNL     1       7.963   3.779  15.686  0.00  0.00    +0.000 HD
ENDBRANCH   4   8
BRANCH   6  10
ATOM     10  O   UNL     1       7.844   5.553  20.308  0.00  0.00    +0.000 OA
ATOM     11  H   UNL     1       8.747   5.232  20.149  0.00  0.00    +0.000 HD
ENDBRANCH   6  10
ENDBRANCH   1   2
BRANCH   1  12
ATOM     12  C   UNL     1       2.917   5.692  19.644  0.00  0.00    +0.000 C 
BRANCH  12  16
ATOM     13  C   UNL     1       1.116   9.633  18.983  0.00  0.00    +0.000 A 
ATOM     14  C   UNL     1       1.143   9.033  20.248  0.00  0.00    +0.000 A 
ATOM     15  C   UNL     1       1.720   7.778  20.470  0.00  0.00    +0.000 A 
ATOM     16  C   UNL     1       2.294   7.053  19.425  0.00  0.00    +0.000 A 
ATOM     17  C   UNL     1       2.332   7.654  18.165  0.00  0.00    +0.000 A 
ATOM     18  C   UNL     1       1.755   8.918  17.954  0.00  0.00    +0.000 A 
BRANCH  13  20
ATOM     19  C   UNL     1       1.016  12.043  19.500  0.00  0.00    +0.000 C 
ATOM     20  N   UNL     1       0.523  10.880  18.766  0.00  0.00    +0.000 N 
ATOM     21  C   UNL     1      -0.877  10.918  18.352  0.00  0.00    +0.000 C 
ENDBRANCH  13  20
ENDBRANCH  12  16
ENDBRANCH   1  12
TORSDOF 6
ENDMDL
