MODEL 1
REMARK VINA RESULT:      -7.8      0.000      0.000
REMARK  Name = 
REMARK  6 active torsions:
REMARK  status: ('A' for Active; 'I' for Inactive)
REMARK    1  A    between atoms: C_4  and  S_5
REMARK    2  A    between atoms: C_8  and  C_9
REMARK    3  A    between atoms: C_9  and  N_10
REMARK    4  A    between atoms: N_10  and  C_11
REMARK    5  A    between atoms: C_14  and  C_15
REMARK    6  A    between atoms: C_15  and  O_17
REMARK                            x       y       z     vdW  Elec       q    Type
REMARK                         _______ _______ _______ _____ _____    ______ ____
ROOT
ATOM      1  N   UNL     1      -0.301  12.950  19.343  0.00  0.00    +0.000 N 
ATOM      2  C   UNL     1       0.183  11.699  19.654  0.00  0.00    +0.000 A 
ATOM      3  N   UNL     1      -0.022  11.249  20.888  0.00  0.00    +0.000 NA
ATOM      4  C   UNL     1       0.436  10.011  21.157  0.00  0.00    +0.000 A 
ATOM      5  C   UNL     1       1.108   9.207  20.230  0.00  0.00    +0.000 A 
ATOM      6  C   UNL     1       1.578   7.880  20.441  0.00  0.00    +0.000 A 
ATOM      7  C   UNL     1       2.227   7.170  19.426  0.00  0.00    +0.000 A 
ATOM      8  C   UNL     1       2.453   7.814  18.209  0.00  0.00    +0.000 A 
ATOM      9  C   UNL     1       1.984   9.115  18.004  0.00  0.00    +0.000 A 
ATOM     10  C   UNL     1       1.299   9.817  18.987  0.00  0.00    +0.000 A 
ATOM     11  N   UNL     1       0.850  11.045  18.705  0.00  0.00    +0.000 NA
ATOM     12  H   UNL     1      -0.393  13.513  20.175  0.00  0.00    +0.000 HD
ATOM     13  H   UNL     1       0.215  13.340  18.566  0.00  0.00    +0.000 HD
ENDROOT
BRANCH   4  14
ATOM     14  S   UNL     1       0.112   9.485  22.831  0.00  0.00    +0.000 S 
ATOM     15  H   UNL     1      -1.098  10.056  22.877  0.00  0.00    +0.000 HD
ENDBRANCH   4  14
BRANCH   7  16
ATOM     16  C   UNL     1       2.633   5.729  19.622  0.00  0.00    +0.000 C 
BRANCH  16  17
ATOM     17  N   UNL     1       4.085   5.594  19.676  0.00  0.00    +0.000 N 
ATOM     18  H   UNL     1       4.381   4.934  20.392  0.00  0.00    +0.000 HD
BRANCH  17  19
ATOM     19  C   UNL     1       4.750   5.386  18.455  0.00  0.00    +0.000 A 
ATOM     20  C   UNL     1       6.040   5.870  18.202  0.00  0.00    +0.000 A 
ATOM     21  C   UNL     1       6.692   5.609  16.993  0.00  0.00    +0.000 A 
ATOM     22  C   UNL     1       6.075   4.828  16.015  0.00  0.00    +0.000 A 
ATOM     23  C   UNL     1       4.821   4.268  16.279  0.00  0.00    +0.000 A 
ATOM     24  C   UNL     1       4.175   4.541  17.495  0.00  0.00    +0.000 A 
BRANCH  22  25
ATOM     25  C   UNL     1       6.821   4.584  14.754  0.00  0.00    +0.000 C 
ATOM     26  O   UNL     1       7.678   5.344  14.335  0.00  0.00    +0.000 OA
BRANCH  25  27
ATOM     27  O   UNL     1       6.424   3.482  14.085  0.00  0.00    +0.000 OA
ATOM     28  H   UNL     1       6.295   3.601  13.128  0.00  0.00    +0.000 HD
ENDBRANCH  25  27
ENDBRANCH  22  25
ENDBRANCH  17  19
ENDBRANCH  16  17
ENDBRANCH   7  16
TORSDOF 6
ENDMDL
MODEL 2
REMARK VINA RESULT:      -7.5      1.089      1.271
REMARK  Name = 
REMARK  6 active torsions:
REMARK  status: ('A' for Active; 'I' for Inactive)
REMARK    1  A    between atoms: C_4  and  S_5
REMARK    2  A    between atoms: C_8  and  C_9
REMARK    3  A    between atoms: C_9  and  N_10
REMARK    4  A    between atoms: N_10  and  C_11
REMARK    5  A    between atoms: C_14  and  C_15
REMARK    6  A    between atoms: C_15  and  O_17
REMARK                            x       y       z     vdW  Elec       q    Type
REMARK                         _______ _______ _______ _____ _____    ______ ____
ROOT
ATOM      1  N   UNL     1      -2.020  12.726  19.245  0.00  0.00    +0.000 N 
ATOM      2  C   UNL     1      -1.189  11.683  19.590  0.00  0.00    +0.000 A 
ATOM      3  N   UNL     1      -1.157  11.319  20.867  0.00  0.00    +0.000 NA
ATOM      4  C   UNL     1      -0.359  10.277  21.172  0.00  0.00    +0.000 A 
ATOM      5  C   UNL     1       0.424   9.591  20.237  0.00  0.00    +0.000 A 
ATOM      6  C   UNL     1       1.252   8.462  20.488  0.00  0.00    +0.000 A 
ATOM      7  C   UNL     1       1.979   7.851  19.461  0.00  0.00    +0.000 A 
ATOM      8  C   UNL     1       1.915   8.410  18.185  0.00  0.00    +0.000 A 
ATOM      9  C   UNL     1       1.095   9.515  17.940  0.00  0.00    +0.000 A 
ATOM     10  C   UNL     1       0.333  10.105  18.940  0.00  0.00    +0.000 A 
ATOM     11  N   UNL     1      -0.455  11.138  18.622  0.00  0.00    +0.000 NA
ATOM     12  H   UNL     1      -2.189  13.324  20.040  0.00  0.00    +0.000 HD
ATOM     13  H   UNL     1      -1.699  13.160  18.391  0.00  0.00    +0.000 HD
ENDROOT
BRANCH   4  14
ATOM     14  S   UNL     1      -0.380   9.851  22.905  0.00  0.00    +0.000 S 
ATOM     15  H   UNL     1      -1.528  10.499  23.146  0.00  0.00    +0.000 HD
ENDBRANCH   4  14
BRANCH   7  16
ATOM     16  C   UNL     1       2.776   6.594  19.714  0.00  0.00    +0.000 C 
BRANCH  16  17
ATOM     17  N   UNL     1       2.512   5.588  18.690  0.00  0.00    +0.000 N 
ATOM     18  H   UNL     1       1.582   5.686  18.289  0.00  0.00    +0.000 HD
BRANCH  17  19
ATOM     19  C   UNL     1       3.499   5.408  17.706  0.00  0.00    +0.000 A 
ATOM     20  C   UNL     1       4.372   6.429  17.310  0.00  0.00    +0.000 A 
ATOM     21  C   UNL     1       5.373   6.205  16.360  0.00  0.00    +0.000 A 
ATOM     22  C   UNL     1       5.543   4.938  15.802  0.00  0.00    +0.000 A 
ATOM     23  C   UNL     1       4.735   3.885  16.242  0.00  0.00    +0.000 A 
ATOM     24  C   UNL     1       3.731   4.122  17.194  0.00  0.00    +0.000 A 
BRANCH  22  25
ATOM     25  C   UNL     1       6.626   4.764  14.800  0.00  0.00    +0.000 C 
ATOM     26  O   UNL     1       6.586   3.916  13.925  0.00  0.00    +0.000 OA
BRANCH  25  27
ATOM     27  O   UNL     1       7.680   5.586  14.982  0.00  0.00    +0.000 OA
ATOM     28  H   UNL     1       8.501   5.148  15.267  0.00  0.00    +0.000 HD
ENDBRANCH  25  27
ENDBRANCH  22  25
ENDBRANCH  17  19
ENDBRANCH  16  17
ENDBRANCH   7  16
TORSDOF 6
ENDMDL
MODEL 3
REMARK VINA RESULT:      -7.5      1.110      1.551
REMARK  Name = 
REMARK  6 active torsions:
REMARK  status: ('A' for Active; 'I' for Inactive)
REMARK    1  A    between atoms: C_4  and  S_5
REMARK    2  A    between atoms: C_8  and  C_9
REMARK    3  A    between atoms: C_9  and  N_10
REMARK    4  A    between atoms: N_10  and  C_11
REMARK    5  A    between atoms: C_14  and  C_15
REMARK    6  A    between atoms: C_15  and  O_17
REMARK                            x       y       z     vdW  Elec       q    Type
REMARK                         _______ _______ _______ _____ _____    ______ ____
ROOT
ATOM      1  N   UNL     1      -2.146  12.616  19.091  0.00  0.00    +0.000 N 
ATOM      2  C   UNL     1      -1.271  11.614  19.447  0.00  0.00    +0.000 A 
ATOM      3  N   UNL     1      -1.216  11.271  20.729  0.00  0.00    +0.000 NA
ATOM      4  C   UNL     1      -0.375  10.267  21.045  0.00  0.00    +0.000 A 
ATOM      5  C   UNL     1       0.430   9.599  20.114  0.00  0.00    +0.000 A 
ATOM      6  C   UNL     1       1.305   8.508  20.378  0.00  0.00    +0.000 A 
ATOM      7  C   UNL     1       2.050   7.912  19.356  0.00  0.00    +0.000 A 
ATOM      8  C   UNL     1       1.956   8.448  18.071  0.00  0.00    +0.000 A 
ATOM      9  C   UNL     1       1.090   9.515  17.815  0.00  0.00    +0.000 A 
ATOM     10  C   UNL     1       0.310  10.089  18.811  0.00  0.00    +0.000 A 
ATOM     11  N   UNL     1      -0.521  11.084  18.482  0.00  0.00    +0.000 NA
ATOM     12  H   UNL     1      -2.334  13.219  19.879  0.00  0.00    +0.000 HD
ATOM     13  H   UNL     1      -1.847  13.050  18.229  0.00  0.00    +0.000 HD
ENDROOT
BRANCH   4  14
ATOM     14  S   UNL     1      -0.368   9.867  22.784  0.00  0.00    +0.000 S 
ATOM     15  H   UNL     1      -0.730   8.593  22.588  0.00  0.00    +0.000 HD
ENDBRANCH   4  14
BRANCH   7  16
ATOM     16  C   UNL     1       2.899   6.693  19.622  0.00  0.00    +0.000 C 
BRANCH  16  17
ATOM     17  N   UNL     1       2.624   5.637  18.652  0.00  0.00    +0.000 N 
ATOM     18  H   UNL     1       1.707   5.740  18.224  0.00  0.00    +0.000 HD
BRANCH  17  19
ATOM     19  C   UNL     1       3.626   5.369  17.704  0.00  0.00    +0.000 A 
ATOM     20  C   UNL     1       3.816   4.102  17.138  0.00  0.00    +0.000 A 
ATOM     21  C   UNL     1       4.794   3.878  16.163  0.00  0.00    +0.000 A 
ATOM     22  C   UNL     1       5.589   4.930  15.709  0.00  0.00    +0.000 A 
ATOM     23  C   UNL     1       5.362   6.219  16.202  0.00  0.00    +0.000 A 
ATOM     24  C   UNL     1       4.381   6.431  17.183  0.00  0.00    +0.000 A 
BRANCH  22  25
ATOM     25  C   UNL     1       6.607   4.628  14.670  0.00  0.00    +0.000 C 
ATOM     26  O   UNL     1       6.440   3.782  13.808  0.00  0.00    +0.000 OA
BRANCH  25  27
ATOM     27  O   UNL     1       7.752   5.329  14.803  0.00  0.00    +0.000 OA
ATOM     28  H   UNL     1       8.330   5.043  15.532  0.00  0.00    +0.000 HD
ENDBRANCH  25  27
ENDBRANCH  22  25
ENDBRANCH  17  19
ENDBRANCH  16  17
ENDBRANCH   7  16
TORSDOF 6
ENDMDL
MODEL 4
REMARK VINA RESULT:      -7.5      0.396      1.044
REMARK  Name = 
REMARK  6 active torsions:
REMARK  status: ('A' for Active; 'I' for Inactive)
REMARK    1  A    between atoms: C_4  and  S_5
REMARK    2  A    between atoms: C_8  and  C_9
REMARK    3  A    between atoms: C_9  and  N_10
REMARK    4  A    between atoms: N_10  and  C_11
REMARK    5  A    between atoms: C_14  and  C_15
REMARK    6  A    between atoms: C_15  and  O_17
REMARK                            x       y       z     vdW  Elec       q    Type
REMARK                         _______ _______ _______ _____ _____    ______ ____
ROOT
ATOM      1  N   UNL     1      -0.070  13.276  19.771  0.00  0.00    +0.000 N 
ATOM      2  C   UNL     1       0.348  11.973  19.926  0.00  0.00    +0.000 A 
ATOM      3  N   UNL     1       0.117  11.388  21.096  0.00  0.00    +0.000 NA
ATOM      4  C   UNL     1       0.508  10.104  21.210  0.00  0.00    +0.000 A 
ATOM      5  C   UNL     1       1.140   9.385  20.189  0.00  0.00    +0.000 A 
ATOM      6  C   UNL     1       1.538   8.020  20.234  0.00  0.00    +0.000 A 
ATOM      7  C   UNL     1       2.152   7.405  19.137  0.00  0.00    +0.000 A 
ATOM      8  C   UNL     1       2.414   8.181  18.007  0.00  0.00    +0.000 A 
ATOM      9  C   UNL     1       2.014   9.520  17.964  0.00  0.00    +0.000 A 
ATOM     10  C   UNL     1       1.364  10.132  19.029  0.00  0.00    +0.000 A 
ATOM     11  N   UNL     1       0.982  11.406  18.900  0.00  0.00    +0.000 NA
ATOM     12  H   UNL     1      -0.134  13.738  20.666  0.00  0.00    +0.000 HD
ATOM     13  H   UNL     1       0.468  13.731  19.046  0.00  0.00    +0.000 HD
ENDROOT
BRANCH   4  14
ATOM     14  S   UNL     1       0.154   9.394  22.808  0.00  0.00    +0.000 S 
ATOM     15  H   UNL     1      -0.787   8.565  22.336  0.00  0.00    +0.000 HD
ENDBRANCH   4  14
BRANCH   7  16
ATOM     16  C   UNL     1       2.481   5.932  19.153  0.00  0.00    +0.000 C 
BRANCH  16  17
ATOM     17  N   UNL     1       3.914   5.715  19.324  0.00  0.00    +0.000 N 
ATOM     18  H   UNL     1       4.115   5.066  20.082  0.00  0.00    +0.000 HD
BRANCH  17  19
ATOM     19  C   UNL     1       4.655   5.424  18.166  0.00  0.00    +0.000 A 
ATOM     20  C   UNL     1       4.355   4.347  17.323  0.00  0.00    +0.000 A 
ATOM     21  C   UNL     1       5.084   4.111  16.153  0.00  0.00    +0.000 A 
ATOM     22  C   UNL     1       6.118   4.970  15.783  0.00  0.00    +0.000 A 
ATOM     23  C   UNL     1       6.383   6.097  16.568  0.00  0.00    +0.000 A 
ATOM     24  C   UNL     1       5.647   6.322  17.742  0.00  0.00    +0.000 A 
BRANCH  22  25
ATOM     25  C   UNL     1       6.853   4.667  14.528  0.00  0.00    +0.000 C 
ATOM     26  O   UNL     1       7.779   5.350  14.124  0.00  0.00    +0.000 OA
BRANCH  25  27
ATOM     27  O   UNL     1       6.367   3.608  13.849  0.00  0.00    +0.000 OA
ATOM     28  H   UNL     1       7.038   2.997  13.499  0.00  0.00    +0.000 HD
ENDBRANCH  25  27
ENDBRANCH  22  25
ENDBRANCH  17  19
ENDBRANCH  16  17
ENDBRANCH   7  16
TORSDOF 6
ENDMDL
MODEL 5
REMARK VINA RESULT:      -7.4      5.303      8.940
REMARK  Name = 
REMARK  6 active torsions:
REMARK  status: ('A' for Active; 'I' for Inactive)
REMARK    1  A    between atoms: C_4  and  S_5
REMARK    2  A    between atoms: C_8  and  C_9
REMARK    3  A    between atoms: C_9  and  N_10
REMARK    4  A    between atoms: N_10  and  C_11
REMARK    5  A    between atoms: C_14  and  C_15
REMARK    6  A    between atoms: C_15  and  O_17
REMARK                            x       y       z     vdW  Elec       q    Type
REMARK                         _______ _______ _______ _____ _____    ______ ____
ROOT
ATOM      1  N   UNL     1       4.228   0.817  18.245  0.00  0.00    +0.000 N 
ATOM      2  C   UNL     1       3.665   1.998  18.675  0.00  0.00    +0.000 A 
ATOM      3  N   UNL     1       2.934   1.964  19.784  0.00  0.00    +0.000 NA
ATOM      4  C   UNL     1       2.421   3.138  20.199  0.00  0.00    +0.000 A 
ATOM      5  C   UNL     1       2.607   4.353  19.529  0.00  0.00    +0.000 A 
ATOM      6  C   UNL     1       2.128   5.629  19.938  0.00  0.00    +0.000 A 
ATOM      7  C   UNL     1       2.392   6.779  19.187  0.00  0.00    +0.000 A 
ATOM      8  C   UNL     1       3.096   6.639  17.991  0.00  0.00    +0.000 A 
ATOM      9  C   UNL     1       3.572   5.384  17.597  0.00  0.00    +0.000 A 
ATOM     10  C   UNL     1       3.356   4.241  18.354  0.00  0.00    +0.000 A 
ATOM     11  N   UNL     1       3.871   3.082  17.929  0.00  0.00    +0.000 NA
ATOM     12  H   UNL     1       3.701   0.027  18.587  0.00  0.00    +0.000 HD
ATOM     13  H   UNL     1       4.416   0.861  17.253  0.00  0.00    +0.000 HD
ENDROOT
BRANCH   4  14
ATOM     14  S   UNL     1       1.460   3.002  21.696  0.00  0.00    +0.000 S 
ATOM     15  H   UNL     1       2.535   2.940  22.492  0.00  0.00    +0.000 HD
ENDBRANCH   4  14
BRANCH   7  16
ATOM     16  C   UNL     1       1.967   8.142  19.676  0.00  0.00    +0.000 C 
BRANCH  16  17
ATOM     17  N   UNL     1       1.608   8.107  21.089  0.00  0.00    +0.000 N 
ATOM     18  H   UNL     1       2.419   7.964  21.687  0.00  0.00    +0.000 HD
BRANCH  17  19
ATOM     19  C   UNL     1       0.776   9.138  21.560  0.00  0.00    +0.000 A 
ATOM     20  C   UNL     1       0.379  10.217  20.760  0.00  0.00    +0.000 A 
ATOM     21  C   UNL     1      -0.486  11.204  21.245  0.00  0.00    +0.000 A 
ATOM     22  C   UNL     1      -0.999  11.116  22.538  0.00  0.00    +0.000 A 
ATOM     23  C   UNL     1      -0.680  10.005  23.326  0.00  0.00    +0.000 A 
ATOM     24  C   UNL     1       0.192   9.023  22.831  0.00  0.00    +0.000 A 
BRANCH  22  25
ATOM     25  C   UNL     1      -1.915  12.194  22.993  0.00  0.00    +0.000 C 
ATOM     26  O   UNL     1      -3.123  12.045  23.071  0.00  0.00    +0.000 OA
BRANCH  25  27
ATOM     27  O   UNL     1      -1.298  13.365  23.253  0.00  0.00    +0.000 OA
ATOM     28  H   UNL     1      -0.328  13.319  23.312  0.00  0.00    +0.000 HD
ENDBRANCH  25  27
ENDBRANCH  22  25
ENDBRANCH  17  19
ENDBRANCH  16  17
ENDBRANCH   7  16
TORSDOF 6
ENDMDL
MODEL 6
REMARK VINA RESULT:      -7.4      4.723      8.236
REMARK  Name = 
REMARK  6 active torsions:
REMARK  status: ('A' for Active; 'I' for Inactive)
REMARK    1  A    between atoms: C_4  and  S_5
REMARK    2  A    between atoms: C_8  and  C_9
REMARK    3  A    between atoms: C_9  and  N_10
REMARK    4  A    between atoms: N_10  and  C_11
REMARK    5  A    between atoms: C_14  and  C_15
REMARK    6  A    between atoms: C_15  and  O_17
REMARK                            x       y       z     vdW  Elec       q    Type
REMARK                         _______ _______ _______ _____ _____    ______ ____
ROOT
ATOM      1  N   UNL     1       5.314   1.487  20.216  0.00  0.00    +0.000 N 
ATOM      2  C   UNL     1       4.490   2.467  19.708  0.00  0.00    +0.000 A 
ATOM      3  N   UNL     1       3.185   2.220  19.678  0.00  0.00    +0.000 NA
ATOM      4  C   UNL     1       2.400   3.206  19.205  0.00  0.00    +0.000 A 
ATOM      5  C   UNL     1       2.882   4.437  18.744  0.00  0.00    +0.000 A 
ATOM      6  C   UNL     1       2.104   5.530  18.272  0.00  0.00    +0.000 A 
ATOM      7  C   UNL     1       2.704   6.721  17.849  0.00  0.00    +0.000 A 
ATOM      8  C   UNL     1       4.097   6.794  17.851  0.00  0.00    +0.000 A 
ATOM      9  C   UNL     1       4.859   5.720  18.322  0.00  0.00    +0.000 A 
ATOM     10  C   UNL     1       4.275   4.548  18.786  0.00  0.00    +0.000 A 
ATOM     11  N   UNL     1       5.067   3.578  19.254  0.00  0.00    +0.000 NA
ATOM     12  H   UNL     1       4.881   0.579  20.131  0.00  0.00    +0.000 HD
ATOM     13  H   UNL     1       6.251   1.595  19.853  0.00  0.00    +0.000 HD
ENDROOT
BRANCH   4  14
ATOM     14  S   UNL     1       0.664   2.794  19.207  0.00  0.00    +0.000 S 
ATOM     15  H   UNL     1       0.881   1.478  19.335  0.00  0.00    +0.000 HD
ENDBRANCH   4  14
BRANCH   7  16
ATOM     16  C   UNL     1       1.870   7.912  17.445  0.00  0.00    +0.000 C 
BRANCH  16  17
ATOM     17  N   UNL     1       2.224   9.093  18.226  0.00  0.00    +0.000 N 
ATOM     18  H   UNL     1       2.280   9.930  17.651  0.00  0.00    +0.000 HD
BRANCH  17  19
ATOM     19  C   UNL     1       1.502   9.310  19.412  0.00  0.00    +0.000 A 
ATOM     20  C   UNL     1       1.645   8.503  20.547  0.00  0.00    +0.000 A 
ATOM     21  C   UNL     1       0.944   8.773  21.727  0.00  0.00    +0.000 A 
ATOM     22  C   UNL     1       0.101   9.881  21.807  0.00  0.00    +0.000 A 
ATOM     23  C   UNL     1       0.005  10.746  20.712  0.00  0.00    +0.000 A 
ATOM     24  C   UNL     1       0.710  10.463  19.532  0.00  0.00    +0.000 A 
BRANCH  22  25
ATOM     25  C   UNL     1      -0.613  10.115  23.088  0.00  0.00    +0.000 C 
ATOM     26  O   UNL     1      -1.551  10.887  23.190  0.00  0.00    +0.000 OA
BRANCH  25  27
ATOM     27  O   UNL     1      -0.094   9.444  24.137  0.00  0.00    +0.000 OA
ATOM     28  H   UNL     1      -0.717   8.865  24.608  0.00  0.00    +0.000 HD
ENDBRANCH  25  27
ENDBRANCH  22  25
ENDBRANCH  17  19
ENDBRANCH  16  17
ENDBRANCH   7  16
TORSDOF 6
ENDMDL
MODEL 7
REMARK VINA RESULT:      -7.3      4.748      8.434
REMARK  Name = 
REMARK  6 active torsions:
REMARK  status: ('A' for Active; 'I' for Inactive)
REMARK    1  A    between atoms: C_4  and  S_5
REMARK    2  A    between atoms: C_8  and  C_9
REMARK    3  A    between atoms: C_9  and  N_10
REMARK    4  A    between atoms: N_10  and  C_11
REMARK    5  A    between atoms: C_14  and  C_15
REMARK    6  A    between atoms: C_15  and  O_17
REMARK                            x       y       z     vdW  Elec       q    Type
REMARK                         _______ _______ _______ _____ _____    ______ ____
ROOT
ATOM      1  N   UNL     1       5.237   1.471  20.165  0.00  0.00    +0.000 N 
ATOM      2  C   UNL     1       4.494   2.566  19.784  0.00  0.00    +0.000 A 
ATOM      3  N   UNL     1       3.208   2.584  20.119  0.00  0.00    +0.000 NA
ATOM      4  C   UNL     1       2.512   3.680  19.761  0.00  0.00    +0.000 A 
ATOM      5  C   UNL     1       3.061   4.762  19.063  0.00  0.00    +0.000 A 
ATOM      6  C   UNL     1       2.390   5.961  18.694  0.00  0.00    +0.000 A 
ATOM      7  C   UNL     1       3.054   6.982  18.005  0.00  0.00    +0.000 A 
ATOM      8  C   UNL     1       4.384   6.775  17.640  0.00  0.00    +0.000 A 
ATOM      9  C   UNL     1       5.042   5.598  18.011  0.00  0.00    +0.000 A 
ATOM     10  C   UNL     1       4.409   4.595  18.733  0.00  0.00    +0.000 A 
ATOM     11  N   UNL     1       5.113   3.513  19.081  0.00  0.00    +0.000 NA
ATOM     12  H   UNL     1       4.643   0.665  20.292  0.00  0.00    +0.000 HD
ATOM     13  H   UNL     1       6.042   1.369  19.563  0.00  0.00    +0.000 HD
ENDROOT
BRANCH   4  14
ATOM     14  S   UNL     1       0.798   3.624  20.255  0.00  0.00    +0.000 S 
ATOM     15  H   UNL     1       1.078   3.320  21.529  0.00  0.00    +0.000 HD
ENDBRANCH   4  14
BRANCH   7  16
ATOM     16  C   UNL     1       2.367   8.292  17.705  0.00  0.00    +0.000 C 
BRANCH  16  17
ATOM     17  N   UNL     1       1.982   8.979  18.933  0.00  0.00    +0.000 N 
ATOM     18  H   UNL     1       2.754   9.506  19.335  0.00  0.00    +0.000 HD
BRANCH  17  19
ATOM     19  C   UNL     1       0.791   9.726  18.896  0.00  0.00    +0.000 A 
ATOM     20  C   UNL     1      -0.145   9.612  17.861  0.00  0.00    +0.000 A 
ATOM     21  C   UNL     1      -1.341  10.336  17.876  0.00  0.00    +0.000 A 
ATOM     22  C   UNL     1      -1.642  11.174  18.949  0.00  0.00    +0.000 A 
ATOM     23  C   UNL     1      -0.759  11.242  20.032  0.00  0.00    +0.000 A 
ATOM     24  C   UNL     1       0.440  10.513  20.003  0.00  0.00    +0.000 A 
BRANCH  22  25
ATOM     25  C   UNL     1      -2.930  11.914  18.908  0.00  0.00    +0.000 C 
ATOM     26  O   UNL     1      -3.866  11.573  18.205  0.00  0.00    +0.000 OA
BRANCH  25  27
ATOM     27  O   UNL     1      -2.948  13.028  19.670  0.00  0.00    +0.000 OA
ATOM     28  H   UNL     1      -3.754  13.153  20.200  0.00  0.00    +0.000 HD
ENDBRANCH  25  27
ENDBRANCH  22  25
ENDBRANCH  17  19
ENDBRANCH  16  17
ENDBRANCH   7  16
TORSDOF 6
ENDMDL
MODEL 8
REMARK VINA RESULT:      -7.3      2.052      2.917
REMARK  Name = 
REMARK  6 active torsions:
REMARK  status: ('A' for Active; 'I' for Inactive)
REMARK    1  A    between atoms: C_4  and  S_5
REMARK    2  A    between atoms: C_8  and  C_9
REMARK    3  A    between atoms: C_9  and  N_10
REMARK    4  A    between atoms: N_10  and  C_11
REMARK    5  A    between atoms: C_14  and  C_15
REMARK    6  A    between atoms: C_15  and  O_17
REMARK                            x       y       z     vdW  Elec       q    Type
REMARK                         _______ _______ _______ _____ _____    ______ ____
ROOT
ATOM      1  N   UNL     1      -1.500  13.159  23.438  0.00  0.00    +0.000 N 
ATOM      2  C   UNL     1      -0.970  12.409  22.412  0.00  0.00    +0.000 A 
ATOM      3  N   UNL     1      -1.012  12.924  21.188  0.00  0.00    +0.000 NA
ATOM      4  C   UNL     1      -0.461  12.183  20.207  0.00  0.00    +0.000 A 
ATOM      5  C   UNL     1       0.125  10.928  20.411  0.00  0.00    +0.000 A 
ATOM      6  C   UNL     1       0.758  10.119  19.427  0.00  0.00    +0.000 A 
ATOM      7  C   UNL     1       1.322   8.882  19.758  0.00  0.00    +0.000 A 
ATOM      8  C   UNL     1       1.202   8.432  21.073  0.00  0.00    +0.000 A 
ATOM      9  C   UNL     1       0.586   9.234  22.038  0.00  0.00    +0.000 A 
ATOM     10  C   UNL     1       0.060  10.484  21.734  0.00  0.00    +0.000 A 
ATOM     11  N   UNL     1      -0.484  11.208  22.718  0.00  0.00    +0.000 NA
ATOM     12  H   UNL     1      -2.191  13.805  23.086  0.00  0.00    +0.000 HD
ATOM     13  H   UNL     1      -1.766  12.560  24.207  0.00  0.00    +0.000 HD
ENDROOT
BRANCH   4  14
ATOM     14  S   UNL     1      -0.554  12.952  18.600  0.00  0.00    +0.000 S 
ATOM     15  H   UNL     1      -1.149  14.060  19.061  0.00  0.00    +0.000 HD
ENDBRANCH   4  14
BRANCH   7  16
ATOM     16  C   UNL     1       2.079   8.073  18.733  0.00  0.00    +0.000 C 
BRANCH  16  17
ATOM     17  N   UNL     1       2.623   6.853  19.321  0.00  0.00    +0.000 N 
ATOM     18  H   UNL     1       1.899   6.162  19.505  0.00  0.00    +0.000 HD
BRANCH  17  19
ATOM     19  C   UNL     1       3.746   6.290  18.692  0.00  0.00    +0.000 A 
ATOM     20  C   UNL     1       4.193   6.698  17.428  0.00  0.00    +0.000 A 
ATOM     21  C   UNL     1       5.341   6.149  16.849  0.00  0.00    +0.000 A 
ATOM     22  C   UNL     1       6.089   5.194  17.537  0.00  0.00    +0.000 A 
ATOM     23  C   UNL     1       5.707   4.831  18.833  0.00  0.00    +0.000 A 
ATOM     24  C   UNL     1       4.550   5.386  19.403  0.00  0.00    +0.000 A 
BRANCH  22  25
ATOM     25  C   UNL     1       7.300   4.652  16.869  0.00  0.00    +0.000 C 
ATOM     26  O   UNL     1       7.475   4.718  15.664  0.00  0.00    +0.000 OA
BRANCH  25  27
ATOM     27  O   UNL     1       8.156   4.028  17.705  0.00  0.00    +0.000 OA
ATOM     28  H   UNL     1       7.987   4.170  18.652  0.00  0.00    +0.000 HD
ENDBRANCH  25  27
ENDBRANCH  22  25
ENDBRANCH  17  19
ENDBRANCH  16  17
ENDBRANCH   7  16
TORSDOF 6
ENDMDL
MODEL 9
REMARK VINA RESULT:      -7.3      5.389      9.226
REMARK  Name = 
REMARK  6 active torsions:
REMARK  status: ('A' for Active; 'I' for Inactive)
REMARK    1  A    between atoms: C_4  and  S_5
REMARK    2  A    between atoms: C_8  and  C_9
REMARK    3  A    between atoms: C_9  and  N_10
REMARK    4  A    between atoms: N_10  and  C_11
REMARK    5  A    between atoms: C_14  and  C_15
REMARK    6  A    between atoms: C_15  and  O_17
REMARK                            x       y       z     vdW  Elec       q    Type
REMARK                         _______ _______ _______ _____ _____    ______ ____
ROOT
ATOM      1  N   UNL     1       3.931   0.840  18.211  0.00  0.00    +0.000 N 
ATOM      2  C   UNL     1       3.745   2.193  18.388  0.00  0.00    +0.000 A 
ATOM      3  N   UNL     1       4.345   3.014  17.532  0.00  0.00    +0.000 NA
ATOM      4  C   UNL     1       4.122   4.330  17.709  0.00  0.00    +0.000 A 
ATOM      5  C   UNL     1       3.324   4.858  18.730  0.00  0.00    +0.000 A 
ATOM      6  C   UNL     1       3.018   6.231  18.944  0.00  0.00    +0.000 A 
ATOM      7  C   UNL     1       2.191   6.636  19.998  0.00  0.00    +0.000 A 
ATOM      8  C   UNL     1       1.712   5.660  20.873  0.00  0.00    +0.000 A 
ATOM      9  C   UNL     1       2.008   4.311  20.654  0.00  0.00    +0.000 A 
ATOM     10  C   UNL     1       2.791   3.891  19.587  0.00  0.00    +0.000 A 
ATOM     11  N   UNL     1       3.003   2.580  19.424  0.00  0.00    +0.000 NA
ATOM     12  H   UNL     1       4.793   0.661  17.718  0.00  0.00    +0.000 HD
ATOM     13  H   UNL     1       3.778   0.350  19.082  0.00  0.00    +0.000 HD
ENDROOT
BRANCH   4  14
ATOM     14  S   UNL     1       4.958   5.358  16.514  0.00  0.00    +0.000 S 
ATOM     15  H   UNL     1       6.008   4.534  16.401  0.00  0.00    +0.000 HD
ENDBRANCH   4  14
BRANCH   7  16
ATOM     16  C   UNL     1       1.789   8.081  20.160  0.00  0.00    +0.000 C 
BRANCH  16  17
ATOM     17  N   UNL     1       1.409   8.371  21.539  0.00  0.00    +0.000 N 
ATOM     18  H   UNL     1       2.217   8.432  22.154  0.00  0.00    +0.000 HD
BRANCH  17  19
ATOM     19  C   UNL     1       0.507   9.430  21.740  0.00  0.00    +0.000 A 
ATOM     20  C   UNL     1       0.082  10.273  20.706  0.00  0.00    +0.000 A 
ATOM     21  C   UNL     1      -0.851  11.290  20.930  0.00  0.00    +0.000 A 
ATOM     22  C   UNL     1      -1.406  11.468  22.197  0.00  0.00    +0.000 A 
ATOM     23  C   UNL     1      -1.057  10.588  23.226  0.00  0.00    +0.000 A 
ATOM     24  C   UNL     1      -0.116   9.573  22.990  0.00  0.00    +0.000 A 
BRANCH  22  25
ATOM     25  C   UNL     1      -2.394  12.564  22.370  0.00  0.00    +0.000 C 
ATOM     26  O   UNL     1      -2.462  13.518  21.614  0.00  0.00    +0.000 OA
BRANCH  25  27
ATOM     27  O   UNL     1      -3.165  12.440  23.470  0.00  0.00    +0.000 OA
ATOM     28  H   UNL     1      -3.868  13.107  23.561  0.00  0.00    +0.000 HD
ENDBRANCH  25  27
ENDBRANCH  22  25
ENDBRANCH  17  19
ENDBRANCH  16  17
ENDBRANCH   7  16
TORSDOF 6
ENDMDL
