MODEL 1
REMARK VINA RESULT:      -7.6      0.000      0.000
REMARK  Name = 
REMARK  7 active torsions:
REMARK  status: ('A' for Active; 'I' for Inactive)
REMARK    1  A    between atoms: C_1  and  C_2
REMARK    2  A    between atoms: C_2  and  C_3
REMARK    3  A    between atoms: C_3  and  O_4
REMARK    4  A    between atoms: C_3  and  C_5
REMARK    5  A    between atoms: C_11  and  C_12
REMARK    6  A    between atoms: C_11  and  C_13
REMARK    7  A    between atoms: C_17  and  C_18
REMARK                            x       y       z     vdW  Elec       q    Type
REMARK                         _______ _______ _______ _____ _____    ______ ____
ROOT
ATOM      1  C   UNL     1       3.961   4.127  19.491  0.00  0.00    +0.000 C 
ATOM      2  C   UNL     1       4.741   3.035  18.277  0.00  0.00    +0.000 C 
ATOM      3  C   UNL     1       3.797   1.919  18.076  0.00  0.00    +0.000 C 
ATOM      4  C   UNL     1       2.742   2.894  17.621  0.00  0.00    +0.000 C 
ATOM      5  C   UNL     1       3.544   4.417  17.358  0.00  0.00    +0.000 C 
ATOM      6  C   UNL     1       4.683   3.724  16.771  0.00  0.00    +0.000 C 
ATOM      7  C   UNL     1       5.552   4.741  15.960  0.00  0.00    +0.000 C 
ATOM      8  C   UNL     1       5.102   6.233  15.858  0.00  0.00    +0.000 C 
ATOM      9  C   UNL     1       5.468   4.284  14.468  0.00  0.00    +0.000 C 
ATOM     10  C   UNL     1       6.979   4.624  16.458  0.00  0.00    +0.000 C 
ATOM     11  C   UNL     1       7.181   5.330  17.786  0.00  0.00    +0.000 C 
ATOM     12  C   UNL     1       6.113   5.139  18.872  0.00  0.00    +0.000 C 
ATOM     13  C   UNL     1       4.487   5.218  18.605  0.00  0.00    +0.000 C 
ATOM     14  C   UNL     1       4.162   6.709  18.866  0.00  0.00    +0.000 C 
ENDROOT
BRANCH   1  15
ATOM     15  C   UNL     1       2.369   4.729  19.792  0.00  0.00    +0.000 C 
BRANCH  15  17
ATOM     16  C   UNL     1       0.943   2.893  20.935  0.00  0.00    +0.000 C 
ATOM     17  C   UNL     1       0.954   4.080  19.950  0.00  0.00    +0.000 C 
ENDBRANCH  15  17
BRANCH  15  18
ATOM     18  O   UNL     1       2.541   5.593  20.935  0.00  0.00    +0.000 OA
ATOM     19  H   UNL     1       1.712   6.098  21.092  0.00  0.00    +0.000 HD
ENDBRANCH  15  18
ENDBRANCH   1  15
TORSDOF 3
ENDMDL
MODEL 2
REMARK VINA RESULT:      -7.3      1.455      3.125
REMARK  Name = 
REMARK  7 active torsions:
REMARK  status: ('A' for Active; 'I' for Inactive)
REMARK    1  A    between atoms: C_1  and  C_2
REMARK    2  A    between atoms: C_2  and  C_3
REMARK    3  A    between atoms: C_3  and  O_4
REMARK    4  A    between atoms: C_3  and  C_5
REMARK    5  A    between atoms: C_11  and  C_12
REMARK    6  A    between atoms: C_11  and  C_13
REMARK    7  A    between atoms: C_17  and  C_18
REMARK                            x       y       z     vdW  Elec       q    Type
REMARK                         _______ _______ _______ _____ _____    ______ ____
ROOT
ATOM      1  C   UNL     1       2.459   4.585  17.777  0.00  0.00    +0.000 C 
ATOM      2  C   UNL     1       3.245   6.179  17.437  0.00  0.00    +0.000 C 
ATOM      3  C   UNL     1       2.604   7.145  18.351  0.00  0.00    +0.000 C 
ATOM      4  C   UNL     1       3.066   6.332  19.533  0.00  0.00    +0.000 C 
ATOM      5  C   UNL     1       4.226   5.182  18.930  0.00  0.00    +0.000 C 
ATOM      6  C   UNL     1       4.784   6.197  18.048  0.00  0.00    +0.000 C 
ATOM      7  C   UNL     1       6.199   5.742  17.558  0.00  0.00    +0.000 C 
ATOM      8  C   UNL     1       6.797   4.392  18.068  0.00  0.00    +0.000 C 
ATOM      9  C   UNL     1       7.211   6.777  18.146  0.00  0.00    +0.000 C 
ATOM     10  C   UNL     1       6.205   5.816  16.043  0.00  0.00    +0.000 C 
ATOM     11  C   UNL     1       5.478   4.643  15.411  0.00  0.00    +0.000 C 
ATOM     12  C   UNL     1       4.136   4.215  16.020  0.00  0.00    +0.000 C 
ATOM     13  C   UNL     1       3.855   4.052  17.637  0.00  0.00    +0.000 C 
ATOM     14  C   UNL     1       4.191   2.564  17.902  0.00  0.00    +0.000 C 
ENDROOT
BRANCH   1  15
ATOM     15  C   UNL     1       1.948   3.716  19.181  0.00  0.00    +0.000 C 
BRANCH  15  17
ATOM     16  C   UNL     1       1.785   3.086  21.689  0.00  0.00    +0.000 C 
ATOM     17  C   UNL     1       1.424   4.118  20.600  0.00  0.00    +0.000 C 
ENDBRANCH  15  17
BRANCH  15  18
ATOM     18  O   UNL     1       1.001   2.757  18.663  0.00  0.00    +0.000 OA
ATOM     19  H   UNL     1       0.578   2.278  19.410  0.00  0.00    +0.000 HD
ENDBRANCH  15  18
ENDBRANCH   1  15
TORSDOF 3
ENDMDL
MODEL 3
REMARK VINA RESULT:      -7.1      1.720      3.381
REMARK  Name = 
REMARK  7 active torsions:
REMARK  status: ('A' for Active; 'I' for Inactive)
REMARK    1  A    between atoms: C_1  and  C_2
REMARK    2  A    between atoms: C_2  and  C_3
REMARK    3  A    between atoms: C_3  and  O_4
REMARK    4  A    between atoms: C_3  and  C_5
REMARK    5  A    between atoms: C_11  and  C_12
REMARK    6  A    between atoms: C_11  and  C_13
REMARK    7  A    between atoms: C_17  and  C_18
REMARK                            x       y       z     vdW  Elec       q    Type
REMARK                         _______ _______ _______ _____ _____    ______ ____
ROOT
ATOM      1  C   UNL     1       3.441   4.744  17.462  0.00  0.00    +0.000 C 
ATOM      2  C   UNL     1       4.140   5.913  18.654  0.00  0.00    +0.000 C 
ATOM      3  C   UNL     1       3.446   5.649  19.929  0.00  0.00    +0.000 C 
ATOM      4  C   UNL     1       3.948   4.228  19.907  0.00  0.00    +0.000 C 
ATOM      5  C   UNL     1       5.171   4.145  18.670  0.00  0.00    +0.000 C 
ATOM      6  C   UNL     1       5.675   5.451  19.071  0.00  0.00    +0.000 C 
ATOM      7  C   UNL     1       7.113   5.656  18.490  0.00  0.00    +0.000 C 
ATOM      8  C   UNL     1       7.782   4.514  17.660  0.00  0.00    +0.000 C 
ATOM      9  C   UNL     1       8.067   5.748  19.725  0.00  0.00    +0.000 C 
ATOM     10  C   UNL     1       7.119   6.970  17.732  0.00  0.00    +0.000 C 
ATOM     11  C   UNL     1       6.458   6.847  16.372  0.00  0.00    +0.000 C 
ATOM     12  C   UNL     1       5.140   6.068  16.279  0.00  0.00    +0.000 C 
ATOM     13  C   UNL     1       4.864   4.613  17.004  0.00  0.00    +0.000 C 
ATOM     14  C   UNL     1       5.280   3.594  15.914  0.00  0.00    +0.000 C 
ENDROOT
BRANCH   1  15
ATOM     15  C   UNL     1       2.974   3.080  17.468  0.00  0.00    +0.000 C 
BRANCH  15  17
ATOM     16  C   UNL     1       0.876   2.400  18.826  0.00  0.00    +0.000 C 
ATOM     17  C   UNL     1       2.361   2.108  18.530  0.00  0.00    +0.000 C 
ENDBRANCH  15  17
BRANCH  15  18
ATOM     18  O   UNL     1       2.152   2.952  16.288  0.00  0.00    +0.000 OA
ATOM     19  H   UNL     1       2.168   3.796  15.784  0.00  0.00    +0.000 HD
ENDBRANCH  15  18
ENDBRANCH   1  15
TORSDOF 3
ENDMDL
MODEL 4
REMARK VINA RESULT:      -7.0      2.020      5.165
REMARK  Name = 
REMARK  7 active torsions:
REMARK  status: ('A' for Active; 'I' for Inactive)
REMARK    1  A    between atoms: C_1  and  C_2
REMARK    2  A    between atoms: C_2  and  C_3
REMARK    3  A    between atoms: C_3  and  O_4
REMARK    4  A    between atoms: C_3  and  C_5
REMARK    5  A    between atoms: C_11  and  C_12
REMARK    6  A    between atoms: C_11  and  C_13
REMARK    7  A    between atoms: C_17  and  C_18
REMARK                            x       y       z     vdW  Elec       q    Type
REMARK                         _______ _______ _______ _____ _____    ______ ____
ROOT
ATOM      1  C   UNL     1       5.274   3.700  17.887  0.00  0.00    +0.000 C 
ATOM      2  C   UNL     1       5.203   4.777  19.339  0.00  0.00    +0.000 C 
ATOM      3  C   UNL     1       5.988   5.976  18.987  0.00  0.00    +0.000 C 
ATOM      4  C   UNL     1       5.064   6.240  17.826  0.00  0.00    +0.000 C 
ATOM      5  C   UNL     1       3.682   5.201  18.036  0.00  0.00    +0.000 C 
ATOM      6  C   UNL     1       3.698   5.458  19.470  0.00  0.00    +0.000 C 
ATOM      7  C   UNL     1       2.322   5.046  20.089  0.00  0.00    +0.000 C 
ATOM      8  C   UNL     1       1.190   4.497  19.162  0.00  0.00    +0.000 C 
ATOM      9  C   UNL     1       1.679   6.366  20.625  0.00  0.00    +0.000 C 
ATOM     10  C   UNL     1       2.602   4.102  21.242  0.00  0.00    +0.000 C 
ATOM     11  C   UNL     1       2.941   2.701  20.765  0.00  0.00    +0.000 C 
ATOM     12  C   UNL     1       3.905   2.559  19.580  0.00  0.00    +0.000 C 
ATOM     13  C   UNL     1       3.826   3.458  18.199  0.00  0.00    +0.000 C 
ATOM     14  C   UNL     1       2.924   2.602  17.276  0.00  0.00    +0.000 C 
ENDROOT
BRANCH   1  15
ATOM     15  C   UNL     1       5.180   3.902  16.173  0.00  0.00    +0.000 C 
BRANCH  15  17
ATOM     16  C   UNL     1       6.804   4.859  14.396  0.00  0.00    +0.000 C 
ATOM     17  C   UNL     1       5.491   5.069  15.179  0.00  0.00    +0.000 C 
ENDBRANCH  15  17
BRANCH  15  18
ATOM     18  O   UNL     1       5.866   2.742  15.654  0.00  0.00    +0.000 OA
ATOM     19  H   UNL     1       5.459   2.475  14.801  0.00  0.00    +0.000 HD
ENDBRANCH  15  18
ENDBRANCH   1  15
TORSDOF 3
ENDMDL
MODEL 5
REMARK VINA RESULT:      -6.7      1.936      4.559
REMARK  Name = 
REMARK  7 active torsions:
REMARK  status: ('A' for Active; 'I' for Inactive)
REMARK    1  A    between atoms: C_1  and  C_2
REMARK    2  A    between atoms: C_2  and  C_3
REMARK    3  A    between atoms: C_3  and  O_4
REMARK    4  A    between atoms: C_3  and  C_5
REMARK    5  A    between atoms: C_11  and  C_12
REMARK    6  A    between atoms: C_11  and  C_13
REMARK    7  A    between atoms: C_17  and  C_18
REMARK                            x       y       z     vdW  Elec       q    Type
REMARK                         _______ _______ _______ _____ _____    ______ ____
ROOT
ATOM      1  C   UNL     1       4.833   6.029  16.905  0.00  0.00    +0.000 C 
ATOM      2  C   UNL     1       4.374   4.463  16.124  0.00  0.00    +0.000 C 
ATOM      3  C   UNL     1       5.530   4.077  15.290  0.00  0.00    +0.000 C 
ATOM      4  C   UNL     1       6.407   4.062  16.516  0.00  0.00    +0.000 C 
ATOM      5  C   UNL     1       5.347   4.142  17.895  0.00  0.00    +0.000 C 
ATOM      6  C   UNL     1       4.413   3.238  17.238  0.00  0.00    +0.000 C 
ATOM      7  C   UNL     1       3.428   2.644  18.298  0.00  0.00    +0.000 C 
ATOM      8  C   UNL     1       3.586   3.032  19.803  0.00  0.00    +0.000 C 
ATOM      9  C   UNL     1       3.713   1.108  18.338  0.00  0.00    +0.000 C 
ATOM     10  C   UNL     1       2.016   2.896  17.805  0.00  0.00    +0.000 C 
ATOM     11  C   UNL     1       1.581   4.333  18.030  0.00  0.00    +0.000 C 
ATOM     12  C   UNL     1       2.579   5.448  17.694  0.00  0.00    +0.000 C 
ATOM     13  C   UNL     1       4.174   5.431  18.113  0.00  0.00    +0.000 C 
ATOM     14  C   UNL     1       4.183   6.147  19.486  0.00  0.00    +0.000 C 
ENDROOT
BRANCH   1  15
ATOM     15  C   UNL     1       6.249   6.695  17.637  0.00  0.00    +0.000 C 
BRANCH  15  17
ATOM     16  C   UNL     1       7.895   5.860  19.455  0.00  0.00    +0.000 C 
ATOM     17  C   UNL     1       7.685   6.159  17.956  0.00  0.00    +0.000 C 
ENDBRANCH  15  17
BRANCH  15  18
ATOM     18  O   UNL     1       6.436   7.947  16.942  0.00  0.00    +0.000 OA
ATOM     19  H   UNL     1       6.470   8.682  17.594  0.00  0.00    +0.000 HD
ENDBRANCH  15  18
ENDBRANCH   1  15
TORSDOF 3
ENDMDL
MODEL 6
REMARK VINA RESULT:      -6.6      2.042      5.059
REMARK  Name = 
REMARK  7 active torsions:
REMARK  status: ('A' for Active; 'I' for Inactive)
REMARK    1  A    between atoms: C_1  and  C_2
REMARK    2  A    between atoms: C_2  and  C_3
REMARK    3  A    between atoms: C_3  and  O_4
REMARK    4  A    between atoms: C_3  and  C_5
REMARK    5  A    between atoms: C_11  and  C_12
REMARK    6  A    between atoms: C_11  and  C_13
REMARK    7  A    between atoms: C_17  and  C_18
REMARK                            x       y       z     vdW  Elec       q    Type
REMARK                         _______ _______ _______ _____ _____    ______ ____
ROOT
ATOM      1  C   UNL     1       4.129   5.094  17.169  0.00  0.00    +0.000 C 
ATOM      2  C   UNL     1       4.190   3.631  18.233  0.00  0.00    +0.000 C 
ATOM      3  C   UNL     1       5.612   3.450  18.585  0.00  0.00    +0.000 C 
ATOM      4  C   UNL     1       5.631   4.821  19.211  0.00  0.00    +0.000 C 
ATOM      5  C   UNL     1       3.974   5.338  19.343  0.00  0.00    +0.000 C 
ATOM      6  C   UNL     1       3.577   3.991  19.730  0.00  0.00    +0.000 C 
ATOM      7  C   UNL     1       2.159   4.033  20.389  0.00  0.00    +0.000 C 
ATOM      8  C   UNL     1       1.431   5.404  20.569  0.00  0.00    +0.000 C 
ATOM      9  C   UNL     1       2.360   3.587  21.873  0.00  0.00    +0.000 C 
ATOM     10  C   UNL     1       1.284   3.031  19.661  0.00  0.00    +0.000 C 
ATOM     11  C   UNL     1       0.807   3.557  18.320  0.00  0.00    +0.000 C 
ATOM     12  C   UNL     1       1.825   4.278  17.426  0.00  0.00    +0.000 C 
ATOM     13  C   UNL     1       2.894   5.415  17.959  0.00  0.00    +0.000 C 
ATOM     14  C   UNL     1       2.121   6.742  17.760  0.00  0.00    +0.000 C 
ENDROOT
BRANCH   1  15
ATOM     15  C   UNL     1       4.877   6.651  17.138  0.00  0.00    +0.000 C 
BRANCH  15  17
ATOM     16  C   UNL     1       7.464   6.771  17.073  0.00  0.00    +0.000 C 
ATOM     17  C   UNL     1       6.174   7.267  17.760  0.00  0.00    +0.000 C 
ENDBRANCH  15  17
BRANCH  15  18
ATOM     18  O   UNL     1       4.911   6.986  15.734  0.00  0.00    +0.000 OA
ATOM     19  H   UNL     1       5.814   7.288  15.491  0.00  0.00    +0.000 HD
ENDBRANCH  15  18
ENDBRANCH   1  15
TORSDOF 3
ENDMDL
MODEL 7
REMARK VINA RESULT:      -6.6      2.153      5.116
REMARK  Name = 
REMARK  7 active torsions:
REMARK  status: ('A' for Active; 'I' for Inactive)
REMARK    1  A    between atoms: C_1  and  C_2
REMARK    2  A    between atoms: C_2  and  C_3
REMARK    3  A    between atoms: C_3  and  O_4
REMARK    4  A    between atoms: C_3  and  C_5
REMARK    5  A    between atoms: C_11  and  C_12
REMARK    6  A    between atoms: C_11  and  C_13
REMARK    7  A    between atoms: C_17  and  C_18
REMARK                            x       y       z     vdW  Elec       q    Type
REMARK                         _______ _______ _______ _____ _____    ______ ____
ROOT
ATOM      1  C   UNL     1       5.707   4.370  17.299  0.00  0.00    +0.000 C 
ATOM      2  C   UNL     1       5.650   5.907  18.252  0.00  0.00    +0.000 C 
ATOM      3  C   UNL     1       6.563   6.840  17.563  0.00  0.00    +0.000 C 
ATOM      4  C   UNL     1       5.738   6.719  16.307  0.00  0.00    +0.000 C 
ATOM      5  C   UNL     1       4.256   5.921  16.754  0.00  0.00    +0.000 C 
ATOM      6  C   UNL     1       4.211   6.685  17.993  0.00  0.00    +0.000 C 
ATOM      7  C   UNL     1       2.768   6.619  18.594  0.00  0.00    +0.000 C 
ATOM      8  C   UNL     1       1.647   5.843  17.831  0.00  0.00    +0.000 C 
ATOM      9  C   UNL     1       2.219   8.082  18.557  0.00  0.00    +0.000 C 
ATOM     10  C   UNL     1       2.889   6.148  20.030  0.00  0.00    +0.000 C 
ATOM     11  C   UNL     1       3.125   4.651  20.123  0.00  0.00    +0.000 C 
ATOM     12  C   UNL     1       4.140   4.021  19.160  0.00  0.00    +0.000 C 
ATOM     13  C   UNL     1       4.226   4.354  17.547  0.00  0.00    +0.000 C 
ATOM     14  C   UNL     1       3.306   3.280  16.918  0.00  0.00    +0.000 C 
ENDROOT
BRANCH   1  15
ATOM     15  C   UNL     1       5.734   3.934  15.627  0.00  0.00    +0.000 C 
BRANCH  15  17
ATOM     16  C   UNL     1       6.110   3.693  13.075  0.00  0.00    +0.000 C 
ATOM     17  C   UNL     1       6.473   4.472  14.357  0.00  0.00    +0.000 C 
ENDBRANCH  15  17
BRANCH  15  18
ATOM     18  O   UNL     1       5.964   2.509  15.649  0.00  0.00    +0.000 OA
ATOM     19  H   UNL     1       6.706   2.306  16.261  0.00  0.00    +0.000 HD
ENDBRANCH  15  18
ENDBRANCH   1  15
TORSDOF 3
ENDMDL
MODEL 8
REMARK VINA RESULT:      -6.2      2.068      5.037
REMARK  Name = 
REMARK  7 active torsions:
REMARK  status: ('A' for Active; 'I' for Inactive)
REMARK    1  A    between atoms: C_1  and  C_2
REMARK    2  A    between atoms: C_2  and  C_3
REMARK    3  A    between atoms: C_3  and  O_4
REMARK    4  A    between atoms: C_3  and  C_5
REMARK    5  A    between atoms: C_11  and  C_12
REMARK    6  A    between atoms: C_11  and  C_13
REMARK    7  A    between atoms: C_17  and  C_18
REMARK                            x       y       z     vdW  Elec       q    Type
REMARK                         _______ _______ _______ _____ _____    ______ ____
ROOT
ATOM      1  C   UNL     1       4.370   3.537  17.704  0.00  0.00    +0.000 C 
ATOM      2  C   UNL     1       3.593   2.159  18.582  0.00  0.00    +0.000 C 
ATOM      3  C   UNL     1       4.704   1.367  19.148  0.00  0.00    +0.000 C 
ATOM      4  C   UNL     1       5.165   2.573  19.927  0.00  0.00    +0.000 C 
ATOM      5  C   UNL     1       3.887   3.753  19.832  0.00  0.00    +0.000 C 
ATOM      6  C   UNL     1       2.894   2.699  19.983  0.00  0.00    +0.000 C 
ATOM      7  C   UNL     1       1.521   3.330  20.389  0.00  0.00    +0.000 C 
ATOM      8  C   UNL     1       1.413   4.874  20.603  0.00  0.00    +0.000 C 
ATOM      9  C   UNL     1       1.207   2.791  21.822  0.00  0.00    +0.000 C 
ATOM     10  C   UNL     1       0.478   2.830  19.408  0.00  0.00    +0.000 C 
ATOM     11  C   UNL     1       0.552   3.555  18.077  0.00  0.00    +0.000 C 
ATOM     12  C   UNL     1       1.938   3.793  17.463  0.00  0.00    +0.000 C 
ATOM     13  C   UNL     1       3.249   4.336  18.302  0.00  0.00    +0.000 C 
ATOM     14  C   UNL     1       3.162   5.873  18.133  0.00  0.00    +0.000 C 
ENDROOT
BRANCH   1  15
ATOM     15  C   UNL     1       5.690   4.616  17.987  0.00  0.00    +0.000 C 
BRANCH  15  17
ATOM     16  C   UNL     1       7.711   5.918  18.953  0.00  0.00    +0.000 C 
ATOM     17  C   UNL     1       6.367   5.226  19.259  0.00  0.00    +0.000 C 
ENDBRANCH  15  17
BRANCH  15  18
ATOM     18  O   UNL     1       6.761   4.062  17.193  0.00  0.00    +0.000 OA
ATOM     19  H   UNL     1       7.421   4.763  16.996  0.00  0.00    +0.000 HD
ENDBRANCH  15  18
ENDBRANCH   1  15
TORSDOF 3
ENDMDL
MODEL 9
REMARK VINA RESULT:      -6.2      1.873      4.886
REMARK  Name = 
REMARK  7 active torsions:
REMARK  status: ('A' for Active; 'I' for Inactive)
REMARK    1  A    between atoms: C_1  and  C_2
REMARK    2  A    between atoms: C_2  and  C_3
REMARK    3  A    between atoms: C_3  and  O_4
REMARK    4  A    between atoms: C_3  and  C_5
REMARK    5  A    between atoms: C_11  and  C_12
REMARK    6  A    between atoms: C_11  and  C_13
REMARK    7  A    between atoms: C_17  and  C_18
REMARK                            x       y       z     vdW  Elec       q    Type
REMARK                         _______ _______ _______ _____ _____    ______ ____
ROOT
ATOM      1  C   UNL     1       4.785   5.598  19.590  0.00  0.00    +0.000 C 
ATOM      2  C   UNL     1       3.155   6.209  19.094  0.00  0.00    +0.000 C 
ATOM      3  C   UNL     1       3.411   7.306  18.140  0.00  0.00    +0.000 C 
ATOM      4  C   UNL     1       4.147   6.349  17.238  0.00  0.00    +0.000 C 
ATOM      5  C   UNL     1       3.808   4.744  17.822  0.00  0.00    +0.000 C 
ATOM      6  C   UNL     1       2.425   5.123  18.079  0.00  0.00    +0.000 C 
ATOM      7  C   UNL     1       1.553   3.834  18.243  0.00  0.00    +0.000 C 
ATOM      8  C   UNL     1       2.213   2.428  18.083  0.00  0.00    +0.000 C 
ATOM      9  C   UNL     1       0.542   3.844  17.051  0.00  0.00    +0.000 C 
ATOM     10  C   UNL     1       0.805   3.950  19.557  0.00  0.00    +0.000 C 
ATOM     11  C   UNL     1       1.693   3.644  20.749  0.00  0.00    +0.000 C 
ATOM     12  C   UNL     1       3.105   4.245  20.767  0.00  0.00    +0.000 C 
ATOM     13  C   UNL     1       4.133   4.251  19.477  0.00  0.00    +0.000 C 
ATOM     14  C   UNL     1       4.934   2.939  19.662  0.00  0.00    +0.000 C 
ENDROOT
BRANCH   1  15
ATOM     15  C   UNL     1       6.289   5.269  18.806  0.00  0.00    +0.000 C 
BRANCH  15  17
ATOM     16  C   UNL     1       7.691   7.198  17.794  0.00  0.00    +0.000 C 
ATOM     17  C   UNL     1       7.024   5.829  17.544  0.00  0.00    +0.000 C 
ENDBRANCH  15  17
BRANCH  15  18
ATOM     18  O   UNL     1       7.252   5.316  19.882  0.00  0.00    +0.000 OA
ATOM     19  H   UNL     1       7.818   4.513  19.850  0.00  0.00    +0.000 HD
ENDBRANCH  15  18
ENDBRANCH   1  15
TORSDOF 3
ENDMDL
