MODEL 1
REMARK VINA RESULT:      -7.9      0.000      0.000
REMARK  Name = 
REMARK  3 active torsions:
REMARK  status: ('A' for Active; 'I' for Inactive)
REMARK    1  A    between atoms: C_1  and  N_2
REMARK    2  A    between atoms: N_2  and  C_3
REMARK    3  A    between atoms: C_6  and  C_7
REMARK                            x       y       z     vdW  Elec       q    Type
REMARK                         _______ _______ _______ _____ _____    ______ ____
ROOT
ATOM      1  C   UNL     1       4.703   4.240  19.723  0.00  0.00    +0.000 C 
ATOM      2  C   UNL     1       3.177   4.458  19.725  0.00  0.00    +0.000 C 
ATOM      3  C   UNL     1       2.648   4.759  18.326  0.00  0.00    +0.000 C 
ATOM      4  C   UNL     1       3.251   6.063  17.778  0.00  0.00    +0.000 C 
ATOM      5  C   UNL     1       4.762   6.098  17.937  0.00  0.00    +0.000 A 
ATOM      6  C   UNL     1       5.498   7.014  17.161  0.00  0.00    +0.000 A 
ATOM      7  C   UNL     1       6.870   7.164  17.344  0.00  0.00    +0.000 A 
ATOM      8  C   UNL     1       7.525   6.404  18.308  0.00  0.00    +0.000 A 
ATOM      9  C   UNL     1       6.812   5.478  19.072  0.00  0.00    +0.000 A 
ATOM     10  C   UNL     1       5.426   5.306  18.898  0.00  0.00    +0.000 A 
ENDROOT
BRANCH   4  11
ATOM     11  C   UNL     1       2.558   7.281  18.395  0.00  0.00    +0.000 A 
ATOM     12  C   UNL     1       2.192   7.324  19.757  0.00  0.00    +0.000 A 
ATOM     13  C   UNL     1       1.515   8.424  20.284  0.00  0.00    +0.000 A 
ATOM     14  C   UNL     1       1.209   9.492  19.456  0.00  0.00    +0.000 A 
ATOM     15  F   UNL     1       0.555  10.548  19.959  0.00  0.00    +0.000 F 
ATOM     16  C   UNL     1       1.563   9.481  18.113  0.00  0.00    +0.000 A 
ATOM     17  C   UNL     1       2.232   8.378  17.581  0.00  0.00    +0.000 A 
ENDBRANCH   4  11
BRANCH   1  19
ATOM     18  C   UNL     1       4.444   1.804  19.884  0.00  0.00    +0.000 C 
ATOM     19  N   UNL     1       5.097   2.918  19.216  0.00  0.00    +0.000 NA
ATOM     20  H   UNL     1       4.939   2.874  18.212  0.00  0.00    +0.000 HD
ENDBRANCH   1  19
TORSDOF 2
ENDMDL
MODEL 2
REMARK VINA RESULT:      -7.9      1.704      3.816
REMARK  Name = 
REMARK  3 active torsions:
REMARK  status: ('A' for Active; 'I' for Inactive)
REMARK    1  A    between atoms: C_1  and  N_2
REMARK    2  A    between atoms: N_2  and  C_3
REMARK    3  A    between atoms: C_6  and  C_7
REMARK                            x       y       z     vdW  Elec       q    Type
REMARK                         _______ _______ _______ _____ _____    ______ ____
ROOT
ATOM      1  C   UNL     1       3.753   4.403  16.973  0.00  0.00    +0.000 C 
ATOM      2  C   UNL     1       4.252   5.852  17.142  0.00  0.00    +0.000 C 
ATOM      3  C   UNL     1       4.568   6.174  18.599  0.00  0.00    +0.000 C 
ATOM      4  C   UNL     1       3.308   6.066  19.474  0.00  0.00    +0.000 C 
ATOM      5  C   UNL     1       2.560   4.766  19.230  0.00  0.00    +0.000 A 
ATOM      6  C   UNL     1       1.629   4.336  20.195  0.00  0.00    +0.000 A 
ATOM      7  C   UNL     1       0.839   3.211  19.972  0.00  0.00    +0.000 A 
ATOM      8  C   UNL     1       0.965   2.504  18.781  0.00  0.00    +0.000 A 
ATOM      9  C   UNL     1       1.897   2.907  17.822  0.00  0.00    +0.000 A 
ATOM     10  C   UNL     1       2.710   4.036  18.030  0.00  0.00    +0.000 A 
ENDROOT
BRANCH   4  11
ATOM     11  C   UNL     1       2.424   7.304  19.303  0.00  0.00    +0.000 A 
ATOM     12  C   UNL     1       2.274   7.951  18.058  0.00  0.00    +0.000 A 
ATOM     13  C   UNL     1       1.503   9.108  17.939  0.00  0.00    +0.000 A 
ATOM     14  C   UNL     1       0.871   9.620  19.060  0.00  0.00    +0.000 A 
ATOM     15  F   UNL     1       0.133  10.732  18.949  0.00  0.00    +0.000 F 
ATOM     16  C   UNL     1       0.994   9.000  20.297  0.00  0.00    +0.000 A 
ATOM     17  C   UNL     1       1.772   7.848  20.421  0.00  0.00    +0.000 A 
ENDBRANCH   4  11
BRANCH   1  19
ATOM     18  C   UNL     1       5.908   3.643  16.075  0.00  0.00    +0.000 C 
ATOM     19  N   UNL     1       4.835   3.409  17.028  0.00  0.00    +0.000 NA
ATOM     20  H   UNL     1       5.205   3.355  17.974  0.00  0.00    +0.000 HD
ENDBRANCH   1  19
TORSDOF 2
ENDMDL
MODEL 3
REMARK VINA RESULT:      -7.8      0.116      1.114
REMARK  Name = 
REMARK  3 active torsions:
REMARK  status: ('A' for Active; 'I' for Inactive)
REMARK    1  A    between atoms: C_1  and  N_2
REMARK    2  A    between atoms: N_2  and  C_3
REMARK    3  A    between atoms: C_6  and  C_7
REMARK                            x       y       z     vdW  Elec       q    Type
REMARK                         _______ _______ _______ _____ _____    ______ ____
ROOT
ATOM      1  C   UNL     1       4.764   4.206  19.704  0.00  0.00    +0.000 C 
ATOM      2  C   UNL     1       3.231   4.376  19.701  0.00  0.00    +0.000 C 
ATOM      3  C   UNL     1       2.696   4.653  18.300  0.00  0.00    +0.000 C 
ATOM      4  C   UNL     1       3.260   5.973  17.745  0.00  0.00    +0.000 C 
ATOM      5  C   UNL     1       4.769   6.055  17.907  0.00  0.00    +0.000 A 
ATOM      6  C   UNL     1       5.478   6.989  17.127  0.00  0.00    +0.000 A 
ATOM      7  C   UNL     1       6.844   7.182  17.312  0.00  0.00    +0.000 A 
ATOM      8  C   UNL     1       7.520   6.448  18.281  0.00  0.00    +0.000 A 
ATOM      9  C   UNL     1       6.835   5.505  19.050  0.00  0.00    +0.000 A 
ATOM     10  C   UNL     1       5.455   5.289  18.874  0.00  0.00    +0.000 A 
ENDROOT
BRANCH   4  11
ATOM     11  C   UNL     1       2.528   7.172  18.355  0.00  0.00    +0.000 A 
ATOM     12  C   UNL     1       2.200   8.314  17.595  0.00  0.00    +0.000 A 
ATOM     13  C   UNL     1       1.580   9.415  18.186  0.00  0.00    +0.000 A 
ATOM     14  C   UNL     1       1.276   9.378  19.537  0.00  0.00    +0.000 A 
ATOM     15  F   UNL     1       0.684  10.435  20.108  0.00  0.00    +0.000 F 
ATOM     16  C   UNL     1       1.581   8.264  20.309  0.00  0.00    +0.000 A 
ATOM     17  C   UNL     1       2.209   7.164  19.722  0.00  0.00    +0.000 A 
ENDBRANCH   4  11
BRANCH   1  19
ATOM     18  C   UNL     1       4.427   1.774  19.718  0.00  0.00    +0.000 C 
ATOM     19  N   UNL     1       5.200   2.893  19.205  0.00  0.00    +0.000 NA
ATOM     20  H   UNL     1       5.194   2.894  18.187  0.00  0.00    +0.000 HD
ENDBRANCH   1  19
TORSDOF 2
ENDMDL
MODEL 4
REMARK VINA RESULT:      -7.8      1.709      3.682
REMARK  Name = 
REMARK  3 active torsions:
REMARK  status: ('A' for Active; 'I' for Inactive)
REMARK    1  A    between atoms: C_1  and  N_2
REMARK    2  A    between atoms: N_2  and  C_3
REMARK    3  A    between atoms: C_6  and  C_7
REMARK                            x       y       z     vdW  Elec       q    Type
REMARK                         _______ _______ _______ _____ _____    ______ ____
ROOT
ATOM      1  C   UNL     1       3.699   4.389  16.976  0.00  0.00    +0.000 C 
ATOM      2  C   UNL     1       4.233   5.826  17.137  0.00  0.00    +0.000 C 
ATOM      3  C   UNL     1       4.582   6.140  18.588  0.00  0.00    +0.000 C 
ATOM      4  C   UNL     1       3.336   6.059  19.486  0.00  0.00    +0.000 C 
ATOM      5  C   UNL     1       2.555   4.775  19.254  0.00  0.00    +0.000 A 
ATOM      6  C   UNL     1       1.632   4.365  20.235  0.00  0.00    +0.000 A 
ATOM      7  C   UNL     1       0.814   3.258  20.025  0.00  0.00    +0.000 A 
ATOM      8  C   UNL     1       0.903   2.549  18.832  0.00  0.00    +0.000 A 
ATOM      9  C   UNL     1       1.826   2.933  17.857  0.00  0.00    +0.000 A 
ATOM     10  C   UNL     1       2.668   4.044  18.051  0.00  0.00    +0.000 A 
ENDROOT
BRANCH   4  11
ATOM     11  C   UNL     1       2.476   7.316  19.331  0.00  0.00    +0.000 A 
ATOM     12  C   UNL     1       1.783   7.887  20.419  0.00  0.00    +0.000 A 
ATOM     13  C   UNL     1       0.964   9.002  20.242  0.00  0.00    +0.000 A 
ATOM     14  C   UNL     1       0.840   9.559  18.980  0.00  0.00    +0.000 A 
ATOM     15  F   UNL     1       0.051  10.628  18.806  0.00  0.00    +0.000 F 
ATOM     16  C   UNL     1       1.516   9.023  17.891  0.00  0.00    +0.000 A 
ATOM     17  C   UNL     1       2.329   7.902  18.063  0.00  0.00    +0.000 A 
ENDBRANCH   4  11
BRANCH   1  19
ATOM     18  C   UNL     1       5.856   3.622  16.090  0.00  0.00    +0.000 C 
ATOM     19  N   UNL     1       4.760   3.372  17.010  0.00  0.00    +0.000 NA
ATOM     20  H   UNL     1       5.109   3.271  17.961  0.00  0.00    +0.000 HD
ENDBRANCH   1  19
TORSDOF 2
ENDMDL
MODEL 5
REMARK VINA RESULT:      -7.3      3.196      5.832
REMARK  Name = 
REMARK  3 active torsions:
REMARK  status: ('A' for Active; 'I' for Inactive)
REMARK    1  A    between atoms: C_1  and  N_2
REMARK    2  A    between atoms: N_2  and  C_3
REMARK    3  A    between atoms: C_6  and  C_7
REMARK                            x       y       z     vdW  Elec       q    Type
REMARK                         _______ _______ _______ _____ _____    ______ ____
ROOT
ATOM      1  C   UNL     1       1.914   6.406  20.583  0.00  0.00    +0.000 C 
ATOM      2  C   UNL     1       2.876   7.264  19.738  0.00  0.00    +0.000 C 
ATOM      3  C   UNL     1       2.545   7.187  18.251  0.00  0.00    +0.000 C 
ATOM      4  C   UNL     1       2.702   5.750  17.725  0.00  0.00    +0.000 C 
ATOM      5  C   UNL     1       1.995   4.742  18.616  0.00  0.00    +0.000 A 
ATOM      6  C   UNL     1       1.711   3.466  18.091  0.00  0.00    +0.000 A 
ATOM      7  C   UNL     1       1.164   2.470  18.896  0.00  0.00    +0.000 A 
ATOM      8  C   UNL     1       0.897   2.733  20.235  0.00  0.00    +0.000 A 
ATOM      9  C   UNL     1       1.155   3.999  20.765  0.00  0.00    +0.000 A 
ATOM     10  C   UNL     1       1.701   5.022  19.968  0.00  0.00    +0.000 A 
ENDROOT
BRANCH   4  11
ATOM     11  C   UNL     1       4.179   5.415  17.500  0.00  0.00    +0.000 A 
ATOM     12  C   UNL     1       4.811   5.614  16.255  0.00  0.00    +0.000 A 
ATOM     13  C   UNL     1       6.144   5.252  16.062  0.00  0.00    +0.000 A 
ATOM     14  C   UNL     1       6.856   4.698  17.113  0.00  0.00    +0.000 A 
ATOM     15  F   UNL     1       8.136   4.346  16.928  0.00  0.00    +0.000 F 
ATOM     16  C   UNL     1       6.263   4.497  18.352  0.00  0.00    +0.000 A 
ATOM     17  C   UNL     1       4.926   4.851  18.547  0.00  0.00    +0.000 A 
ENDBRANCH   4  11
BRANCH   1  19
ATOM     18  C   UNL     1       0.654   8.381  21.315  0.00  0.00    +0.000 C 
ATOM     19  N   UNL     1       0.598   7.033  20.775  0.00  0.00    +0.000 NA
ATOM     20  H   UNL     1       0.081   7.020  19.899  0.00  0.00    +0.000 HD
ENDBRANCH   1  19
TORSDOF 2
ENDMDL
MODEL 6
REMARK VINA RESULT:      -7.2      3.543      4.842
REMARK  Name = 
REMARK  3 active torsions:
REMARK  status: ('A' for Active; 'I' for Inactive)
REMARK    1  A    between atoms: C_1  and  N_2
REMARK    2  A    between atoms: N_2  and  C_3
REMARK    3  A    between atoms: C_6  and  C_7
REMARK                            x       y       z     vdW  Elec       q    Type
REMARK                         _______ _______ _______ _____ _____    ______ ____
ROOT
ATOM      1  C   UNL     1       6.930   4.359  15.527  0.00  0.00    +0.000 C 
ATOM      2  C   UNL     1       5.488   4.231  14.997  0.00  0.00    +0.000 C 
ATOM      3  C   UNL     1       4.622   5.412  15.422  0.00  0.00    +0.000 C 
ATOM      4  C   UNL     1       4.495   5.481  16.953  0.00  0.00    +0.000 C 
ATOM      5  C   UNL     1       5.847   5.369  17.638  0.00  0.00    +0.000 A 
ATOM      6  C   UNL     1       5.959   5.793  18.976  0.00  0.00    +0.000 A 
ATOM      7  C   UNL     1       7.143   5.613  19.685  0.00  0.00    +0.000 A 
ATOM      8  C   UNL     1       8.231   5.005  19.068  0.00  0.00    +0.000 A 
ATOM      9  C   UNL     1       8.142   4.596  17.736  0.00  0.00    +0.000 A 
ATOM     10  C   UNL     1       6.957   4.775  16.999  0.00  0.00    +0.000 A 
ENDROOT
BRANCH   4  11
ATOM     11  C   UNL     1       3.483   4.448  17.458  0.00  0.00    +0.000 A 
ATOM     12  C   UNL     1       3.792   3.075  17.536  0.00  0.00    +0.000 A 
ATOM     13  C   UNL     1       2.836   2.147  17.951  0.00  0.00    +0.000 A 
ATOM     14  C   UNL     1       1.570   2.587  18.299  0.00  0.00    +0.000 A 
ATOM     15  F   UNL     1       0.649   1.698  18.694  0.00  0.00    +0.000 F 
ATOM     16  C   UNL     1       1.239   3.935  18.239  0.00  0.00    +0.000 A 
ATOM     17  C   UNL     1       2.191   4.864  17.816  0.00  0.00    +0.000 A 
ENDBRANCH   4  11
BRANCH   1  19
ATOM     18  C   UNL     1       7.696   5.122  13.323  0.00  0.00    +0.000 C 
ATOM     19  N   UNL     1       7.743   5.316  14.762  0.00  0.00    +0.000 NA
ATOM     20  H   UNL     1       7.472   6.267  15.003  0.00  0.00    +0.000 HD
ENDBRANCH   1  19
TORSDOF 2
ENDMDL
MODEL 7
REMARK VINA RESULT:      -7.2      3.249      5.788
REMARK  Name = 
REMARK  3 active torsions:
REMARK  status: ('A' for Active; 'I' for Inactive)
REMARK    1  A    between atoms: C_1  and  N_2
REMARK    2  A    between atoms: N_2  and  C_3
REMARK    3  A    between atoms: C_6  and  C_7
REMARK                            x       y       z     vdW  Elec       q    Type
REMARK                         _______ _______ _______ _____ _____    ______ ____
ROOT
ATOM      1  C   UNL     1       2.114   6.381  20.563  0.00  0.00    +0.000 C 
ATOM      2  C   UNL     1       2.936   7.121  19.489  0.00  0.00    +0.000 C 
ATOM      3  C   UNL     1       2.475   6.764  18.079  0.00  0.00    +0.000 C 
ATOM      4  C   UNL     1       2.678   5.266  17.795  0.00  0.00    +0.000 C 
ATOM      5  C   UNL     1       2.124   4.399  18.914  0.00  0.00    +0.000 A 
ATOM      6  C   UNL     1       1.878   3.038  18.649  0.00  0.00    +0.000 A 
ATOM      7  C   UNL     1       1.474   2.176  19.665  0.00  0.00    +0.000 A 
ATOM      8  C   UNL     1       1.314   2.659  20.959  0.00  0.00    +0.000 A 
ATOM      9  C   UNL     1       1.535   4.010  21.233  0.00  0.00    +0.000 A 
ATOM     10  C   UNL     1       1.937   4.901  20.221  0.00  0.00    +0.000 A 
ENDROOT
BRANCH   4  11
ATOM     11  C   UNL     1       4.147   4.969  17.483  0.00  0.00    +0.000 A 
ATOM     12  C   UNL     1       5.135   4.939  18.489  0.00  0.00    +0.000 A 
ATOM     13  C   UNL     1       6.476   4.718  18.172  0.00  0.00    +0.000 A 
ATOM     14  C   UNL     1       6.835   4.515  16.850  0.00  0.00    +0.000 A 
ATOM     15  F   UNL     1       8.122   4.306  16.542  0.00  0.00    +0.000 F 
ATOM     16  C   UNL     1       5.883   4.531  15.839  0.00  0.00    +0.000 A 
ATOM     17  C   UNL     1       4.543   4.761  16.152  0.00  0.00    +0.000 A 
ENDBRANCH   4  11
BRANCH   1  19
ATOM     18  C   UNL     1       0.806   8.334  21.271  0.00  0.00    +0.000 C 
ATOM     19  N   UNL     1       0.783   6.967  20.777  0.00  0.00    +0.000 NA
ATOM     20  H   UNL     1       0.239   6.907  19.919  0.00  0.00    +0.000 HD
ENDBRANCH   1  19
TORSDOF 2
ENDMDL
MODEL 8
REMARK VINA RESULT:      -7.2      3.585      4.905
REMARK  Name = 
REMARK  3 active torsions:
REMARK  status: ('A' for Active; 'I' for Inactive)
REMARK    1  A    between atoms: C_1  and  N_2
REMARK    2  A    between atoms: N_2  and  C_3
REMARK    3  A    between atoms: C_6  and  C_7
REMARK                            x       y       z     vdW  Elec       q    Type
REMARK                         _______ _______ _______ _____ _____    ______ ____
ROOT
ATOM      1  C   UNL     1       6.940   4.341  15.486  0.00  0.00    +0.000 C 
ATOM      2  C   UNL     1       5.504   4.210  14.938  0.00  0.00    +0.000 C 
ATOM      3  C   UNL     1       4.632   5.391  15.352  0.00  0.00    +0.000 C 
ATOM      4  C   UNL     1       4.487   5.462  16.881  0.00  0.00    +0.000 C 
ATOM      5  C   UNL     1       5.831   5.352  17.583  0.00  0.00    +0.000 A 
ATOM      6  C   UNL     1       5.926   5.777  18.922  0.00  0.00    +0.000 A 
ATOM      7  C   UNL     1       7.102   5.600  19.644  0.00  0.00    +0.000 A 
ATOM      8  C   UNL     1       8.198   4.992  19.041  0.00  0.00    +0.000 A 
ATOM      9  C   UNL     1       8.126   4.582  17.709  0.00  0.00    +0.000 A 
ATOM     10  C   UNL     1       6.949   4.758  16.958  0.00  0.00    +0.000 A 
ENDROOT
BRANCH   4  11
ATOM     11  C   UNL     1       3.470   4.428  17.376  0.00  0.00    +0.000 A 
ATOM     12  C   UNL     1       2.159   4.788  17.751  0.00  0.00    +0.000 A 
ATOM     13  C   UNL     1       1.269   3.836  18.247  0.00  0.00    +0.000 A 
ATOM     14  C   UNL     1       1.679   2.518  18.363  0.00  0.00    +0.000 A 
ATOM     15  F   UNL     1       0.827   1.603  18.843  0.00  0.00    +0.000 F 
ATOM     16  C   UNL     1       2.962   2.133  17.995  0.00  0.00    +0.000 A 
ATOM     17  C   UNL     1       3.858   3.085  17.506  0.00  0.00    +0.000 A 
ENDBRANCH   4  11
BRANCH   1  19
ATOM     18  C   UNL     1       7.711   5.118  13.289  0.00  0.00    +0.000 C 
ATOM     19  N   UNL     1       7.761   5.298  14.730  0.00  0.00    +0.000 NA
ATOM     20  H   UNL     1       7.498   6.249  14.980  0.00  0.00    +0.000 HD
ENDBRANCH   1  19
TORSDOF 2
ENDMDL
MODEL 9
REMARK VINA RESULT:      -7.0      3.425      5.036
REMARK  Name = 
REMARK  3 active torsions:
REMARK  status: ('A' for Active; 'I' for Inactive)
REMARK    1  A    between atoms: C_1  and  N_2
REMARK    2  A    between atoms: N_2  and  C_3
REMARK    3  A    between atoms: C_6  and  C_7
REMARK                            x       y       z     vdW  Elec       q    Type
REMARK                         _______ _______ _______ _____ _____    ______ ____
ROOT
ATOM      1  C   UNL     1       6.089   6.851  17.105  0.00  0.00    +0.000 C 
ATOM      2  C   UNL     1       5.548   6.516  18.509  0.00  0.00    +0.000 C 
ATOM      3  C   UNL     1       6.053   5.165  19.003  0.00  0.00    +0.000 C 
ATOM      4  C   UNL     1       5.567   4.027  18.090  0.00  0.00    +0.000 C 
ATOM      5  C   UNL     1       5.816   4.333  16.622  0.00  0.00    +0.000 A 
ATOM      6  C   UNL     1       5.793   3.268  15.700  0.00  0.00    +0.000 A 
ATOM      7  C   UNL     1       5.907   3.506  14.334  0.00  0.00    +0.000 A 
ATOM      8  C   UNL     1       6.044   4.810  13.868  0.00  0.00    +0.000 A 
ATOM      9  C   UNL     1       6.087   5.874  14.771  0.00  0.00    +0.000 A 
ATOM     10  C   UNL     1       5.980   5.656  16.157  0.00  0.00    +0.000 A 
ENDROOT
BRANCH   4  11
ATOM     11  C   UNL     1       4.104   3.684  18.386  0.00  0.00    +0.000 A 
ATOM     12  C   UNL     1       3.043   4.200  17.614  0.00  0.00    +0.000 A 
ATOM     13  C   UNL     1       1.716   3.914  17.936  0.00  0.00    +0.000 A 
ATOM     14  C   UNL     1       1.442   3.104  19.026  0.00  0.00    +0.000 A 
ATOM     15  F   UNL     1       0.168   2.831  19.340  0.00  0.00    +0.000 F 
ATOM     16  C   UNL     1       2.466   2.575  19.801  0.00  0.00    +0.000 A 
ATOM     17  C   UNL     1       3.795   2.866  19.486  0.00  0.00    +0.000 A 
ENDBRANCH   4  11
BRANCH   1  19
ATOM     18  C   UNL     1       7.686   8.608  17.729  0.00  0.00    +0.000 C 
ATOM     19  N   UNL     1       7.488   7.304  17.119  0.00  0.00    +0.000 NA
ATOM     20  H   UNL     1       8.071   6.605  17.573  0.00  0.00    +0.000 HD
ENDBRANCH   1  19
TORSDOF 2
ENDMDL
