MODEL 1
REMARK VINA RESULT:      -7.7      0.000      0.000
REMARK  Name = 
REMARK  9 active torsions:
REMARK  status: ('A' for Active; 'I' for Inactive)
REMARK    1  A    between atoms: C_1  and  C_2
REMARK    2  A    between atoms: C_2  and  C_3
REMARK    3  A    between atoms: C_5  and  N_6
REMARK    4  A    between atoms: C_7  and  C_9
REMARK    5  A    between atoms: C_9  and  C_10
REMARK    6  A    between atoms: C_11  and  C_12
REMARK    7  A    between atoms: N_14  and  C_15
REMARK    8  A    between atoms: C_16  and  C_17
REMARK    9  A    between atoms: C_19  and  C_20
REMARK                            x       y       z     vdW  Elec       q    Type
REMARK                         _______ _______ _______ _____ _____    ______ ____
ROOT
ATOM      1  N   UNL     1       5.849   4.979  16.175  0.00  0.00    +0.000 N 
ATOM      2  C   UNL     1       6.681   4.814  17.266  0.00  0.00    +0.000 C 
ATOM      3  O   UNL     1       7.832   4.392  17.213  0.00  0.00    +0.000 OA
ATOM      4  H   UNL     1       5.145   5.700  16.242  0.00  0.00    +0.000 HD
ENDROOT
BRANCH   1   7
ATOM      5  C   UNL     1       6.149   3.645  12.788  0.00  0.00    +0.000 A 
ATOM      6  C   UNL     1       5.634   3.797  14.059  0.00  0.00    +0.000 A 
ATOM      7  C   UNL     1       6.248   4.740  14.857  0.00  0.00    +0.000 A 
ATOM      8  N   UNL     1       7.264   5.509  14.440  0.00  0.00    +0.000 NA
ATOM      9  C   UNL     1       7.752   5.232  13.219  0.00  0.00    +0.000 A 
ATOM     10  C   UNL     1       9.018   5.914  12.802  0.00  0.00    +0.000 C 
ATOM     11  N   UNL     1       7.226   4.338  12.365  0.00  0.00    +0.000 NA
BRANCH   5  13
ATOM     12  C   UNL     1       4.206   3.118  11.300  0.00  0.00    +0.000 C 
ATOM     13  C   UNL     1       5.555   2.652  11.824  0.00  0.00    +0.000 C 
ENDBRANCH   5  13
ENDBRANCH   1   7
BRANCH   2  14
ATOM     14  C   UNL     1       6.030   5.191  18.588  0.00  0.00    +0.000 C 
BRANCH  14  15
ATOM     15  C   UNL     1       4.550   4.986  18.616  0.00  0.00    +0.000 A 
ATOM     16  C   UNL     1       3.531   5.912  18.255  0.00  0.00    +0.000 A 
ATOM     17  C   UNL     1       3.667   7.289  17.704  0.00  0.00    +0.000 C 
ATOM     18  N   UNL     1       2.309   5.433  18.485  0.00  0.00    +0.000 NA
ATOM     19  N   UNL     1       2.522   4.214  19.001  0.00  0.00    +0.000 N 
ATOM     20  C   UNL     1       1.380   3.437  19.434  0.00  0.00    +0.000 C 
ATOM     21  C   UNL     1       3.845   3.876  19.082  0.00  0.00    +0.000 A 
ATOM     22  C   UNL     1       4.320   2.575  19.620  0.00  0.00    +0.000 C 
ENDBRANCH  14  15
ENDBRANCH   2  14
TORSDOF 4
ENDMDL
MODEL 2
REMARK VINA RESULT:      -7.5      1.229      1.229
REMARK  Name = 
REMARK  9 active torsions:
REMARK  status: ('A' for Active; 'I' for Inactive)
REMARK    1  A    between atoms: C_1  and  C_2
REMARK    2  A    between atoms: C_2  and  C_3
REMARK    3  A    between atoms: C_5  and  N_6
REMARK    4  A    between atoms: C_7  and  C_9
REMARK    5  A    between atoms: C_9  and  C_10
REMARK    6  A    between atoms: C_11  and  C_12
REMARK    7  A    between atoms: N_14  and  C_15
REMARK    8  A    between atoms: C_16  and  C_17
REMARK    9  A    between atoms: C_19  and  C_20
REMARK                            x       y       z     vdW  Elec       q    Type
REMARK                         _______ _______ _______ _____ _____    ______ ____
ROOT
ATOM      1  N   UNL     1       6.402   4.591  16.508  0.00  0.00    +0.000 N 
ATOM      2  C   UNL     1       5.333   5.229  17.106  0.00  0.00    +0.000 C 
ATOM      3  O   UNL     1       4.453   5.837  16.506  0.00  0.00    +0.000 OA
ATOM      4  H   UNL     1       6.791   3.796  16.994  0.00  0.00    +0.000 HD
ENDROOT
BRANCH   1   7
ATOM      5  C   UNL     1       6.165   3.622  12.993  0.00  0.00    +0.000 A 
ATOM      6  C   UNL     1       5.873   3.616  14.342  0.00  0.00    +0.000 A 
ATOM      7  C   UNL     1       6.576   4.509  15.122  0.00  0.00    +0.000 A 
ATOM      8  N   UNL     1       7.472   5.375  14.627  0.00  0.00    +0.000 NA
ATOM      9  C   UNL     1       7.751   5.251  13.319  0.00  0.00    +0.000 A 
ATOM     10  C   UNL     1       8.896   6.045  12.771  0.00  0.00    +0.000 C 
ATOM     11  N   UNL     1       7.122   4.416  12.473  0.00  0.00    +0.000 NA
BRANCH   5  13
ATOM     12  C   UNL     1       4.234   3.359  11.422  0.00  0.00    +0.000 C 
ATOM     13  C   UNL     1       5.454   2.697  12.041  0.00  0.00    +0.000 C 
ENDBRANCH   5  13
ENDBRANCH   1   7
BRANCH   2  14
ATOM     14  C   UNL     1       5.343   5.134  18.624  0.00  0.00    +0.000 C 
BRANCH  14  15
ATOM     15  C   UNL     1       4.019   4.774  19.218  0.00  0.00    +0.000 A 
ATOM     16  C   UNL     1       2.912   5.633  19.473  0.00  0.00    +0.000 A 
ATOM     17  C   UNL     1       2.757   7.082  19.166  0.00  0.00    +0.000 C 
ATOM     18  N   UNL     1       1.917   5.001  20.094  0.00  0.00    +0.000 NA
ATOM     19  N   UNL     1       2.367   3.748  20.256  0.00  0.00    +0.000 N 
ATOM     20  C   UNL     1       1.540   2.803  20.974  0.00  0.00    +0.000 C 
ATOM     21  C   UNL     1       3.613   3.542  19.729  0.00  0.00    +0.000 A 
ATOM     22  C   UNL     1       4.313   2.233  19.789  0.00  0.00    +0.000 C 
ENDBRANCH  14  15
ENDBRANCH   2  14
TORSDOF 4
ENDMDL
MODEL 3
REMARK VINA RESULT:      -7.4      1.521      2.109
REMARK  Name = 
REMARK  9 active torsions:
REMARK  status: ('A' for Active; 'I' for Inactive)
REMARK    1  A    between atoms: C_1  and  C_2
REMARK    2  A    between atoms: C_2  and  C_3
REMARK    3  A    between atoms: C_5  and  N_6
REMARK    4  A    between atoms: C_7  and  C_9
REMARK    5  A    between atoms: C_9  and  C_10
REMARK    6  A    between atoms: C_11  and  C_12
REMARK    7  A    between atoms: N_14  and  C_15
REMARK    8  A    between atoms: C_16  and  C_17
REMARK    9  A    between atoms: C_19  and  C_20
REMARK                            x       y       z     vdW  Elec       q    Type
REMARK                         _______ _______ _______ _____ _____    ______ ____
ROOT
ATOM      1  N   UNL     1       5.703   5.334  15.886  0.00  0.00    +0.000 N 
ATOM      2  C   UNL     1       4.984   6.493  16.106  0.00  0.00    +0.000 C 
ATOM      3  O   UNL     1       4.739   7.340  15.252  0.00  0.00    +0.000 OA
ATOM      4  H   UNL     1       5.484   4.542  16.473  0.00  0.00    +0.000 HD
ENDROOT
BRANCH   1   7
ATOM      5  C   UNL     1       6.181   3.686  12.661  0.00  0.00    +0.000 A 
ATOM      6  C   UNL     1       5.577   3.984  13.865  0.00  0.00    +0.000 A 
ATOM      7  C   UNL     1       6.190   4.953  14.632  0.00  0.00    +0.000 A 
ATOM      8  N   UNL     1       7.290   5.614  14.243  0.00  0.00    +0.000 NA
ATOM      9  C   UNL     1       7.854   5.198  13.097  0.00  0.00    +0.000 A 
ATOM     10  C   UNL     1       9.196   5.756  12.737  0.00  0.00    +0.000 C 
ATOM     11  N   UNL     1       7.337   4.267  12.277  0.00  0.00    +0.000 NA
BRANCH   5  13
ATOM     12  C   UNL     1       4.215   3.052  11.249  0.00  0.00    +0.000 C 
ATOM     13  C   UNL     1       5.598   2.652  11.735  0.00  0.00    +0.000 C 
ENDBRANCH   5  13
ENDBRANCH   1   7
BRANCH   2  14
ATOM     14  C   UNL     1       4.520   6.655  17.545  0.00  0.00    +0.000 C 
BRANCH  14  15
ATOM     15  C   UNL     1       4.548   5.389  18.339  0.00  0.00    +0.000 A 
ATOM     16  C   UNL     1       5.625   4.861  19.105  0.00  0.00    +0.000 A 
ATOM     17  C   UNL     1       6.969   5.448  19.365  0.00  0.00    +0.000 C 
ATOM     18  N   UNL     1       5.340   3.664  19.617  0.00  0.00    +0.000 NA
ATOM     19  N   UNL     1       4.098   3.404  19.183  0.00  0.00    +0.000 N 
ATOM     20  C   UNL     1       3.505   2.125  19.509  0.00  0.00    +0.000 C 
ATOM     21  C   UNL     1       3.558   4.412  18.432  0.00  0.00    +0.000 A 
ATOM     22  C   UNL     1       2.194   4.347  17.846  0.00  0.00    +0.000 C 
ENDBRANCH  14  15
ENDBRANCH   2  14
TORSDOF 4
ENDMDL
MODEL 4
REMARK VINA RESULT:      -7.2      1.252      2.171
REMARK  Name = 
REMARK  9 active torsions:
REMARK  status: ('A' for Active; 'I' for Inactive)
REMARK    1  A    between atoms: C_1  and  C_2
REMARK    2  A    between atoms: C_2  and  C_3
REMARK    3  A    between atoms: C_5  and  N_6
REMARK    4  A    between atoms: C_7  and  C_9
REMARK    5  A    between atoms: C_9  and  C_10
REMARK    6  A    between atoms: C_11  and  C_12
REMARK    7  A    between atoms: N_14  and  C_15
REMARK    8  A    between atoms: C_16  and  C_17
REMARK    9  A    between atoms: C_19  and  C_20
REMARK                            x       y       z     vdW  Elec       q    Type
REMARK                         _______ _______ _______ _____ _____    ______ ____
ROOT
ATOM      1  N   UNL     1       6.593   4.263  16.406  0.00  0.00    +0.000 N 
ATOM      2  C   UNL     1       5.469   4.671  17.096  0.00  0.00    +0.000 C 
ATOM      3  O   UNL     1       4.465   5.154  16.581  0.00  0.00    +0.000 OA
ATOM      4  H   UNL     1       7.138   3.520  16.818  0.00  0.00    +0.000 HD
ENDROOT
BRANCH   1   7
ATOM      5  C   UNL     1       6.202   3.561  12.842  0.00  0.00    +0.000 A 
ATOM      6  C   UNL     1       5.981   3.441  14.199  0.00  0.00    +0.000 A 
ATOM      7  C   UNL     1       6.698   4.294  15.012  0.00  0.00    +0.000 A 
ATOM      8  N   UNL     1       7.542   5.224  14.542  0.00  0.00    +0.000 NA
ATOM      9  C   UNL     1       7.757   5.210  13.217  0.00  0.00    +0.000 A 
ATOM     10  C   UNL     1       8.850   6.080  12.678  0.00  0.00    +0.000 C 
ATOM     11  N   UNL     1       7.109   4.424  12.339  0.00  0.00    +0.000 NA
BRANCH   5  13
ATOM     12  C   UNL     1       4.163   3.325  11.411  0.00  0.00    +0.000 C 
ATOM     13  C   UNL     1       5.470   2.690  11.856  0.00  0.00    +0.000 C 
ENDBRANCH   5  13
ENDBRANCH   1   7
BRANCH   2  14
ATOM     14  C   UNL     1       5.582   4.490  18.602  0.00  0.00    +0.000 C 
BRANCH  14  15
ATOM     15  C   UNL     1       4.311   4.057  19.259  0.00  0.00    +0.000 A 
ATOM     16  C   UNL     1       3.911   2.736  19.605  0.00  0.00    +0.000 A 
ATOM     17  C   UNL     1       4.663   1.458  19.462  0.00  0.00    +0.000 C 
ATOM     18  N   UNL     1       2.673   2.697  20.099  0.00  0.00    +0.000 NA
ATOM     19  N   UNL     1       2.262   3.973  20.068  0.00  0.00    +0.000 N 
ATOM     20  C   UNL     1       0.908   4.274  20.479  0.00  0.00    +0.000 C 
ATOM     21  C   UNL     1       3.209   4.842  19.598  0.00  0.00    +0.000 A 
ATOM     22  C   UNL     1       2.978   6.304  19.473  0.00  0.00    +0.000 C 
ENDBRANCH  14  15
ENDBRANCH   2  14
TORSDOF 4
ENDMDL
MODEL 5
REMARK VINA RESULT:      -7.1      0.632      1.880
REMARK  Name = 
REMARK  9 active torsions:
REMARK  status: ('A' for Active; 'I' for Inactive)
REMARK    1  A    between atoms: C_1  and  C_2
REMARK    2  A    between atoms: C_2  and  C_3
REMARK    3  A    between atoms: C_5  and  N_6
REMARK    4  A    between atoms: C_7  and  C_9
REMARK    5  A    between atoms: C_9  and  C_10
REMARK    6  A    between atoms: C_11  and  C_12
REMARK    7  A    between atoms: N_14  and  C_15
REMARK    8  A    between atoms: C_16  and  C_17
REMARK    9  A    between atoms: C_19  and  C_20
REMARK                            x       y       z     vdW  Elec       q    Type
REMARK                         _______ _______ _______ _____ _____    ______ ____
ROOT
ATOM      1  N   UNL     1       6.075   4.762  16.204  0.00  0.00    +0.000 N 
ATOM      2  C   UNL     1       6.978   4.577  17.233  0.00  0.00    +0.000 C 
ATOM      3  O   UNL     1       8.139   4.206  17.091  0.00  0.00    +0.000 OA
ATOM      4  H   UNL     1       5.350   5.449  16.350  0.00  0.00    +0.000 HD
ENDROOT
BRANCH   1   7
ATOM      5  C   UNL     1       6.223   3.607  12.741  0.00  0.00    +0.000 A 
ATOM      6  C   UNL     1       5.783   3.673  14.048  0.00  0.00    +0.000 A 
ATOM      7  C   UNL     1       6.401   4.605  14.853  0.00  0.00    +0.000 A 
ATOM      8  N   UNL     1       7.354   5.442  14.415  0.00  0.00    +0.000 NA
ATOM      9  C   UNL     1       7.776   5.249  13.155  0.00  0.00    +0.000 A 
ATOM     10  C   UNL     1       8.981   6.010  12.698  0.00  0.00    +0.000 C 
ATOM     11  N   UNL     1       7.239   4.371  12.290  0.00  0.00    +0.000 NA
BRANCH   5  13
ATOM     12  C   UNL     1       4.255   3.103  11.280  0.00  0.00    +0.000 C 
ATOM     13  C   UNL     1       5.617   2.633  11.766  0.00  0.00    +0.000 C 
ENDBRANCH   5  13
ENDBRANCH   1   7
BRANCH   2  14
ATOM     14  C   UNL     1       6.396   4.859  18.609  0.00  0.00    +0.000 C 
BRANCH  14  15
ATOM     15  C   UNL     1       4.918   4.653  18.697  0.00  0.00    +0.000 A 
ATOM     16  C   UNL     1       4.221   3.520  19.205  0.00  0.00    +0.000 A 
ATOM     17  C   UNL     1       4.768   2.283  19.829  0.00  0.00    +0.000 C 
ATOM     18  N   UNL     1       2.902   3.630  19.053  0.00  0.00    +0.000 NA
ATOM     19  N   UNL     1       2.734   4.813  18.444  0.00  0.00    +0.000 N 
ATOM     20  C   UNL     1       1.396   5.212  18.064  0.00  0.00    +0.000 C 
ATOM     21  C   UNL     1       3.905   5.487  18.226  0.00  0.00    +0.000 A 
ATOM     22  C   UNL     1       3.965   6.817  17.566  0.00  0.00    +0.000 C 
ENDBRANCH  14  15
ENDBRANCH   2  14
TORSDOF 4
ENDMDL
MODEL 6
REMARK VINA RESULT:      -7.0      4.526      8.222
REMARK  Name = 
REMARK  9 active torsions:
REMARK  status: ('A' for Active; 'I' for Inactive)
REMARK    1  A    between atoms: C_1  and  C_2
REMARK    2  A    between atoms: C_2  and  C_3
REMARK    3  A    between atoms: C_5  and  N_6
REMARK    4  A    between atoms: C_7  and  C_9
REMARK    5  A    between atoms: C_9  and  C_10
REMARK    6  A    between atoms: C_11  and  C_12
REMARK    7  A    between atoms: N_14  and  C_15
REMARK    8  A    between atoms: C_16  and  C_17
REMARK    9  A    between atoms: C_19  and  C_20
REMARK                            x       y       z     vdW  Elec       q    Type
REMARK                         _______ _______ _______ _____ _____    ______ ____
ROOT
ATOM      1  N   UNL     1       2.075   8.605  18.233  0.00  0.00    +0.000 N 
ATOM      2  C   UNL     1       2.531   7.425  18.789  0.00  0.00    +0.000 C 
ATOM      3  O   UNL     1       2.135   6.949  19.849  0.00  0.00    +0.000 OA
ATOM      4  H   UNL     1       2.115   8.682  17.228  0.00  0.00    +0.000 HD
ENDROOT
BRANCH   1   7
ATOM      5  C   UNL     1      -0.051  10.478  20.539  0.00  0.00    +0.000 A 
ATOM      6  C   UNL     1       1.038   9.744  20.117  0.00  0.00    +0.000 A 
ATOM      7  C   UNL     1       1.048   9.374  18.789  0.00  0.00    +0.000 A 
ATOM      8  N   UNL     1       0.089   9.724  17.919  0.00  0.00    +0.000 NA
ATOM      9  C   UNL     1      -0.971  10.366  18.437  0.00  0.00    +0.000 A 
ATOM     10  C   UNL     1      -2.158  10.582  17.550  0.00  0.00    +0.000 C 
ATOM     11  N   UNL     1      -1.077  10.773  19.714  0.00  0.00    +0.000 NA
BRANCH   5  13
ATOM     12  C   UNL     1      -0.502   9.798  22.904  0.00  0.00    +0.000 C 
ATOM     13  C   UNL     1      -0.168  10.945  21.966  0.00  0.00    +0.000 C 
ENDBRANCH   5  13
ENDBRANCH   1   7
BRANCH   2  14
ATOM     14  C   UNL     1       3.617   6.748  17.968  0.00  0.00    +0.000 C 
BRANCH  14  15
ATOM     15  C   UNL     1       3.892   5.335  18.372  0.00  0.00    +0.000 A 
ATOM     16  C   UNL     1       5.091   4.799  18.921  0.00  0.00    +0.000 A 
ATOM     17  C   UNL     1       6.351   5.503  19.290  0.00  0.00    +0.000 C 
ATOM     18  N   UNL     1       5.025   3.478  19.084  0.00  0.00    +0.000 NA
ATOM     19  N   UNL     1       3.804   3.149  18.637  0.00  0.00    +0.000 N 
ATOM     20  C   UNL     1       3.432   1.751  18.610  0.00  0.00    +0.000 C 
ATOM     21  C   UNL     1       3.065   4.222  18.220  0.00  0.00    +0.000 A 
ATOM     22  C   UNL     1       1.684   4.099  17.686  0.00  0.00    +0.000 C 
ENDBRANCH  14  15
ENDBRANCH   2  14
TORSDOF 4
ENDMDL
MODEL 7
REMARK VINA RESULT:      -7.0      3.845      8.029
REMARK  Name = 
REMARK  9 active torsions:
REMARK  status: ('A' for Active; 'I' for Inactive)
REMARK    1  A    between atoms: C_1  and  C_2
REMARK    2  A    between atoms: C_2  and  C_3
REMARK    3  A    between atoms: C_5  and  N_6
REMARK    4  A    between atoms: C_7  and  C_9
REMARK    5  A    between atoms: C_9  and  C_10
REMARK    6  A    between atoms: C_11  and  C_12
REMARK    7  A    between atoms: N_14  and  C_15
REMARK    8  A    between atoms: C_16  and  C_17
REMARK    9  A    between atoms: C_19  and  C_20
REMARK                            x       y       z     vdW  Elec       q    Type
REMARK                         _______ _______ _______ _____ _____    ______ ____
ROOT
ATOM      1  N   UNL     1       2.743   6.468  20.347  0.00  0.00    +0.000 N 
ATOM      2  C   UNL     1       2.309   5.157  20.313  0.00  0.00    +0.000 C 
ATOM      3  O   UNL     1       1.138   4.802  20.411  0.00  0.00    +0.000 OA
ATOM      4  H   UNL     1       3.591   6.682  19.842  0.00  0.00    +0.000 HD
ENDROOT
BRANCH   1   7
ATOM      5  C   UNL     1       0.352   8.965  21.527  0.00  0.00    +0.000 A 
ATOM      6  C   UNL     1       1.191   7.871  21.589  0.00  0.00    +0.000 A 
ATOM      7  C   UNL     1       1.881   7.565  20.435  0.00  0.00    +0.000 A 
ATOM      8  N   UNL     1       1.793   8.290  19.310  0.00  0.00    +0.000 NA
ATOM      9  C   UNL     1       0.890   9.284  19.317  0.00  0.00    +0.000 A 
ATOM     10  C   UNL     1       0.604   9.977  18.021  0.00  0.00    +0.000 C 
ATOM     11  N   UNL     1       0.172   9.664  20.388  0.00  0.00    +0.000 NA
BRANCH   5  13
ATOM     12  C   UNL     1      -0.727  10.894  22.702  0.00  0.00    +0.000 C 
ATOM     13  C   UNL     1      -0.445   9.400  22.728  0.00  0.00    +0.000 C 
ENDBRANCH   5  13
ENDBRANCH   1   7
BRANCH   2  14
ATOM     14  C   UNL     1       3.437   4.148  20.160  0.00  0.00    +0.000 C 
BRANCH  14  15
ATOM     15  C   UNL     1       4.108   4.185  18.825  0.00  0.00    +0.000 A 
ATOM     16  C   UNL     1       3.649   3.624  17.599  0.00  0.00    +0.000 A 
ATOM     17  C   UNL     1       2.372   2.915  17.311  0.00  0.00    +0.000 C 
ATOM     18  N   UNL     1       4.538   3.765  16.617  0.00  0.00    +0.000 NA
ATOM     19  N   UNL     1       5.571   4.399  17.190  0.00  0.00    +0.000 N 
ATOM     20  C   UNL     1       6.756   4.647  16.399  0.00  0.00    +0.000 C 
ATOM     21  C   UNL     1       5.364   4.702  18.509  0.00  0.00    +0.000 A 
ATOM     22  C   UNL     1       6.369   5.403  19.349  0.00  0.00    +0.000 C 
ENDBRANCH  14  15
ENDBRANCH   2  14
TORSDOF 4
ENDMDL
MODEL 8
REMARK VINA RESULT:      -6.9      3.798      7.901
REMARK  Name = 
REMARK  9 active torsions:
REMARK  status: ('A' for Active; 'I' for Inactive)
REMARK    1  A    between atoms: C_1  and  C_2
REMARK    2  A    between atoms: C_2  and  C_3
REMARK    3  A    between atoms: C_5  and  N_6
REMARK    4  A    between atoms: C_7  and  C_9
REMARK    5  A    between atoms: C_9  and  C_10
REMARK    6  A    between atoms: C_11  and  C_12
REMARK    7  A    between atoms: N_14  and  C_15
REMARK    8  A    between atoms: C_16  and  C_17
REMARK    9  A    between atoms: C_19  and  C_20
REMARK                            x       y       z     vdW  Elec       q    Type
REMARK                         _______ _______ _______ _____ _____    ______ ____
ROOT
ATOM      1  N   UNL     1       2.643   6.755  20.320  0.00  0.00    +0.000 N 
ATOM      2  C   UNL     1       2.244   5.432  20.308  0.00  0.00    +0.000 C 
ATOM      3  O   UNL     1       1.082   5.049  20.408  0.00  0.00    +0.000 OA
ATOM      4  H   UNL     1       3.488   6.982  19.815  0.00  0.00    +0.000 HD
ENDROOT
BRANCH   1   7
ATOM      5  C   UNL     1       0.575   9.651  19.497  0.00  0.00    +0.000 A 
ATOM      6  C   UNL     1       1.447   8.604  19.284  0.00  0.00    +0.000 A 
ATOM      7  C   UNL     1       1.752   7.830  20.384  0.00  0.00    +0.000 A 
ATOM      8  N   UNL     1       1.220   8.033  21.599  0.00  0.00    +0.000 NA
ATOM      9  C   UNL     1       0.448   9.125  21.730  0.00  0.00    +0.000 A 
ATOM     10  C   UNL     1       0.012   9.510  23.109  0.00  0.00    +0.000 C 
ATOM     11  N   UNL     1       0.089   9.939  20.722  0.00  0.00    +0.000 NA
BRANCH   5  13
ATOM     12  C   UNL     1      -1.219  10.205  17.843  0.00  0.00    +0.000 C 
ATOM     13  C   UNL     1       0.162  10.559  18.369  0.00  0.00    +0.000 C 
ENDBRANCH   5  13
ENDBRANCH   1   7
BRANCH   2  14
ATOM     14  C   UNL     1       3.398   4.451  20.179  0.00  0.00    +0.000 C 
BRANCH  14  15
ATOM     15  C   UNL     1       4.034   4.436  18.826  0.00  0.00    +0.000 A 
ATOM     16  C   UNL     1       3.492   3.931  17.610  0.00  0.00    +0.000 A 
ATOM     17  C   UNL     1       2.147   3.347  17.353  0.00  0.00    +0.000 C 
ATOM     18  N   UNL     1       4.365   3.996  16.605  0.00  0.00    +0.000 NA
ATOM     19  N   UNL     1       5.467   4.525  17.154  0.00  0.00    +0.000 N 
ATOM     20  C   UNL     1       6.649   4.668  16.332  0.00  0.00    +0.000 C 
ATOM     21  C   UNL     1       5.324   4.835  18.479  0.00  0.00    +0.000 A 
ATOM     22  C   UNL     1       6.413   5.432  19.295  0.00  0.00    +0.000 C 
ENDBRANCH  14  15
ENDBRANCH   2  14
TORSDOF 4
ENDMDL
MODEL 9
REMARK VINA RESULT:      -6.9      4.521      7.776
REMARK  Name = 
REMARK  9 active torsions:
REMARK  status: ('A' for Active; 'I' for Inactive)
REMARK    1  A    between atoms: C_1  and  C_2
REMARK    2  A    between atoms: C_2  and  C_3
REMARK    3  A    between atoms: C_5  and  N_6
REMARK    4  A    between atoms: C_7  and  C_9
REMARK    5  A    between atoms: C_9  and  C_10
REMARK    6  A    between atoms: C_11  and  C_12
REMARK    7  A    between atoms: N_14  and  C_15
REMARK    8  A    between atoms: C_16  and  C_17
REMARK    9  A    between atoms: C_19  and  C_20
REMARK                            x       y       z     vdW  Elec       q    Type
REMARK                         _______ _______ _______ _____ _____    ______ ____
ROOT
ATOM      1  N   UNL     1       2.076   8.776  17.815  0.00  0.00    +0.000 N 
ATOM      2  C   UNL     1       2.538   7.668  18.497  0.00  0.00    +0.000 C 
ATOM      3  O   UNL     1       2.199   7.351  19.634  0.00  0.00    +0.000 OA
ATOM      4  H   UNL     1       2.053   8.716  16.807  0.00  0.00    +0.000 HD
ENDROOT
BRANCH   1   7
ATOM      5  C   UNL     1      -1.037  10.589  18.424  0.00  0.00    +0.000 A 
ATOM      6  C   UNL     1      -0.192   9.658  17.855  0.00  0.00    +0.000 A 
ATOM      7  C   UNL     1       1.106   9.647  18.321  0.00  0.00    +0.000 A 
ATOM      8  N   UNL     1       1.545  10.454  19.298  0.00  0.00    +0.000 NA
ATOM      9  C   UNL     1       0.677  11.382  19.732  0.00  0.00    +0.000 A 
ATOM     10  C   UNL     1       1.191  12.439  20.660  0.00  0.00    +0.000 C 
ATOM     11  N   UNL     1      -0.607  11.476  19.345  0.00  0.00    +0.000 NA
BRANCH   5  13
ATOM     12  C   UNL     1      -2.777   9.788  16.814  0.00  0.00    +0.000 C 
ATOM     13  C   UNL     1      -2.478  10.690  18.001  0.00  0.00    +0.000 C 
ENDBRANCH   5  13
ENDBRANCH   1   7
BRANCH   2  14
ATOM     14  C   UNL     1       3.552   6.851  17.712  0.00  0.00    +0.000 C 
BRANCH  14  15
ATOM     15  C   UNL     1       3.750   5.464  18.234  0.00  0.00    +0.000 A 
ATOM     16  C   UNL     1       4.917   4.915  18.836  0.00  0.00    +0.000 A 
ATOM     17  C   UNL     1       6.210   5.580  19.158  0.00  0.00    +0.000 C 
ATOM     18  N   UNL     1       4.780   3.617  19.108  0.00  0.00    +0.000 NA
ATOM     19  N   UNL     1       3.546   3.315  18.679  0.00  0.00    +0.000 N 
ATOM     20  C   UNL     1       3.101   1.941  18.763  0.00  0.00    +0.000 C 
ATOM     21  C   UNL     1       2.867   4.387  18.167  0.00  0.00    +0.000 A 
ATOM     22  C   UNL     1       1.484   4.292  17.632  0.00  0.00    +0.000 C 
ENDBRANCH  14  15
ENDBRANCH   2  14
TORSDOF 4
ENDMDL
