MODEL 1
REMARK VINA RESULT:      -8.3      0.000      0.000
REMARK  Name = 
REMARK  8 active torsions:
REMARK  status: ('A' for Active; 'I' for Inactive)
REMARK    1  A    between atoms: C_1  and  C_2
REMARK    2  A    between atoms: C_2  and  O_4
REMARK    3  A    between atoms: O_4  and  C_5
REMARK    4  A    between atoms: C_5  and  O_6
REMARK    5  A    between atoms: O_6  and  P_7
REMARK    6  A    between atoms: C_13  and  N_14
REMARK    7  A    between atoms: N_20  and  C_21
REMARK    8  A    between atoms: C_26  and  O_27
REMARK                            x       y       z     vdW  Elec       q    Type
REMARK                         _______ _______ _______ _____ _____    ______ ____
ROOT
ATOM      1  P   UNL     1       6.516   4.371  15.673  0.00  0.00    +0.000 P 
ATOM      2  O   UNL     1       5.393   3.462  16.041  0.00  0.00    +0.000 OA
ATOM      3  O   UNL     1       7.789   4.356  16.650  0.00  0.00    +0.000 OA
ATOM      4  C   UNL     1       7.565   4.770  17.989  0.00  0.00    +0.000 C 
ATOM      5  C   UNL     1       6.441   5.798  18.130  0.00  0.00    +0.000 C 
ATOM      6  O   UNL     1       5.192   5.119  18.364  0.00  0.00    +0.000 OA
ATOM      7  C   UNL     1       4.131   5.946  17.832  0.00  0.00    +0.000 C 
ATOM      8  C   UNL     1       4.776   7.156  17.145  0.00  0.00    +0.000 C 
ATOM      9  C   UNL     1       6.187   6.654  16.895  0.00  0.00    +0.000 C 
ATOM     10  O   UNL     1       6.158   5.936  15.660  0.00  0.00    +0.000 OA
ENDROOT
BRANCH   7  11
ATOM     11  N   UNL     1       3.237   6.309  18.910  0.00  0.00    +0.000 N 
ATOM     12  C   UNL     1       2.948   5.520  19.993  0.00  0.00    +0.000 A 
ATOM     13  N   UNL     1       2.047   6.076  20.779  0.00  0.00    +0.000 NA
ATOM     14  C   UNL     1       1.764   7.278  20.176  0.00  0.00    +0.000 A 
ATOM     15  C   UNL     1       0.844   8.323  20.568  0.00  0.00    +0.000 A 
ATOM     16  O   UNL     1       0.142   8.253  21.572  0.00  0.00    +0.000 OA
ATOM     17  N   UNL     1       0.848   9.418  19.677  0.00  0.00    +0.000 N 
ATOM     18  C   UNL     1      -0.055  10.510  19.990  0.00  0.00    +0.000 C 
ATOM     19  C   UNL     1       1.676   9.472  18.547  0.00  0.00    +0.000 A 
ATOM     20  N   UNL     1       1.670  10.581  17.755  0.00  0.00    +0.000 N 
ATOM     21  N   UNL     1       2.483   8.505  18.183  0.00  0.00    +0.000 NA
ATOM     22  C   UNL     1       2.491   7.450  19.027  0.00  0.00    +0.000 A 
ATOM     23  H   UNL     1       0.854  11.174  17.729  0.00  0.00    +0.000 HD
ATOM     24  H   UNL     1       2.119  10.448  16.857  0.00  0.00    +0.000 HD
ENDBRANCH   7  11
BRANCH   8  25
ATOM     25  O   UNL     1       4.119   7.525  15.930  0.00  0.00    +0.000 OA
ATOM     26  H   UNL     1       4.679   7.199  15.196  0.00  0.00    +0.000 HD
ENDBRANCH   8  25
BRANCH   1  27
ATOM     27  O   UNL     1       7.111   4.144  14.210  0.00  0.00    +0.000 OA
BRANCH  27  28
ATOM     28  C   UNL     1       6.162   4.017  13.182  0.00  0.00    +0.000 C 
BRANCH  28  29
ATOM     29  O   UNL     1       6.630   3.182  12.125  0.00  0.00    +0.000 OA
BRANCH  29  31
ATOM     30  C   UNL     1       4.387   3.176  11.473  0.00  0.00    +0.000 C 
ATOM     31  C   UNL     1       5.663   2.402  11.576  0.00  0.00    +0.000 C 
ATOM     32  O   UNL     1       5.770   1.221  11.276  0.00  0.00    +0.000 OA
ENDBRANCH  29  31
ENDBRANCH  28  29
ENDBRANCH  27  28
ENDBRANCH   1  27
TORSDOF 6
ENDMDL
MODEL 2
REMARK VINA RESULT:      -7.8      3.623      5.777
REMARK  Name = 
REMARK  8 active torsions:
REMARK  status: ('A' for Active; 'I' for Inactive)
REMARK    1  A    between atoms: C_1  and  C_2
REMARK    2  A    between atoms: C_2  and  O_4
REMARK    3  A    between atoms: O_4  and  C_5
REMARK    4  A    between atoms: C_5  and  O_6
REMARK    5  A    between atoms: O_6  and  P_7
REMARK    6  A    between atoms: C_13  and  N_14
REMARK    7  A    between atoms: N_20  and  C_21
REMARK    8  A    between atoms: C_26  and  O_27
REMARK                            x       y       z     vdW  Elec       q    Type
REMARK                         _______ _______ _______ _____ _____    ______ ____
ROOT
ATOM      1  P   UNL     1       4.407   3.044  19.148  0.00  0.00    +0.000 P 
ATOM      2  O   UNL     1       5.358   4.142  18.814  0.00  0.00    +0.000 OA
ATOM      3  O   UNL     1       3.639   2.370  17.910  0.00  0.00    +0.000 OA
ATOM      4  C   UNL     1       2.783   3.218  17.159  0.00  0.00    +0.000 C 
ATOM      5  C   UNL     1       2.166   4.349  17.984  0.00  0.00    +0.000 C 
ATOM      6  O   UNL     1       3.012   5.512  17.917  0.00  0.00    +0.000 OA
ATOM      7  C   UNL     1       2.834   6.262  19.143  0.00  0.00    +0.000 C 
ATOM      8  C   UNL     1       1.897   5.459  20.053  0.00  0.00    +0.000 C 
ATOM      9  C   UNL     1       2.024   4.061  19.474  0.00  0.00    +0.000 C 
ATOM     10  O   UNL     1       3.171   3.465  20.083  0.00  0.00    +0.000 OA
ENDROOT
BRANCH   7  11
ATOM     11  N   UNL     1       2.326   7.577  18.815  0.00  0.00    +0.000 N 
ATOM     12  C   UNL     1       2.411   8.169  17.582  0.00  0.00    +0.000 A 
ATOM     13  N   UNL     1       1.929   9.396  17.593  0.00  0.00    +0.000 NA
ATOM     14  C   UNL     1       1.505   9.584  18.887  0.00  0.00    +0.000 A 
ATOM     15  C   UNL     1       0.894  10.739  19.508  0.00  0.00    +0.000 A 
ATOM     16  O   UNL     1       0.667  11.781  18.902  0.00  0.00    +0.000 OA
ATOM     17  N   UNL     1       0.594  10.531  20.872  0.00  0.00    +0.000 N 
ATOM     18  C   UNL     1      -0.013  11.645  21.577  0.00  0.00    +0.000 C 
ATOM     19  C   UNL     1       0.854   9.320  21.528  0.00  0.00    +0.000 A 
ATOM     20  N   UNL     1       0.492   9.166  22.833  0.00  0.00    +0.000 N 
ATOM     21  N   UNL     1       1.438   8.291  20.964  0.00  0.00    +0.000 NA
ATOM     22  C   UNL     1       1.730   8.474  19.658  0.00  0.00    +0.000 A 
ATOM     23  H   UNL     1       0.402   9.977  23.428  0.00  0.00    +0.000 HD
ATOM     24  H   UNL     1       0.910   8.362  23.284  0.00  0.00    +0.000 HD
ENDBRANCH   7  11
BRANCH   8  25
ATOM     25  O   UNL     1       2.282   5.503  21.429  0.00  0.00    +0.000 OA
ATOM     26  H   UNL     1       2.176   6.431  21.722  0.00  0.00    +0.000 HD
ENDBRANCH   8  25
BRANCH   1  27
ATOM     27  O   UNL     1       5.046   1.824  19.955  0.00  0.00    +0.000 OA
BRANCH  27  28
ATOM     28  C   UNL     1       4.721   1.763  21.319  0.00  0.00    +0.000 C 
BRANCH  28  29
ATOM     29  O   UNL     1       5.000   0.480  21.877  0.00  0.00    +0.000 OA
BRANCH  29  31
ATOM     30  C   UNL     1       6.666  -1.106  22.281  0.00  0.00    +0.000 C 
ATOM     31  C   UNL     1       6.280   0.339  22.310  0.00  0.00    +0.000 C 
ATOM     32  O   UNL     1       7.000   1.229  22.739  0.00  0.00    +0.000 OA
ENDBRANCH  29  31
ENDBRANCH  28  29
ENDBRANCH  27  28
ENDBRANCH   1  27
TORSDOF 6
ENDMDL
MODEL 3
REMARK VINA RESULT:      -7.3      4.327      8.729
REMARK  Name = 
REMARK  8 active torsions:
REMARK  status: ('A' for Active; 'I' for Inactive)
REMARK    1  A    between atoms: C_1  and  C_2
REMARK    2  A    between atoms: C_2  and  O_4
REMARK    3  A    between atoms: O_4  and  C_5
REMARK    4  A    between atoms: C_5  and  O_6
REMARK    5  A    between atoms: O_6  and  P_7
REMARK    6  A    between atoms: C_13  and  N_14
REMARK    7  A    between atoms: N_20  and  C_21
REMARK    8  A    between atoms: C_26  and  O_27
REMARK                            x       y       z     vdW  Elec       q    Type
REMARK                         _______ _______ _______ _____ _____    ______ ____
ROOT
ATOM      1  P   UNL     1       0.855  12.749  20.058  0.00  0.00    +0.000 P 
ATOM      2  O   UNL     1       1.953  12.287  20.954  0.00  0.00    +0.000 OA
ATOM      3  O   UNL     1      -0.634  12.630  20.642  0.00  0.00    +0.000 OA
ATOM      4  C   UNL     1      -1.095  11.321  20.941  0.00  0.00    +0.000 C 
ATOM      5  C   UNL     1      -0.478  10.239  20.053  0.00  0.00    +0.000 C 
ATOM      6  O   UNL     1       0.714   9.724  20.675  0.00  0.00    +0.000 OA
ATOM      7  C   UNL     1       1.603   9.273  19.626  0.00  0.00    +0.000 C 
ATOM      8  C   UNL     1       0.958   9.622  18.279  0.00  0.00    +0.000 C 
ATOM      9  C   UNL     1      -0.020  10.713  18.678  0.00  0.00    +0.000 C 
ATOM     10  O   UNL     1       0.709  11.941  18.677  0.00  0.00    +0.000 OA
ENDROOT
BRANCH   7  11
ATOM     11  N   UNL     1       1.844   7.856  19.796  0.00  0.00    +0.000 N 
ATOM     12  C   UNL     1       1.298   7.077  20.784  0.00  0.00    +0.000 A 
ATOM     13  N   UNL     1       1.749   5.840  20.738  0.00  0.00    +0.000 NA
ATOM     14  C   UNL     1       2.606   5.829  19.663  0.00  0.00    +0.000 A 
ATOM     15  C   UNL     1       3.407   4.753  19.122  0.00  0.00    +0.000 A 
ATOM     16  O   UNL     1       3.422   3.624  19.603  0.00  0.00    +0.000 OA
ATOM     17  N   UNL     1       4.160   5.145  17.993  0.00  0.00    +0.000 N 
ATOM     18  C   UNL     1       5.001   4.128  17.391  0.00  0.00    +0.000 C 
ATOM     19  C   UNL     1       4.106   6.441  17.462  0.00  0.00    +0.000 A 
ATOM     20  N   UNL     1       4.817   6.742  16.339  0.00  0.00    +0.000 N 
ATOM     21  N   UNL     1       3.401   7.418  17.980  0.00  0.00    +0.000 NA
ATOM     22  C   UNL     1       2.675   7.057  19.060  0.00  0.00    +0.000 A 
ATOM     23  H   UNL     1       5.641   6.207  16.108  0.00  0.00    +0.000 HD
ATOM     24  H   UNL     1       4.898   7.735  16.157  0.00  0.00    +0.000 HD
ENDBRANCH   7  11
BRANCH   8  25
ATOM     25  O   UNL     1       1.902  10.081  17.310  0.00  0.00    +0.000 OA
ATOM     26  H   UNL     1       1.922   9.411  16.596  0.00  0.00    +0.000 HD
ENDBRANCH   8  25
BRANCH   1  27
ATOM     27  O   UNL     1       0.987  14.259  19.558  0.00  0.00    +0.000 OA
BRANCH  27  28
ATOM     28  C   UNL     1       2.293  14.774  19.522  0.00  0.00    +0.000 C 
BRANCH  28  29
ATOM     29  O   UNL     1       3.043  14.249  18.427  0.00  0.00    +0.000 OA
BRANCH  29  31
ATOM     30  C   UNL     1       5.220  14.913  17.901  0.00  0.00    +0.000 C 
ATOM     31  C   UNL     1       3.757  15.188  17.753  0.00  0.00    +0.000 C 
ATOM     32  O   UNL     1       3.301  16.164  17.174  0.00  0.00    +0.000 OA
ENDBRANCH  29  31
ENDBRANCH  28  29
ENDBRANCH  27  28
ENDBRANCH   1  27
TORSDOF 6
ENDMDL
MODEL 4
REMARK VINA RESULT:      -7.2      3.070      5.289
REMARK  Name = 
REMARK  8 active torsions:
REMARK  status: ('A' for Active; 'I' for Inactive)
REMARK    1  A    between atoms: C_1  and  C_2
REMARK    2  A    between atoms: C_2  and  O_4
REMARK    3  A    between atoms: O_4  and  C_5
REMARK    4  A    between atoms: C_5  and  O_6
REMARK    5  A    between atoms: O_6  and  P_7
REMARK    6  A    between atoms: C_13  and  N_14
REMARK    7  A    between atoms: N_20  and  C_21
REMARK    8  A    between atoms: C_26  and  O_27
REMARK                            x       y       z     vdW  Elec       q    Type
REMARK                         _______ _______ _______ _____ _____    ______ ____
ROOT
ATOM      1  P   UNL     1       4.990   4.345  19.016  0.00  0.00    +0.000 P 
ATOM      2  O   UNL     1       5.394   5.441  19.943  0.00  0.00    +0.000 OA
ATOM      3  O   UNL     1       5.551   4.444  17.516  0.00  0.00    +0.000 OA
ATOM      4  C   UNL     1       5.139   5.571  16.758  0.00  0.00    +0.000 C 
ATOM      5  C   UNL     1       3.757   6.098  17.148  0.00  0.00    +0.000 C 
ATOM      6  O   UNL     1       3.894   7.107  18.166  0.00  0.00    +0.000 OA
ATOM      7  C   UNL     1       2.691   7.092  18.971  0.00  0.00    +0.000 C 
ATOM      8  C   UNL     1       1.809   5.939  18.477  0.00  0.00    +0.000 C 
ATOM      9  C   UNL     1       2.818   5.063  17.757  0.00  0.00    +0.000 C 
ATOM     10  O   UNL     1       3.412   4.219  18.746  0.00  0.00    +0.000 OA
ENDROOT
BRANCH   7  11
ATOM     11  N   UNL     1       2.050   8.386  18.877  0.00  0.00    +0.000 N 
ATOM     12  C   UNL     1       2.171   9.249  17.818  0.00  0.00    +0.000 A 
ATOM     13  N   UNL     1       1.535  10.383  18.036  0.00  0.00    +0.000 NA
ATOM     14  C   UNL     1       0.974  10.226  19.281  0.00  0.00    +0.000 A 
ATOM     15  C   UNL     1       0.165  11.139  20.059  0.00  0.00    +0.000 A 
ATOM     16  O   UNL     1      -0.138  12.262  19.669  0.00  0.00    +0.000 OA
ATOM     17  N   UNL     1      -0.229  10.596  21.302  0.00  0.00    +0.000 N 
ATOM     18  C   UNL     1      -1.037  11.449  22.153  0.00  0.00    +0.000 C 
ATOM     19  C   UNL     1       0.124   9.302  21.708  0.00  0.00    +0.000 A 
ATOM     20  N   UNL     1      -0.332   8.818  22.898  0.00  0.00    +0.000 N 
ATOM     21  N   UNL     1       0.885   8.495  21.009  0.00  0.00    +0.000 NA
ATOM     22  C   UNL     1       1.269   9.000  19.816  0.00  0.00    +0.000 A 
ATOM     23  H   UNL     1      -0.581   9.458  23.638  0.00  0.00    +0.000 HD
ATOM     24  H   UNL     1       0.143   7.981  23.211  0.00  0.00    +0.000 HD
ENDBRANCH   7  11
BRANCH   8  25
ATOM     25  O   UNL     1       1.158   5.240  19.540  0.00  0.00    +0.000 OA
ATOM     26  H   UNL     1       0.608   4.544  19.125  0.00  0.00    +0.000 HD
ENDBRANCH   8  25
BRANCH   1  27
ATOM     27  O   UNL     1       5.371   2.876  19.508  0.00  0.00    +0.000 OA
BRANCH  27  28
ATOM     28  C   UNL     1       4.291   2.070  19.903  0.00  0.00    +0.000 C 
BRANCH  28  29
ATOM     29  O   UNL     1       3.937   2.286  21.268  0.00  0.00    +0.000 OA
BRANCH  29  31
ATOM     30  C   UNL     1       1.829   2.014  20.296  0.00  0.00    +0.000 C 
ATOM     31  C   UNL     1       2.615   2.539  21.456  0.00  0.00    +0.000 C 
ATOM     32  O   UNL     1       2.125   3.168  22.384  0.00  0.00    +0.000 OA
ENDBRANCH  29  31
ENDBRANCH  28  29
ENDBRANCH  27  28
ENDBRANCH   1  27
TORSDOF 6
ENDMDL
MODEL 5
REMARK VINA RESULT:      -7.1      4.346      9.490
REMARK  Name = 
REMARK  8 active torsions:
REMARK  status: ('A' for Active; 'I' for Inactive)
REMARK    1  A    between atoms: C_1  and  C_2
REMARK    2  A    between atoms: C_2  and  O_4
REMARK    3  A    between atoms: O_4  and  C_5
REMARK    4  A    between atoms: C_5  and  O_6
REMARK    5  A    between atoms: O_6  and  P_7
REMARK    6  A    between atoms: C_13  and  N_14
REMARK    7  A    between atoms: N_20  and  C_21
REMARK    8  A    between atoms: C_26  and  O_27
REMARK                            x       y       z     vdW  Elec       q    Type
REMARK                         _______ _______ _______ _____ _____    ______ ____
ROOT
ATOM      1  P   UNL     1       0.809  12.713  20.086  0.00  0.00    +0.000 P 
ATOM      2  O   UNL     1       1.905  12.255  20.987  0.00  0.00    +0.000 OA
ATOM      3  O   UNL     1      -0.684  12.571  20.657  0.00  0.00    +0.000 OA
ATOM      4  C   UNL     1      -1.131  11.254  20.940  0.00  0.00    +0.000 C 
ATOM      5  C   UNL     1      -0.495  10.188  20.047  0.00  0.00    +0.000 C 
ATOM      6  O   UNL     1       0.698   9.680  20.675  0.00  0.00    +0.000 OA
ATOM      7  C   UNL     1       1.601   9.249  19.630  0.00  0.00    +0.000 C 
ATOM      8  C   UNL     1       0.963   9.603  18.281  0.00  0.00    +0.000 C 
ATOM      9  C   UNL     1      -0.031  10.679  18.681  0.00  0.00    +0.000 C 
ATOM     10  O   UNL     1       0.684  11.916  18.697  0.00  0.00    +0.000 OA
ENDROOT
BRANCH   7  11
ATOM     11  N   UNL     1       1.856   7.833  19.789  0.00  0.00    +0.000 N 
ATOM     12  C   UNL     1       1.325   7.043  20.775  0.00  0.00    +0.000 A 
ATOM     13  N   UNL     1       1.788   5.811  20.718  0.00  0.00    +0.000 NA
ATOM     14  C   UNL     1       2.638   5.815  19.638  0.00  0.00    +0.000 A 
ATOM     15  C   UNL     1       3.446   4.750  19.086  0.00  0.00    +0.000 A 
ATOM     16  O   UNL     1       3.475   3.619  19.558  0.00  0.00    +0.000 OA
ATOM     17  N   UNL     1       4.188   5.158  17.954  0.00  0.00    +0.000 N 
ATOM     18  C   UNL     1       5.035   4.152  17.340  0.00  0.00    +0.000 C 
ATOM     19  C   UNL     1       4.118   6.456  17.432  0.00  0.00    +0.000 A 
ATOM     20  N   UNL     1       4.819   6.771  16.306  0.00  0.00    +0.000 N 
ATOM     21  N   UNL     1       3.407   7.423  17.961  0.00  0.00    +0.000 NA
ATOM     22  C   UNL     1       2.691   7.048  19.043  0.00  0.00    +0.000 A 
ATOM     23  H   UNL     1       5.647   6.246  16.067  0.00  0.00    +0.000 HD
ATOM     24  H   UNL     1       4.889   7.766  16.130  0.00  0.00    +0.000 HD
ENDBRANCH   7  11
BRANCH   8  25
ATOM     25  O   UNL     1       1.910  10.082  17.324  0.00  0.00    +0.000 OA
ATOM     26  H   UNL     1       1.395  10.465  16.585  0.00  0.00    +0.000 HD
ENDBRANCH   8  25
BRANCH   1  27
ATOM     27  O   UNL     1       0.928  14.228  19.600  0.00  0.00    +0.000 OA
BRANCH  27  28
ATOM     28  C   UNL     1      -0.143  14.703  18.825  0.00  0.00    +0.000 C 
BRANCH  28  29
ATOM     29  O   UNL     1      -0.786  15.821  19.433  0.00  0.00    +0.000 OA
BRANCH  29  31
ATOM     30  C   UNL     1      -0.586  17.448  17.769  0.00  0.00    +0.000 C 
ATOM     31  C   UNL     1      -0.199  17.012  19.146  0.00  0.00    +0.000 C 
ATOM     32  O   UNL     1       0.592  17.618  19.856  0.00  0.00    +0.000 OA
ENDBRANCH  29  31
ENDBRANCH  28  29
ENDBRANCH  27  28
ENDBRANCH   1  27
TORSDOF 6
ENDMDL
MODEL 6
REMARK VINA RESULT:      -7.0      4.026      9.737
REMARK  Name = 
REMARK  8 active torsions:
REMARK  status: ('A' for Active; 'I' for Inactive)
REMARK    1  A    between atoms: C_1  and  C_2
REMARK    2  A    between atoms: C_2  and  O_4
REMARK    3  A    between atoms: O_4  and  C_5
REMARK    4  A    between atoms: C_5  and  O_6
REMARK    5  A    between atoms: O_6  and  P_7
REMARK    6  A    between atoms: C_13  and  N_14
REMARK    7  A    between atoms: N_20  and  C_21
REMARK    8  A    between atoms: C_26  and  O_27
REMARK                            x       y       z     vdW  Elec       q    Type
REMARK                         _______ _______ _______ _____ _____    ______ ____
ROOT
ATOM      1  P   UNL     1      -1.319  11.234  19.075  0.00  0.00    +0.000 P 
ATOM      2  O   UNL     1      -1.468  10.329  17.899  0.00  0.00    +0.000 OA
ATOM      3  O   UNL     1      -0.424  12.546  18.851  0.00  0.00    +0.000 OA
ATOM      4  C   UNL     1       0.942  12.333  18.529  0.00  0.00    +0.000 C 
ATOM      5  C   UNL     1       1.517  11.046  19.122  0.00  0.00    +0.000 C 
ATOM      6  O   UNL     1       1.355   9.967  18.183  0.00  0.00    +0.000 OA
ATOM      7  C   UNL     1       1.245   8.736  18.936  0.00  0.00    +0.000 C 
ATOM      8  C   UNL     1       1.240   9.095  20.427  0.00  0.00    +0.000 C 
ATOM      9  C   UNL     1       0.831  10.557  20.392  0.00  0.00    +0.000 C 
ATOM     10  O   UNL     1      -0.597  10.584  20.355  0.00  0.00    +0.000 OA
ENDROOT
BRANCH   7  11
ATOM     11  N   UNL     1       2.334   7.860  18.561  0.00  0.00    +0.000 N 
ATOM     12  C   UNL     1       3.262   8.129  17.588  0.00  0.00    +0.000 A 
ATOM     13  N   UNL     1       4.094   7.122  17.412  0.00  0.00    +0.000 NA
ATOM     14  C   UNL     1       3.685   6.178  18.324  0.00  0.00    +0.000 A 
ATOM     15  C   UNL     1       4.209   4.857  18.595  0.00  0.00    +0.000 A 
ATOM     16  O   UNL     1       5.160   4.378  17.987  0.00  0.00    +0.000 OA
ATOM     17  N   UNL     1       3.508   4.193  19.626  0.00  0.00    +0.000 N 
ATOM     18  C   UNL     1       3.962   2.855  19.958  0.00  0.00    +0.000 C 
ATOM     19  C   UNL     1       2.434   4.778  20.311  0.00  0.00    +0.000 A 
ATOM     20  N   UNL     1       1.834   4.104  21.332  0.00  0.00    +0.000 N 
ATOM     21  N   UNL     1       1.947   5.964  20.035  0.00  0.00    +0.000 NA
ATOM     22  C   UNL     1       2.608   6.613  19.051  0.00  0.00    +0.000 A 
ATOM     23  H   UNL     1       1.875   3.096  21.360  0.00  0.00    +0.000 HD
ATOM     24  H   UNL     1       0.944   4.494  21.616  0.00  0.00    +0.000 HD
ENDBRANCH   7  11
BRANCH   8  25
ATOM     25  O   UNL     1       0.326   8.303  21.189  0.00  0.00    +0.000 OA
ATOM     26  H   UNL     1      -0.574   8.611  20.958  0.00  0.00    +0.000 HD
ENDBRANCH   8  25
BRANCH   1  27
ATOM     27  O   UNL     1      -2.692  11.766  19.691  0.00  0.00    +0.000 OA
BRANCH  27  28
ATOM     28  C   UNL     1      -2.590  12.907  20.503  0.00  0.00    +0.000 C 
BRANCH  28  29
ATOM     29  O   UNL     1      -3.871  13.395  20.898  0.00  0.00    +0.000 OA
BRANCH  29  31
ATOM     30  C   UNL     1      -3.406  12.555  23.027  0.00  0.00    +0.000 C 
ATOM     31  C   UNL     1      -4.419  12.714  21.938  0.00  0.00    +0.000 C 
ATOM     32  O   UNL     1      -5.540  12.226  21.973  0.00  0.00    +0.000 OA
ENDBRANCH  29  31
ENDBRANCH  28  29
ENDBRANCH  27  28
ENDBRANCH   1  27
TORSDOF 6
ENDMDL
MODEL 7
REMARK VINA RESULT:      -7.0      4.281      9.253
REMARK  Name = 
REMARK  8 active torsions:
REMARK  status: ('A' for Active; 'I' for Inactive)
REMARK    1  A    between atoms: C_1  and  C_2
REMARK    2  A    between atoms: C_2  and  O_4
REMARK    3  A    between atoms: O_4  and  C_5
REMARK    4  A    between atoms: C_5  and  O_6
REMARK    5  A    between atoms: O_6  and  P_7
REMARK    6  A    between atoms: C_13  and  N_14
REMARK    7  A    between atoms: N_20  and  C_21
REMARK    8  A    between atoms: C_26  and  O_27
REMARK                            x       y       z     vdW  Elec       q    Type
REMARK                         _______ _______ _______ _____ _____    ______ ____
ROOT
ATOM      1  P   UNL     1       0.827  12.678  20.104  0.00  0.00    +0.000 P 
ATOM      2  O   UNL     1       1.929  12.216  20.995  0.00  0.00    +0.000 OA
ATOM      3  O   UNL     1      -0.662  12.533  20.685  0.00  0.00    +0.000 OA
ATOM      4  C   UNL     1      -1.107  11.214  20.965  0.00  0.00    +0.000 C 
ATOM      5  C   UNL     1      -0.477  10.153  20.062  0.00  0.00    +0.000 C 
ATOM      6  O   UNL     1       0.720   9.643  20.678  0.00  0.00    +0.000 OA
ATOM      7  C   UNL     1       1.616   9.217  19.624  0.00  0.00    +0.000 C 
ATOM      8  C   UNL     1       0.967   9.577  18.281  0.00  0.00    +0.000 C 
ATOM      9  C   UNL     1      -0.024  10.651  18.695  0.00  0.00    +0.000 C 
ATOM     10  O   UNL     1       0.691  11.888  18.712  0.00  0.00    +0.000 OA
ENDROOT
BRANCH   7  11
ATOM     11  N   UNL     1       1.872   7.800  19.774  0.00  0.00    +0.000 N 
ATOM     12  C   UNL     1       1.338   7.002  20.752  0.00  0.00    +0.000 A 
ATOM     13  N   UNL     1       1.803   5.771  20.688  0.00  0.00    +0.000 NA
ATOM     14  C   UNL     1       2.658   5.784  19.612  0.00  0.00    +0.000 A 
ATOM     15  C   UNL     1       3.470   4.725  19.055  0.00  0.00    +0.000 A 
ATOM     16  O   UNL     1       3.498   3.590  19.520  0.00  0.00    +0.000 OA
ATOM     17  N   UNL     1       4.215   5.141  17.930  0.00  0.00    +0.000 N 
ATOM     18  C   UNL     1       5.066   4.142  17.312  0.00  0.00    +0.000 C 
ATOM     19  C   UNL     1       4.146   6.443  17.416  0.00  0.00    +0.000 A 
ATOM     20  N   UNL     1       4.851   6.768  16.295  0.00  0.00    +0.000 N 
ATOM     21  N   UNL     1       3.431   7.405  17.949  0.00  0.00    +0.000 NA
ATOM     22  C   UNL     1       2.711   7.021  19.025  0.00  0.00    +0.000 A 
ATOM     23  H   UNL     1       5.680   6.245  16.056  0.00  0.00    +0.000 HD
ATOM     24  H   UNL     1       4.921   7.764  16.127  0.00  0.00    +0.000 HD
ENDBRANCH   7  11
BRANCH   8  25
ATOM     25  O   UNL     1       1.907  10.061  17.320  0.00  0.00    +0.000 OA
ATOM     26  H   UNL     1       2.740  10.237  17.803  0.00  0.00    +0.000 HD
ENDBRANCH   8  25
BRANCH   1  27
ATOM     27  O   UNL     1       0.942  14.196  19.625  0.00  0.00    +0.000 OA
BRANCH  27  28
ATOM     28  C   UNL     1       2.218  14.772  19.737  0.00  0.00    +0.000 C 
BRANCH  28  29
ATOM     29  O   UNL     1       2.320  15.623  20.876  0.00  0.00    +0.000 OA
BRANCH  29  31
ATOM     30  C   UNL     1       4.628  15.961  21.009  0.00  0.00    +0.000 C 
ATOM     31  C   UNL     1       3.410  15.374  21.649  0.00  0.00    +0.000 C 
ATOM     32  O   UNL     1       3.432  14.707  22.674  0.00  0.00    +0.000 OA
ENDBRANCH  29  31
ENDBRANCH  28  29
ENDBRANCH  27  28
ENDBRANCH   1  27
TORSDOF 6
ENDMDL
MODEL 8
REMARK VINA RESULT:      -7.0      4.005      9.381
REMARK  Name = 
REMARK  8 active torsions:
REMARK  status: ('A' for Active; 'I' for Inactive)
REMARK    1  A    between atoms: C_1  and  C_2
REMARK    2  A    between atoms: C_2  and  O_4
REMARK    3  A    between atoms: O_4  and  C_5
REMARK    4  A    between atoms: C_5  and  O_6
REMARK    5  A    between atoms: O_6  and  P_7
REMARK    6  A    between atoms: C_13  and  N_14
REMARK    7  A    between atoms: N_20  and  C_21
REMARK    8  A    between atoms: C_26  and  O_27
REMARK                            x       y       z     vdW  Elec       q    Type
REMARK                         _______ _______ _______ _____ _____    ______ ____
ROOT
ATOM      1  P   UNL     1      -1.090  11.030  19.079  0.00  0.00    +0.000 P 
ATOM      2  O   UNL     1      -1.263  10.129  17.903  0.00  0.00    +0.000 OA
ATOM      3  O   UNL     1      -0.161  12.318  18.853  0.00  0.00    +0.000 OA
ATOM      4  C   UNL     1       1.199  12.070  18.530  0.00  0.00    +0.000 C 
ATOM      5  C   UNL     1       1.740  10.768  19.124  0.00  0.00    +0.000 C 
ATOM      6  O   UNL     1       1.549   9.693  18.186  0.00  0.00    +0.000 OA
ATOM      7  C   UNL     1       1.407   8.465  18.940  0.00  0.00    +0.000 C 
ATOM      8  C   UNL     1       1.413   8.826  20.431  0.00  0.00    +0.000 C 
ATOM      9  C   UNL     1       1.042  10.298  20.395  0.00  0.00    +0.000 C 
ATOM     10  O   UNL     1      -0.385  10.363  20.358  0.00  0.00    +0.000 OA
ENDROOT
BRANCH   7  11
ATOM     11  N   UNL     1       2.472   7.561  18.565  0.00  0.00    +0.000 N 
ATOM     12  C   UNL     1       3.395   7.797  17.579  0.00  0.00    +0.000 A 
ATOM     13  N   UNL     1       4.202   6.770  17.407  0.00  0.00    +0.000 NA
ATOM     14  C   UNL     1       3.783   5.847  18.336  0.00  0.00    +0.000 A 
ATOM     15  C   UNL     1       4.281   4.519  18.619  0.00  0.00    +0.000 A 
ATOM     16  O   UNL     1       5.214   4.010  18.007  0.00  0.00    +0.000 OA
ATOM     17  N   UNL     1       3.577   3.883  19.666  0.00  0.00    +0.000 N 
ATOM     18  C   UNL     1       4.006   2.540  20.011  0.00  0.00    +0.000 C 
ATOM     19  C   UNL     1       2.525   4.501  20.354  0.00  0.00    +0.000 A 
ATOM     20  N   UNL     1       1.921   3.854  21.391  0.00  0.00    +0.000 N 
ATOM     21  N   UNL     1       2.060   5.693  20.068  0.00  0.00    +0.000 NA
ATOM     22  C   UNL     1       2.724   6.315  19.069  0.00  0.00    +0.000 A 
ATOM     23  H   UNL     1       1.940   2.845  21.432  0.00  0.00    +0.000 HD
ATOM     24  H   UNL     1       1.043   4.267  21.679  0.00  0.00    +0.000 HD
ENDBRANCH   7  11
BRANCH   8  25
ATOM     25  O   UNL     1       0.479   8.059  21.194  0.00  0.00    +0.000 OA
ATOM     26  H   UNL     1       0.840   7.996  22.102  0.00  0.00    +0.000 HD
ENDBRANCH   8  25
BRANCH   1  27
ATOM     27  O   UNL     1      -2.448  11.599  19.695  0.00  0.00    +0.000 OA
BRANCH  27  28
ATOM     28  C   UNL     1      -2.310  12.705  20.549  0.00  0.00    +0.000 C 
BRANCH  28  29
ATOM     29  O   UNL     1      -2.577  12.365  21.908  0.00  0.00    +0.000 OA
BRANCH  29  31
ATOM     30  C   UNL     1      -0.800  13.719  22.593  0.00  0.00    +0.000 C 
ATOM     31  C   UNL     1      -1.476  12.389  22.705  0.00  0.00    +0.000 C 
ATOM     32  O   UNL     1      -1.039  11.454  23.361  0.00  0.00    +0.000 OA
ENDBRANCH  29  31
ENDBRANCH  28  29
ENDBRANCH  27  28
ENDBRANCH   1  27
TORSDOF 6
ENDMDL
MODEL 9
REMARK VINA RESULT:      -7.0      4.037      9.199
REMARK  Name = 
REMARK  8 active torsions:
REMARK  status: ('A' for Active; 'I' for Inactive)
REMARK    1  A    between atoms: C_1  and  C_2
REMARK    2  A    between atoms: C_2  and  O_4
REMARK    3  A    between atoms: O_4  and  C_5
REMARK    4  A    between atoms: C_5  and  O_6
REMARK    5  A    between atoms: O_6  and  P_7
REMARK    6  A    between atoms: C_13  and  N_14
REMARK    7  A    between atoms: N_20  and  C_21
REMARK    8  A    between atoms: C_26  and  O_27
REMARK                            x       y       z     vdW  Elec       q    Type
REMARK                         _______ _______ _______ _____ _____    ______ ____
ROOT
ATOM      1  P   UNL     1      -1.098  10.955  18.831  0.00  0.00    +0.000 P 
ATOM      2  O   UNL     1      -1.196  10.026  17.669  0.00  0.00    +0.000 OA
ATOM      3  O   UNL     1      -0.181  12.255  18.624  0.00  0.00    +0.000 OA
ATOM      4  C   UNL     1       1.198  12.025  18.375  0.00  0.00    +0.000 C 
ATOM      5  C   UNL     1       1.730  10.746  19.025  0.00  0.00    +0.000 C 
ATOM      6  O   UNL     1       1.606   9.648  18.102  0.00  0.00    +0.000 OA
ATOM      7  C   UNL     1       1.447   8.434  18.875  0.00  0.00    +0.000 C 
ATOM      8  C   UNL     1       1.371   8.826  20.356  0.00  0.00    +0.000 C 
ATOM      9  C   UNL     1       0.977  10.290  20.269  0.00  0.00    +0.000 C 
ATOM     10  O   UNL     1      -0.447  10.329  20.159  0.00  0.00    +0.000 OA
ENDROOT
BRANCH   7  11
ATOM     11  N   UNL     1       2.545   7.542  18.574  0.00  0.00    +0.000 N 
ATOM     12  C   UNL     1       3.532   7.789  17.655  0.00  0.00    +0.000 A 
ATOM     13  N   UNL     1       4.360   6.770  17.539  0.00  0.00    +0.000 NA
ATOM     14  C   UNL     1       3.887   5.842  18.436  0.00  0.00    +0.000 A 
ATOM     15  C   UNL     1       4.378   4.519  18.753  0.00  0.00    +0.000 A 
ATOM     16  O   UNL     1       5.358   4.021  18.207  0.00  0.00    +0.000 OA
ATOM     17  N   UNL     1       3.611   3.875  19.749  0.00  0.00    +0.000 N 
ATOM     18  C   UNL     1       4.029   2.536  20.121  0.00  0.00    +0.000 C 
ATOM     19  C   UNL     1       2.507   4.481  20.362  0.00  0.00    +0.000 A 
ATOM     20  N   UNL     1       1.840   3.826  21.354  0.00  0.00    +0.000 N 
ATOM     21  N   UNL     1       2.050   5.668  20.045  0.00  0.00    +0.000 NA
ATOM     22  C   UNL     1       2.775   6.298  19.094  0.00  0.00    +0.000 A 
ATOM     23  H   UNL     1       1.867   2.818  21.397  0.00  0.00    +0.000 HD
ATOM     24  H   UNL     1       0.939   4.229  21.581  0.00  0.00    +0.000 HD
ENDBRANCH   7  11
BRANCH   8  25
ATOM     25  O   UNL     1       0.413   8.059  21.088  0.00  0.00    +0.000 OA
ATOM     26  H   UNL     1      -0.210   7.686  20.432  0.00  0.00    +0.000 HD
ENDBRANCH   8  25
BRANCH   1  27
ATOM     27  O   UNL     1      -2.495  11.512  19.366  0.00  0.00    +0.000 OA
BRANCH  27  28
ATOM     28  C   UNL     1      -3.486  11.702  18.388  0.00  0.00    +0.000 C 
BRANCH  28  29
ATOM     29  O   UNL     1      -4.781  11.856  18.966  0.00  0.00    +0.000 OA
BRANCH  29  31
ATOM     30  C   UNL     1      -6.799  10.757  18.542  0.00  0.00    +0.000 C 
ATOM     31  C   UNL     1      -5.795  11.760  18.067  0.00  0.00    +0.000 C 
ATOM     32  O   UNL     1      -5.863  12.335  16.990  0.00  0.00    +0.000 OA
ENDBRANCH  29  31
ENDBRANCH  28  29
ENDBRANCH  27  28
ENDBRANCH   1  27
TORSDOF 6
ENDMDL
