MODEL 1
REMARK VINA RESULT:      -6.9      0.000      0.000
REMARK  Name = 
REMARK  7 active torsions:
REMARK  status: ('A' for Active; 'I' for Inactive)
REMARK    1  A    between atoms: C_2  and  C_3
REMARK    2  A    between atoms: C_3  and  N_4
REMARK    3  A    between atoms: N_4  and  C_5
REMARK    4  A    between atoms: C_5  and  C_6
REMARK    5  A    between atoms: C_6  and  C_7
REMARK    6  A    between atoms: C_6  and  C_13
REMARK    7  A    between atoms: C_7  and  N_8
REMARK                            x       y       z     vdW  Elec       q    Type
REMARK                         _______ _______ _______ _____ _____    ______ ____
ROOT
ATOM      1  C   UNL     1       6.472   5.456  18.016  0.00  0.00    +0.000 C 
ENDROOT
BRANCH   1   2
ATOM      2  C   UNL     1       5.065   4.992  18.429  0.00  0.00    +0.000 A 
ATOM      3  C   UNL     1       4.876   3.740  19.049  0.00  0.00    +0.000 A 
ATOM      4  C   UNL     1       3.614   3.319  19.472  0.00  0.00    +0.000 A 
ATOM      5  C   UNL     1       2.509   4.133  19.264  0.00  0.00    +0.000 A 
ATOM      6 CL   UNL     1       0.958   3.615  19.797  0.00  0.00    +0.000 Cl
ATOM      7  C   UNL     1       2.653   5.360  18.628  0.00  0.00    +0.000 A 
ATOM      8  C   UNL     1       3.920   5.787  18.211  0.00  0.00    +0.000 A 
ATOM      9 CL   UNL     1       4.002   7.323  17.419  0.00  0.00    +0.000 Cl
ENDBRANCH   1   2
BRANCH   1  10
ATOM     10  C   UNL     1       7.285   6.036  19.207  0.00  0.00    +0.000 C 
BRANCH  10  11
ATOM     11  N   UNL     1       8.348   6.966  18.819  0.00  0.00    +0.000 NA
ATOM     12  H   UNL     1       8.648   7.496  19.642  0.00  0.00    +0.000 HD
BRANCH  11  13
ATOM     13  C   UNL     1       7.822   7.943  17.860  0.00  0.00    +0.000 C 
BRANCH  13  15
ATOM     14  C   UNL     1       8.861  10.345  18.362  0.00  0.00    +0.000 C 
ATOM     15  C   UNL     1       8.392   9.265  18.139  0.00  0.00    +0.000 C 
ENDBRANCH  13  15
ENDBRANCH  11  13
ENDBRANCH  10  11
ENDBRANCH   1  10
BRANCH   1  16
ATOM     16  C   UNL     1       7.232   4.378  17.218  0.00  0.00    +0.000 C 
BRANCH  16  17
ATOM     17  N   UNL     1       6.967   4.359  15.798  0.00  0.00    +0.000 N 
ATOM     18  C   UNL     1       5.971   3.697  15.146  0.00  0.00    +0.000 A 
ATOM     19  N   UNL     1       5.965   4.050  13.882  0.00  0.00    +0.000 NA
ATOM     20  C   UNL     1       6.980   4.960  13.813  0.00  0.00    +0.000 A 
ATOM     21  N   UNL     1       7.642   5.165  14.956  0.00  0.00    +0.000 NA
ENDBRANCH  16  17
ENDBRANCH   1  16
TORSDOF 7
ENDMDL
MODEL 2
REMARK VINA RESULT:      -6.6      1.298      1.928
REMARK  Name = 
REMARK  7 active torsions:
REMARK  status: ('A' for Active; 'I' for Inactive)
REMARK    1  A    between atoms: C_2  and  C_3
REMARK    2  A    between atoms: C_3  and  N_4
REMARK    3  A    between atoms: N_4  and  C_5
REMARK    4  A    between atoms: C_5  and  C_6
REMARK    5  A    between atoms: C_6  and  C_7
REMARK    6  A    between atoms: C_6  and  C_13
REMARK    7  A    between atoms: C_7  and  N_8
REMARK                            x       y       z     vdW  Elec       q    Type
REMARK                         _______ _______ _______ _____ _____    ______ ____
ROOT
ATOM      1  C   UNL     1       5.389   4.837  16.311  0.00  0.00    +0.000 C 
ENDROOT
BRANCH   1   2
ATOM      2  C   UNL     1       4.204   4.638  17.271  0.00  0.00    +0.000 A 
ATOM      3  C   UNL     1       3.772   3.342  17.619  0.00  0.00    +0.000 A 
ATOM      4  C   UNL     1       2.728   3.138  18.523  0.00  0.00    +0.000 A 
ATOM      5  C   UNL     1       2.078   4.230  19.083  0.00  0.00    +0.000 A 
ATOM      6 CL   UNL     1       0.800   3.974  20.205  0.00  0.00    +0.000 Cl
ATOM      7  C   UNL     1       2.456   5.521  18.739  0.00  0.00    +0.000 A 
ATOM      8  C   UNL     1       3.509   5.726  17.839  0.00  0.00    +0.000 A 
ATOM      9 CL   UNL     1       3.903   7.368  17.463  0.00  0.00    +0.000 Cl
ENDBRANCH   1   2
BRANCH   1  10
ATOM     10  C   UNL     1       6.661   4.066  16.762  0.00  0.00    +0.000 C 
BRANCH  10  11
ATOM     11  N   UNL     1       7.811   4.921  17.069  0.00  0.00    +0.000 NA
ATOM     12  H   UNL     1       8.612   4.333  17.313  0.00  0.00    +0.000 HD
BRANCH  11  13
ATOM     13  C   UNL     1       7.515   5.739  18.250  0.00  0.00    +0.000 C 
BRANCH  13  15
ATOM     14  C   UNL     1       7.817   8.320  17.657  0.00  0.00    +0.000 C 
ATOM     15  C   UNL     1       7.681   7.159  17.921  0.00  0.00    +0.000 C 
ENDBRANCH  13  15
ENDBRANCH  11  13
ENDBRANCH  10  11
ENDBRANCH   1  10
BRANCH   1  16
ATOM     16  C   UNL     1       5.000   4.579  14.842  0.00  0.00    +0.000 C 
BRANCH  16  17
ATOM     17  N   UNL     1       6.107   4.495  13.916  0.00  0.00    +0.000 N 
ATOM     18  C   UNL     1       6.237   3.663  12.847  0.00  0.00    +0.000 A 
ATOM     19  N   UNL     1       7.306   3.992  12.162  0.00  0.00    +0.000 NA
ATOM     20  C   UNL     1       7.795   5.064  12.854  0.00  0.00    +0.000 A 
ATOM     21  N   UNL     1       7.109   5.395  13.952  0.00  0.00    +0.000 NA
ENDBRANCH  16  17
ENDBRANCH   1  16
TORSDOF 7
ENDMDL
MODEL 3
REMARK VINA RESULT:      -6.6      3.621      5.903
REMARK  Name = 
REMARK  7 active torsions:
REMARK  status: ('A' for Active; 'I' for Inactive)
REMARK    1  A    between atoms: C_2  and  C_3
REMARK    2  A    between atoms: C_3  and  N_4
REMARK    3  A    between atoms: N_4  and  C_5
REMARK    4  A    between atoms: C_5  and  C_6
REMARK    5  A    between atoms: C_6  and  C_7
REMARK    6  A    between atoms: C_6  and  C_13
REMARK    7  A    between atoms: C_7  and  N_8
REMARK                            x       y       z     vdW  Elec       q    Type
REMARK                         _______ _______ _______ _____ _____    ______ ____
ROOT
ATOM      1  C   UNL     1       4.865   4.096  18.730  0.00  0.00    +0.000 C 
ENDROOT
BRANCH   1   2
ATOM      2  C   UNL     1       5.552   4.320  17.372  0.00  0.00    +0.000 A 
ATOM      3  C   UNL     1       4.917   3.933  16.174  0.00  0.00    +0.000 A 
ATOM      4  C   UNL     1       5.503   4.166  14.929  0.00  0.00    +0.000 A 
ATOM      5  C   UNL     1       6.749   4.775  14.856  0.00  0.00    +0.000 A 
ATOM      6 CL   UNL     1       7.462   5.070  13.320  0.00  0.00    +0.000 Cl
ATOM      7  C   UNL     1       7.418   5.141  16.017  0.00  0.00    +0.000 A 
ATOM      8  C   UNL     1       6.826   4.915  17.267  0.00  0.00    +0.000 A 
ATOM      9 CL   UNL     1       7.737   5.395  18.657  0.00  0.00    +0.000 Cl
ENDBRANCH   1   2
BRANCH   1  10
ATOM     10  C   UNL     1       4.352   5.419  19.366  0.00  0.00    +0.000 C 
BRANCH  10  11
ATOM     11  N   UNL     1       3.705   6.334  18.421  0.00  0.00    +0.000 NA
ATOM     12  H   UNL     1       4.345   7.104  18.207  0.00  0.00    +0.000 HD
BRANCH  11  13
ATOM     13  C   UNL     1       2.522   6.933  19.047  0.00  0.00    +0.000 C 
BRANCH  13  15
ATOM     14  C   UNL     1       1.926   9.229  17.831  0.00  0.00    +0.000 C 
ATOM     15  C   UNL     1       2.197   8.197  18.379  0.00  0.00    +0.000 C 
ENDBRANCH  13  15
ENDBRANCH  11  13
ENDBRANCH  10  11
ENDBRANCH   1  10
BRANCH   1  16
ATOM     16  C   UNL     1       3.797   2.987  18.669  0.00  0.00    +0.000 C 
BRANCH  16  17
ATOM     17  N   UNL     1       2.907   2.923  19.806  0.00  0.00    +0.000 N 
ATOM     18  C   UNL     1       3.204   2.526  21.074  0.00  0.00    +0.000 A 
ATOM     19  N   UNL     1       2.176   2.755  21.857  0.00  0.00    +0.000 NA
ATOM     20  C   UNL     1       1.266   3.322  21.010  0.00  0.00    +0.000 A 
ATOM     21  N   UNL     1       1.658   3.423  19.736  0.00  0.00    +0.000 NA
ENDBRANCH  16  17
ENDBRANCH   1  16
TORSDOF 7
ENDMDL
MODEL 4
REMARK VINA RESULT:      -6.5      1.516      1.992
REMARK  Name = 
REMARK  7 active torsions:
REMARK  status: ('A' for Active; 'I' for Inactive)
REMARK    1  A    between atoms: C_2  and  C_3
REMARK    2  A    between atoms: C_3  and  N_4
REMARK    3  A    between atoms: N_4  and  C_5
REMARK    4  A    between atoms: C_5  and  C_6
REMARK    5  A    between atoms: C_6  and  C_7
REMARK    6  A    between atoms: C_6  and  C_13
REMARK    7  A    between atoms: C_7  and  N_8
REMARK                            x       y       z     vdW  Elec       q    Type
REMARK                         _______ _______ _______ _____ _____    ______ ____
ROOT
ATOM      1  C   UNL     1       4.811   5.381  18.380  0.00  0.00    +0.000 C 
ENDROOT
BRANCH   1   2
ATOM      2  C   UNL     1       3.829   4.653  19.314  0.00  0.00    +0.000 A 
ATOM      3  C   UNL     1       3.993   3.282  19.599  0.00  0.00    +0.000 A 
ATOM      4  C   UNL     1       3.140   2.613  20.478  0.00  0.00    +0.000 A 
ATOM      5  C   UNL     1       2.090   3.297  21.076  0.00  0.00    +0.000 A 
ATOM      6 CL   UNL     1       1.049   2.471  22.167  0.00  0.00    +0.000 Cl
ATOM      7  C   UNL     1       1.880   4.641  20.795  0.00  0.00    +0.000 A 
ATOM      8  C   UNL     1       2.741   5.315  19.920  0.00  0.00    +0.000 A 
ATOM      9 CL   UNL     1       2.396   6.984  19.622  0.00  0.00    +0.000 Cl
ENDBRANCH   1   2
BRANCH   1  10
ATOM     10  C   UNL     1       6.277   4.893  18.555  0.00  0.00    +0.000 C 
BRANCH  10  11
ATOM     11  N   UNL     1       6.970   5.458  19.716  0.00  0.00    +0.000 NA
ATOM     12  H   UNL     1       6.411   6.224  20.100  0.00  0.00    +0.000 HD
BRANCH  11  13
ATOM     13  C   UNL     1       8.247   6.040  19.291  0.00  0.00    +0.000 C 
BRANCH  13  15
ATOM     14  C   UNL     1       7.800   8.074  17.628  0.00  0.00    +0.000 C 
ATOM     15  C   UNL     1       7.999   7.160  18.378  0.00  0.00    +0.000 C 
ENDBRANCH  13  15
ENDBRANCH  11  13
ENDBRANCH  10  11
ENDBRANCH   1  10
BRANCH   1  16
ATOM     16  C   UNL     1       4.333   5.383  16.915  0.00  0.00    +0.000 C 
BRANCH  16  17
ATOM     17  N   UNL     1       5.318   4.969  15.943  0.00  0.00    +0.000 N 
ATOM     18  C   UNL     1       5.499   3.726  15.419  0.00  0.00    +0.000 A 
ATOM     19  N   UNL     1       6.389   3.781  14.456  0.00  0.00    +0.000 NA
ATOM     20  C   UNL     1       6.713   5.107  14.415  0.00  0.00    +0.000 A 
ATOM     21  N   UNL     1       6.102   5.873  15.325  0.00  0.00    +0.000 NA
ENDBRANCH  16  17
ENDBRANCH   1  16
TORSDOF 7
ENDMDL
MODEL 5
REMARK VINA RESULT:      -6.5      1.070      1.119
REMARK  Name = 
REMARK  7 active torsions:
REMARK  status: ('A' for Active; 'I' for Inactive)
REMARK    1  A    between atoms: C_2  and  C_3
REMARK    2  A    between atoms: C_3  and  N_4
REMARK    3  A    between atoms: N_4  and  C_5
REMARK    4  A    between atoms: C_5  and  C_6
REMARK    5  A    between atoms: C_6  and  C_7
REMARK    6  A    between atoms: C_6  and  C_13
REMARK    7  A    between atoms: C_7  and  N_8
REMARK                            x       y       z     vdW  Elec       q    Type
REMARK                         _______ _______ _______ _____ _____    ______ ____
ROOT
ATOM      1  C   UNL     1       5.211   5.432  17.459  0.00  0.00    +0.000 C 
ENDROOT
BRANCH   1   2
ATOM      2  C   UNL     1       4.186   4.784  18.405  0.00  0.00    +0.000 A 
ATOM      3  C   UNL     1       4.461   3.548  19.025  0.00  0.00    +0.000 A 
ATOM      4  C   UNL     1       3.564   2.965  19.921  0.00  0.00    +0.000 A 
ATOM      5  C   UNL     1       2.360   3.596  20.201  0.00  0.00    +0.000 A 
ATOM      6 CL   UNL     1       1.262   2.879  21.314  0.00  0.00    +0.000 Cl
ATOM      7  C   UNL     1       2.041   4.800  19.585  0.00  0.00    +0.000 A 
ATOM      8  C   UNL     1       2.945   5.390  18.692  0.00  0.00    +0.000 A 
ATOM      9 CL   UNL     1       2.458   6.883  17.966  0.00  0.00    +0.000 Cl
ENDBRANCH   1   2
BRANCH   1  10
ATOM     10  C   UNL     1       5.751   6.786  17.999  0.00  0.00    +0.000 C 
BRANCH  10  11
ATOM     11  N   UNL     1       6.788   7.400  17.165  0.00  0.00    +0.000 NA
ATOM     12  H   UNL     1       7.015   6.769  16.391  0.00  0.00    +0.000 HD
BRANCH  11  13
ATOM     13  C   UNL     1       8.017   7.563  17.948  0.00  0.00    +0.000 C 
BRANCH  13  15
ATOM     14  C   UNL     1       8.569  10.158  18.211  0.00  0.00    +0.000 C 
ATOM     15  C   UNL     1       8.322   8.990  18.095  0.00  0.00    +0.000 C 
ENDBRANCH  13  15
ENDBRANCH  11  13
ENDBRANCH  10  11
ENDBRANCH   1  10
BRANCH   1  16
ATOM     16  C   UNL     1       6.322   4.449  17.040  0.00  0.00    +0.000 C 
BRANCH  16  17
ATOM     17  N   UNL     1       6.587   4.386  15.621  0.00  0.00    +0.000 N 
ATOM     18  C   UNL     1       5.952   3.624  14.689  0.00  0.00    +0.000 A 
ATOM     19  N   UNL     1       6.370   3.958  13.490  0.00  0.00    +0.000 NA
ATOM     20  C   UNL     1       7.262   4.960  13.746  0.00  0.00    +0.000 A 
ATOM     21  N   UNL     1       7.449   5.242  15.039  0.00  0.00    +0.000 NA
ENDBRANCH  16  17
ENDBRANCH   1  16
TORSDOF 7
ENDMDL
MODEL 6
REMARK VINA RESULT:      -6.5      2.294      5.081
REMARK  Name = 
REMARK  7 active torsions:
REMARK  status: ('A' for Active; 'I' for Inactive)
REMARK    1  A    between atoms: C_2  and  C_3
REMARK    2  A    between atoms: C_3  and  N_4
REMARK    3  A    between atoms: N_4  and  C_5
REMARK    4  A    between atoms: C_5  and  C_6
REMARK    5  A    between atoms: C_6  and  C_7
REMARK    6  A    between atoms: C_6  and  C_13
REMARK    7  A    between atoms: C_7  and  N_8
REMARK                            x       y       z     vdW  Elec       q    Type
REMARK                         _______ _______ _______ _____ _____    ______ ____
ROOT
ATOM      1  C   UNL     1       4.264   4.541  18.582  0.00  0.00    +0.000 C 
ENDROOT
BRANCH   1   2
ATOM      2  C   UNL     1       3.479   5.854  18.734  0.00  0.00    +0.000 A 
ATOM      3  C   UNL     1       3.610   6.884  17.779  0.00  0.00    +0.000 A 
ATOM      4  C   UNL     1       2.874   8.065  17.875  0.00  0.00    +0.000 A 
ATOM      5  C   UNL     1       2.004   8.252  18.940  0.00  0.00    +0.000 A 
ATOM      6 CL   UNL     1       1.090   9.705  19.048  0.00  0.00    +0.000 Cl
ATOM      7  C   UNL     1       1.872   7.273  19.917  0.00  0.00    +0.000 A 
ATOM      8  C   UNL     1       2.605   6.083  19.817  0.00  0.00    +0.000 A 
ATOM      9 CL   UNL     1       2.384   4.925  21.083  0.00  0.00    +0.000 Cl
ENDBRANCH   1   2
BRANCH   1  10
ATOM     10  C   UNL     1       3.740   3.663  17.411  0.00  0.00    +0.000 C 
BRANCH  10  11
ATOM     11  N   UNL     1       3.907   2.221  17.613  0.00  0.00    +0.000 NA
ATOM     12  H   UNL     1       3.399   1.718  16.881  0.00  0.00    +0.000 HD
BRANCH  11  13
ATOM     13  C   UNL     1       3.303   1.830  18.890  0.00  0.00    +0.000 C 
BRANCH  13  15
ATOM     14  C   UNL     1       0.693   2.369  18.845  0.00  0.00    +0.000 C 
ATOM     15  C   UNL     1       1.867   2.127  18.868  0.00  0.00    +0.000 C 
ENDBRANCH  13  15
ENDBRANCH  11  13
ENDBRANCH  10  11
ENDBRANCH   1  10
BRANCH   1  16
ATOM     16  C   UNL     1       5.788   4.771  18.545  0.00  0.00    +0.000 C 
BRANCH  16  17
ATOM     17  N   UNL     1       6.344   5.020  17.234  0.00  0.00    +0.000 N 
ATOM     18  C   UNL     1       7.035   6.116  16.818  0.00  0.00    +0.000 A 
ATOM     19  N   UNL     1       7.507   5.904  15.612  0.00  0.00    +0.000 NA
ATOM     20  C   UNL     1       7.087   4.634  15.337  0.00  0.00    +0.000 A 
ATOM     21  N   UNL     1       6.347   4.059  16.291  0.00  0.00    +0.000 NA
ENDBRANCH  16  17
ENDBRANCH   1  16
TORSDOF 7
ENDMDL
MODEL 7
REMARK VINA RESULT:      -6.5      1.297      1.438
REMARK  Name = 
REMARK  7 active torsions:
REMARK  status: ('A' for Active; 'I' for Inactive)
REMARK    1  A    between atoms: C_2  and  C_3
REMARK    2  A    between atoms: C_3  and  N_4
REMARK    3  A    between atoms: N_4  and  C_5
REMARK    4  A    between atoms: C_5  and  C_6
REMARK    5  A    between atoms: C_6  and  C_7
REMARK    6  A    between atoms: C_6  and  C_13
REMARK    7  A    between atoms: C_7  and  N_8
REMARK                            x       y       z     vdW  Elec       q    Type
REMARK                         _______ _______ _______ _____ _____    ______ ____
ROOT
ATOM      1  C   UNL     1       5.277   6.033  17.089  0.00  0.00    +0.000 C 
ENDROOT
BRANCH   1   2
ATOM      2  C   UNL     1       4.128   5.101  17.511  0.00  0.00    +0.000 A 
ATOM      3  C   UNL     1       4.289   3.701  17.470  0.00  0.00    +0.000 A 
ATOM      4  C   UNL     1       3.276   2.838  17.890  0.00  0.00    +0.000 A 
ATOM      5  C   UNL     1       2.069   3.357  18.341  0.00  0.00    +0.000 A 
ATOM      6 CL   UNL     1       0.828   2.290  18.867  0.00  0.00    +0.000 Cl
ATOM      7  C   UNL     1       1.864   4.731  18.365  0.00  0.00    +0.000 A 
ATOM      8  C   UNL     1       2.884   5.598  17.952  0.00  0.00    +0.000 A 
ATOM      9 CL   UNL     1       2.535   7.291  18.007  0.00  0.00    +0.000 Cl
ENDBRANCH   1   2
BRANCH   1  10
ATOM     10  C   UNL     1       6.659   5.556  17.617  0.00  0.00    +0.000 C 
BRANCH  10  11
ATOM     11  N   UNL     1       7.438   6.593  18.299  0.00  0.00    +0.000 NA
ATOM     12  H   UNL     1       6.912   6.930  19.110  0.00  0.00    +0.000 HD
BRANCH  11  13
ATOM     13  C   UNL     1       7.615   7.743  17.407  0.00  0.00    +0.000 C 
BRANCH  13  15
ATOM     14  C   UNL     1       8.880   9.696  18.706  0.00  0.00    +0.000 C 
ATOM     15  C   UNL     1       8.309   8.820  18.121  0.00  0.00    +0.000 C 
ENDBRANCH  13  15
ENDBRANCH  11  13
ENDBRANCH  10  11
ENDBRANCH   1  10
BRANCH   1  16
ATOM     16  C   UNL     1       5.264   6.330  15.577  0.00  0.00    +0.000 C 
BRANCH  16  17
ATOM     17  N   UNL     1       5.953   5.364  14.752  0.00  0.00    +0.000 N 
ATOM     18  C   UNL     1       5.417   4.302  14.090  0.00  0.00    +0.000 A 
ATOM     19  N   UNL     1       6.333   3.754  13.327  0.00  0.00    +0.000 NA
ATOM     20  C   UNL     1       7.426   4.543  13.545  0.00  0.00    +0.000 A 
ATOM     21  N   UNL     1       7.251   5.529  14.431  0.00  0.00    +0.000 NA
ENDBRANCH  16  17
ENDBRANCH   1  16
TORSDOF 7
ENDMDL
MODEL 8
REMARK VINA RESULT:      -6.5      1.954      4.733
REMARK  Name = 
REMARK  7 active torsions:
REMARK  status: ('A' for Active; 'I' for Inactive)
REMARK    1  A    between atoms: C_2  and  C_3
REMARK    2  A    between atoms: C_3  and  N_4
REMARK    3  A    between atoms: N_4  and  C_5
REMARK    4  A    between atoms: C_5  and  C_6
REMARK    5  A    between atoms: C_6  and  C_7
REMARK    6  A    between atoms: C_6  and  C_13
REMARK    7  A    between atoms: C_7  and  N_8
REMARK                            x       y       z     vdW  Elec       q    Type
REMARK                         _______ _______ _______ _____ _____    ______ ____
ROOT
ATOM      1  C   UNL     1       5.417   4.678  16.635  0.00  0.00    +0.000 C 
ENDROOT
BRANCH   1   2
ATOM      2  C   UNL     1       4.474   5.351  17.647  0.00  0.00    +0.000 A 
ATOM      3  C   UNL     1       3.956   6.638  17.399  0.00  0.00    +0.000 A 
ATOM      4  C   UNL     1       3.064   7.248  18.283  0.00  0.00    +0.000 A 
ATOM      5  C   UNL     1       2.687   6.591  19.447  0.00  0.00    +0.000 A 
ATOM      6 CL   UNL     1       1.580   7.342  20.527  0.00  0.00    +0.000 Cl
ATOM      7  C   UNL     1       3.203   5.335  19.739  0.00  0.00    +0.000 A 
ATOM      8  C   UNL     1       4.091   4.718  18.848  0.00  0.00    +0.000 A 
ATOM      9 CL   UNL     1       4.688   3.159  19.300  0.00  0.00    +0.000 Cl
ENDBRANCH   1   2
BRANCH   1  10
ATOM     10  C   UNL     1       5.197   5.187  15.183  0.00  0.00    +0.000 C 
BRANCH  10  11
ATOM     11  N   UNL     1       6.358   5.028  14.303  0.00  0.00    +0.000 NA
ATOM     12  H   UNL     1       6.254   5.645  13.493  0.00  0.00    +0.000 HD
BRANCH  11  13
ATOM     13  C   UNL     1       6.397   3.657  13.783  0.00  0.00    +0.000 C 
BRANCH  13  15
ATOM     14  C   UNL     1       4.746   3.435  11.702  0.00  0.00    +0.000 C 
ATOM     15  C   UNL     1       5.488   3.537  12.638  0.00  0.00    +0.000 C 
ENDBRANCH  13  15
ENDBRANCH  11  13
ENDBRANCH  10  11
ENDBRANCH   1  10
BRANCH   1  16
ATOM     16  C   UNL     1       6.890   4.724  17.088  0.00  0.00    +0.000 C 
BRANCH  16  17
ATOM     17  N   UNL     1       7.353   6.011  17.553  0.00  0.00    +0.000 N 
ATOM     18  C   UNL     1       7.876   6.316  18.772  0.00  0.00    +0.000 A 
ATOM     19  N   UNL     1       8.322   7.551  18.761  0.00  0.00    +0.000 NA
ATOM     20  C   UNL     1       8.063   7.958  17.483  0.00  0.00    +0.000 A 
ATOM     21  N   UNL     1       7.445   7.058  16.711  0.00  0.00    +0.000 NA
ENDBRANCH  16  17
ENDBRANCH   1  16
TORSDOF 7
ENDMDL
MODEL 9
REMARK VINA RESULT:      -6.4      1.566      2.207
REMARK  Name = 
REMARK  7 active torsions:
REMARK  status: ('A' for Active; 'I' for Inactive)
REMARK    1  A    between atoms: C_2  and  C_3
REMARK    2  A    between atoms: C_3  and  N_4
REMARK    3  A    between atoms: N_4  and  C_5
REMARK    4  A    between atoms: C_5  and  C_6
REMARK    5  A    between atoms: C_6  and  C_7
REMARK    6  A    between atoms: C_6  and  C_13
REMARK    7  A    between atoms: C_7  and  N_8
REMARK                            x       y       z     vdW  Elec       q    Type
REMARK                         _______ _______ _______ _____ _____    ______ ____
ROOT
ATOM      1  C   UNL     1       5.432   4.857  16.016  0.00  0.00    +0.000 C 
ENDROOT
BRANCH   1   2
ATOM      2  C   UNL     1       4.271   4.651  17.004  0.00  0.00    +0.000 A 
ATOM      3  C   UNL     1       3.831   3.353  17.333  0.00  0.00    +0.000 A 
ATOM      4  C   UNL     1       2.810   3.142  18.261  0.00  0.00    +0.000 A 
ATOM      5  C   UNL     1       2.191   4.229  18.865  0.00  0.00    +0.000 A 
ATOM      6 CL   UNL     1       0.940   3.964  20.015  0.00  0.00    +0.000 Cl
ATOM      7  C   UNL     1       2.577   5.523  18.541  0.00  0.00    +0.000 A 
ATOM      8  C   UNL     1       3.608   5.735  17.617  0.00  0.00    +0.000 A 
ATOM      9 CL   UNL     1       4.015   7.380  17.268  0.00  0.00    +0.000 Cl
ENDBRANCH   1   2
BRANCH   1  10
ATOM     10  C   UNL     1       6.816   4.905  16.720  0.00  0.00    +0.000 C 
BRANCH  10  11
ATOM     11  N   UNL     1       7.558   6.152  16.514  0.00  0.00    +0.000 NA
ATOM     12  H   UNL     1       8.552   5.937  16.401  0.00  0.00    +0.000 HD
BRANCH  11  13
ATOM     13  C   UNL     1       7.445   6.996  17.708  0.00  0.00    +0.000 C 
BRANCH  13  15
ATOM     14  C   UNL     1       8.057   5.569  19.874  0.00  0.00    +0.000 C 
ATOM     15  C   UNL     1       7.784   6.212  18.900  0.00  0.00    +0.000 C 
ENDBRANCH  13  15
ENDBRANCH  11  13
ENDBRANCH  10  11
ENDBRANCH   1  10
BRANCH   1  16
ATOM     16  C   UNL     1       5.376   3.869  14.834  0.00  0.00    +0.000 C 
BRANCH  16  17
ATOM     17  N   UNL     1       6.306   4.136  13.761  0.00  0.00    +0.000 N 
ATOM     18  C   UNL     1       6.384   3.513  12.553  0.00  0.00    +0.000 A 
ATOM     19  N   UNL     1       7.252   4.139  11.793  0.00  0.00    +0.000 NA
ATOM     20  C   UNL     1       7.670   5.168  12.588  0.00  0.00    +0.000 A 
ATOM     21  N   UNL     1       7.137   5.195  13.814  0.00  0.00    +0.000 NA
ENDBRANCH  16  17
ENDBRANCH   1  16
TORSDOF 7
ENDMDL
