MODEL 1
REMARK VINA RESULT:      -6.3      0.000      0.000
REMARK  Name = 
REMARK  20 active torsions:
REMARK  status: ('A' for Active; 'I' for Inactive)
REMARK    1  A    between atoms: C_1  and  C_2
REMARK    2  A    between atoms: C_2  and  C_3
REMARK    3  A    between atoms: C_3  and  C_4
REMARK    4  A    between atoms: C_4  and  C_5
REMARK    5  A    between atoms: C_5  and  C_6
REMARK    6  A    between atoms: C_6  and  O_7
REMARK    7  A    between atoms: C_6  and  C_8
REMARK    8  A    between atoms: C_8  and  C_9
REMARK    9  A    between atoms: C_9  and  C_10
REMARK   10  A    between atoms: C_10  and  N_11
REMARK   11  A    between atoms: N_11  and  C_12
REMARK   12  A    between atoms: N_11  and  S_21
REMARK   13  A    between atoms: C_12  and  C_13
REMARK   14  A    between atoms: C_13  and  C_14
REMARK   15  A    between atoms: C_14  and  C_15
REMARK   16  A    between atoms: C_15  and  C_16
REMARK   17  A    between atoms: C_16  and  C_17
REMARK   18  A    between atoms: C_17  and  C_18
REMARK   19  A    between atoms: C_18  and  O_20
REMARK   20  A    between atoms: S_21  and  C_22
REMARK                            x       y       z     vdW  Elec       q    Type
REMARK                         _______ _______ _______ _____ _____    ______ ____
ROOT
ATOM      1  N   UNL     1       5.479   6.734  17.403  0.00  0.00    +0.000 NA
ENDROOT
BRANCH   1   2
ATOM      2  S   UNL     1       7.175   7.081  17.478  0.00  0.00    +0.000 S 
ATOM      3  C   UNL     1       7.710   6.056  18.841  0.00  0.00    +0.000 C 
ATOM      4  O   UNL     1       7.796   6.570  16.273  0.00  0.00    +0.000 OA
ATOM      5  O   UNL     1       7.366   8.458  17.868  0.00  0.00    +0.000 OA
ENDBRANCH   1   2
BRANCH   1   6
ATOM      6  C   UNL     1       4.884   5.952  18.534  0.00  0.00    +0.000 C 
BRANCH   6   7
ATOM      7  C   UNL     1       3.439   6.301  18.903  0.00  0.00    +0.000 C 
BRANCH   7   8
ATOM      8  C   UNL     1       2.401   5.234  18.547  0.00  0.00    +0.000 C 
BRANCH   8   9
ATOM      9  C   UNL     1       1.781   4.579  19.779  0.00  0.00    +0.000 C 
BRANCH   9  10
ATOM     10  C   UNL     1       1.607   3.073  19.579  0.00  0.00    +0.000 C 
BRANCH  10  11
ATOM     11  C   UNL     1       2.902   2.441  19.090  0.00  0.00    +0.000 C 
BRANCH  11  12
ATOM     12  C   UNL     1       3.962   2.420  20.165  0.00  0.00    +0.000 C 
ATOM     13  O   UNL     1       3.764   2.235  21.354  0.00  0.00    +0.000 OA
BRANCH  12  14
ATOM     14  O   UNL     1       5.202   2.633  19.661  0.00  0.00    +0.000 OA
ATOM     15  H   UNL     1       5.516   1.918  19.079  0.00  0.00    +0.000 HD
ENDBRANCH  12  14
ENDBRANCH  11  12
ENDBRANCH  10  11
ENDBRANCH   9  10
ENDBRANCH   8   9
ENDBRANCH   7   8
ENDBRANCH   6   7
ENDBRANCH   1   6
BRANCH   1  16
ATOM     16  C   UNL     1       5.059   6.248  16.042  0.00  0.00    +0.000 C 
BRANCH  16  17
ATOM     17  C   UNL     1       4.859   4.739  15.904  0.00  0.00    +0.000 C 
BRANCH  17  18
ATOM     18  C   UNL     1       6.145   3.936  15.667  0.00  0.00    +0.000 C 
BRANCH  18  19
ATOM     19  C   UNL     1       6.524   3.945  14.176  0.00  0.00    +0.000 C 
BRANCH  19  20
ATOM     20  O   UNL     1       7.248   5.138  13.877  0.00  0.00    +0.000 OA
ATOM     21  H   UNL     1       7.082   5.363  12.945  0.00  0.00    +0.000 HD
ENDBRANCH  19  20
BRANCH  19  22
ATOM     22  C   UNL     1       5.296   3.850  13.264  0.00  0.00    +0.000 C 
BRANCH  22  23
ATOM     23  C   UNL     1       5.681   3.557  11.808  0.00  0.00    +0.000 C 
BRANCH  23  24
ATOM     24  C   UNL     1       4.692   2.580  11.170  0.00  0.00    +0.000 C 
BRANCH  24  26
ATOM     25  C   UNL     1       3.233   4.039   9.738  0.00  0.00    +0.000 C 
ATOM     26  C   UNL     1       3.306   3.204  11.007  0.00  0.00    +0.000 C 
ENDBRANCH  24  26
ENDBRANCH  23  24
ENDBRANCH  22  23
ENDBRANCH  19  22
ENDBRANCH  18  19
ENDBRANCH  17  18
ENDBRANCH  16  17
ENDBRANCH   1  16
TORSDOF 18
ENDMDL
MODEL 2
REMARK VINA RESULT:      -6.1      1.886      2.492
REMARK  Name = 
REMARK  20 active torsions:
REMARK  status: ('A' for Active; 'I' for Inactive)
REMARK    1  A    between atoms: C_1  and  C_2
REMARK    2  A    between atoms: C_2  and  C_3
REMARK    3  A    between atoms: C_3  and  C_4
REMARK    4  A    between atoms: C_4  and  C_5
REMARK    5  A    between atoms: C_5  and  C_6
REMARK    6  A    between atoms: C_6  and  O_7
REMARK    7  A    between atoms: C_6  and  C_8
REMARK    8  A    between atoms: C_8  and  C_9
REMARK    9  A    between atoms: C_9  and  C_10
REMARK   10  A    between atoms: C_10  and  N_11
REMARK   11  A    between atoms: N_11  and  C_12
REMARK   12  A    between atoms: N_11  and  S_21
REMARK   13  A    between atoms: C_12  and  C_13
REMARK   14  A    between atoms: C_13  and  C_14
REMARK   15  A    between atoms: C_14  and  C_15
REMARK   16  A    between atoms: C_15  and  C_16
REMARK   17  A    between atoms: C_16  and  C_17
REMARK   18  A    between atoms: C_17  and  C_18
REMARK   19  A    between atoms: C_18  and  O_20
REMARK   20  A    between atoms: S_21  and  C_22
REMARK                            x       y       z     vdW  Elec       q    Type
REMARK                         _______ _______ _______ _____ _____    ______ ____
ROOT
ATOM      1  N   UNL     1       6.118   5.210  17.017  0.00  0.00    +0.000 NA
ENDROOT
BRANCH   1   2
ATOM      2  S   UNL     1       7.143   5.260  18.414  0.00  0.00    +0.000 S 
ATOM      3  C   UNL     1       7.783   6.927  18.354  0.00  0.00    +0.000 C 
ATOM      4  O   UNL     1       6.308   5.151  19.593  0.00  0.00    +0.000 OA
ATOM      5  O   UNL     1       8.256   4.359  18.224  0.00  0.00    +0.000 OA
ENDBRANCH   1   2
BRANCH   1   6
ATOM      6  C   UNL     1       4.643   5.341  17.239  0.00  0.00    +0.000 C 
BRANCH   6   7
ATOM      7  C   UNL     1       4.131   6.757  17.520  0.00  0.00    +0.000 C 
BRANCH   7   8
ATOM      8  C   UNL     1       2.800   6.830  18.272  0.00  0.00    +0.000 C 
BRANCH   8   9
ATOM      9  C   UNL     1       2.761   5.917  19.495  0.00  0.00    +0.000 C 
BRANCH   9  10
ATOM     10  C   UNL     1       1.714   4.814  19.331  0.00  0.00    +0.000 C 
BRANCH  10  11
ATOM     11  C   UNL     1       2.358   3.439  19.442  0.00  0.00    +0.000 C 
BRANCH  11  12
ATOM     12  C   UNL     1       1.571   2.386  18.700  0.00  0.00    +0.000 C 
ATOM     13  O   UNL     1       0.356   2.293  18.675  0.00  0.00    +0.000 OA
BRANCH  12  14
ATOM     14  O   UNL     1       2.378   1.522  18.036  0.00  0.00    +0.000 OA
ATOM     15  H   UNL     1       1.943   1.078  17.286  0.00  0.00    +0.000 HD
ENDBRANCH  12  14
ENDBRANCH  11  12
ENDBRANCH  10  11
ENDBRANCH   9  10
ENDBRANCH   8   9
ENDBRANCH   7   8
ENDBRANCH   6   7
ENDBRANCH   1   6
BRANCH   1  16
ATOM     16  C   UNL     1       6.495   4.097  16.077  0.00  0.00    +0.000 C 
BRANCH  16  17
ATOM     17  C   UNL     1       5.535   3.855  14.912  0.00  0.00    +0.000 C 
BRANCH  17  18
ATOM     18  C   UNL     1       6.144   4.064  13.519  0.00  0.00    +0.000 C 
BRANCH  18  19
ATOM     19  C   UNL     1       5.583   3.036  12.521  0.00  0.00    +0.000 C 
BRANCH  19  20
ATOM     20  O   UNL     1       6.653   2.262  11.983  0.00  0.00    +0.000 OA
ATOM     21  H   UNL     1       6.470   2.114  11.039  0.00  0.00    +0.000 HD
ENDBRANCH  19  20
BRANCH  19  22
ATOM     22  C   UNL     1       4.808   3.701  11.378  0.00  0.00    +0.000 C 
BRANCH  22  23
ATOM     23  C   UNL     1       3.354   3.213  11.307  0.00  0.00    +0.000 C 
BRANCH  23  24
ATOM     24  C   UNL     1       2.853   3.204   9.862  0.00  0.00    +0.000 C 
BRANCH  24  26
ATOM     25  C   UNL     1       1.896   5.259   8.778  0.00  0.00    +0.000 C 
ATOM     26  C   UNL     1       3.172   4.517   9.146  0.00  0.00    +0.000 C 
ENDBRANCH  24  26
ENDBRANCH  23  24
ENDBRANCH  22  23
ENDBRANCH  19  22
ENDBRANCH  18  19
ENDBRANCH  17  18
ENDBRANCH  16  17
ENDBRANCH   1  16
TORSDOF 18
ENDMDL
MODEL 3
REMARK VINA RESULT:      -6.1      2.214      7.015
REMARK  Name = 
REMARK  20 active torsions:
REMARK  status: ('A' for Active; 'I' for Inactive)
REMARK    1  A    between atoms: C_1  and  C_2
REMARK    2  A    between atoms: C_2  and  C_3
REMARK    3  A    between atoms: C_3  and  C_4
REMARK    4  A    between atoms: C_4  and  C_5
REMARK    5  A    between atoms: C_5  and  C_6
REMARK    6  A    between atoms: C_6  and  O_7
REMARK    7  A    between atoms: C_6  and  C_8
REMARK    8  A    between atoms: C_8  and  C_9
REMARK    9  A    between atoms: C_9  and  C_10
REMARK   10  A    between atoms: C_10  and  N_11
REMARK   11  A    between atoms: N_11  and  C_12
REMARK   12  A    between atoms: N_11  and  S_21
REMARK   13  A    between atoms: C_12  and  C_13
REMARK   14  A    between atoms: C_13  and  C_14
REMARK   15  A    between atoms: C_14  and  C_15
REMARK   16  A    between atoms: C_15  and  C_16
REMARK   17  A    between atoms: C_16  and  C_17
REMARK   18  A    between atoms: C_17  and  C_18
REMARK   19  A    between atoms: C_18  and  O_20
REMARK   20  A    between atoms: S_21  and  C_22
REMARK                            x       y       z     vdW  Elec       q    Type
REMARK                         _______ _______ _______ _____ _____    ______ ____
ROOT
ATOM      1  N   UNL     1       5.812   4.771  17.201  0.00  0.00    +0.000 NA
ENDROOT
BRANCH   1   2
ATOM      2  S   UNL     1       7.377   5.269  17.755  0.00  0.00    +0.000 S 
ATOM      3  C   UNL     1       7.083   5.573  19.492  0.00  0.00    +0.000 C 
ATOM      4  O   UNL     1       8.275   4.136  17.652  0.00  0.00    +0.000 OA
ATOM      5  O   UNL     1       7.724   6.530  17.145  0.00  0.00    +0.000 OA
ENDBRANCH   1   2
BRANCH   1   6
ATOM      6  C   UNL     1       5.067   5.711  16.304  0.00  0.00    +0.000 C 
BRANCH   6   7
ATOM      7  C   UNL     1       5.214   5.460  14.800  0.00  0.00    +0.000 C 
BRANCH   7   8
ATOM      8  C   UNL     1       5.415   3.996  14.402  0.00  0.00    +0.000 C 
BRANCH   8   9
ATOM      9  C   UNL     1       6.651   3.785  13.531  0.00  0.00    +0.000 C 
BRANCH   9  10
ATOM     10  C   UNL     1       6.281   3.710  12.049  0.00  0.00    +0.000 C 
BRANCH  10  11
ATOM     11  C   UNL     1       5.479   2.450  11.758  0.00  0.00    +0.000 C 
BRANCH  11  12
ATOM     12  C   UNL     1       6.360   1.311  11.304  0.00  0.00    +0.000 C 
ATOM     13  O   UNL     1       6.004   0.156  11.145  0.00  0.00    +0.000 OA
BRANCH  12  14
ATOM     14  O   UNL     1       7.635   1.714  11.079  0.00  0.00    +0.000 OA
ATOM     15  H   UNL     1       8.305   1.057  11.341  0.00  0.00    +0.000 HD
ENDBRANCH  12  14
ENDBRANCH  11  12
ENDBRANCH  10  11
ENDBRANCH   9  10
ENDBRANCH   8   9
ENDBRANCH   7   8
ENDBRANCH   6   7
ENDBRANCH   1   6
BRANCH   1  16
ATOM     16  C   UNL     1       4.973   4.199  18.311  0.00  0.00    +0.000 C 
BRANCH  16  17
ATOM     17  C   UNL     1       4.000   3.090  17.909  0.00  0.00    +0.000 C 
BRANCH  17  18
ATOM     18  C   UNL     1       2.516   3.466  18.008  0.00  0.00    +0.000 C 
BRANCH  18  19
ATOM     19  C   UNL     1       1.832   2.684  19.142  0.00  0.00    +0.000 C 
BRANCH  19  20
ATOM     20  O   UNL     1       0.904   1.754  18.587  0.00  0.00    +0.000 OA
ATOM     21  H   UNL     1       1.296   1.389  17.774  0.00  0.00    +0.000 HD
ENDBRANCH  19  20
BRANCH  19  22
ATOM     22  C   UNL     1       1.104   3.606  20.127  0.00  0.00    +0.000 C 
BRANCH  22  23
ATOM     23  C   UNL     1       2.064   4.584  20.817  0.00  0.00    +0.000 C 
BRANCH  23  24
ATOM     24  C   UNL     1       1.616   6.030  20.601  0.00  0.00    +0.000 C 
BRANCH  24  26
ATOM     25  C   UNL     1       1.961   8.138  19.277  0.00  0.00    +0.000 C 
ATOM     26  C   UNL     1       2.503   6.750  19.584  0.00  0.00    +0.000 C 
ENDBRANCH  24  26
ENDBRANCH  23  24
ENDBRANCH  22  23
ENDBRANCH  19  22
ENDBRANCH  18  19
ENDBRANCH  17  18
ENDBRANCH  16  17
ENDBRANCH   1  16
TORSDOF 18
ENDMDL
MODEL 4
REMARK VINA RESULT:      -6.0      3.573      6.214
REMARK  Name = 
REMARK  20 active torsions:
REMARK  status: ('A' for Active; 'I' for Inactive)
REMARK    1  A    between atoms: C_1  and  C_2
REMARK    2  A    between atoms: C_2  and  C_3
REMARK    3  A    between atoms: C_3  and  C_4
REMARK    4  A    between atoms: C_4  and  C_5
REMARK    5  A    between atoms: C_5  and  C_6
REMARK    6  A    between atoms: C_6  and  O_7
REMARK    7  A    between atoms: C_6  and  C_8
REMARK    8  A    between atoms: C_8  and  C_9
REMARK    9  A    between atoms: C_9  and  C_10
REMARK   10  A    between atoms: C_10  and  N_11
REMARK   11  A    between atoms: N_11  and  C_12
REMARK   12  A    between atoms: N_11  and  S_21
REMARK   13  A    between atoms: C_12  and  C_13
REMARK   14  A    between atoms: C_13  and  C_14
REMARK   15  A    between atoms: C_14  and  C_15
REMARK   16  A    between atoms: C_15  and  C_16
REMARK   17  A    between atoms: C_16  and  C_17
REMARK   18  A    between atoms: C_17  and  C_18
REMARK   19  A    between atoms: C_18  and  O_20
REMARK   20  A    between atoms: S_21  and  C_22
REMARK                            x       y       z     vdW  Elec       q    Type
REMARK                         _______ _______ _______ _____ _____    ______ ____
ROOT
ATOM      1  N   UNL     1       4.762   5.748  17.739  0.00  0.00    +0.000 NA
ENDROOT
BRANCH   1   2
ATOM      2  S   UNL     1       6.458   6.071  17.582  0.00  0.00    +0.000 S 
ATOM      3  C   UNL     1       7.025   4.661  16.640  0.00  0.00    +0.000 C 
ATOM      4  O   UNL     1       6.620   7.248  16.752  0.00  0.00    +0.000 OA
ATOM      5  O   UNL     1       7.082   6.005  18.882  0.00  0.00    +0.000 OA
ENDBRANCH   1   2
BRANCH   1   6
ATOM      6  C   UNL     1       4.239   4.490  17.117  0.00  0.00    +0.000 C 
BRANCH   6   7
ATOM      7  C   UNL     1       3.907   3.352  18.085  0.00  0.00    +0.000 C 
BRANCH   7   8
ATOM      8  C   UNL     1       2.838   2.372  17.595  0.00  0.00    +0.000 C 
BRANCH   8   9
ATOM      9  C   UNL     1       1.658   2.255  18.556  0.00  0.00    +0.000 C 
BRANCH   9  10
ATOM     10  C   UNL     1       1.184   3.631  19.024  0.00  0.00    +0.000 C 
BRANCH  10  11
ATOM     11  C   UNL     1       0.836   3.606  20.505  0.00  0.00    +0.000 C 
BRANCH  11  12
ATOM     12  C   UNL     1       2.060   3.754  21.376  0.00  0.00    +0.000 C 
ATOM     13  O   UNL     1       2.556   2.875  22.060  0.00  0.00    +0.000 OA
BRANCH  12  14
ATOM     14  O   UNL     1       2.576   5.006  21.319  0.00  0.00    +0.000 OA
ATOM     15  H   UNL     1       3.383   5.121  21.853  0.00  0.00    +0.000 HD
ENDBRANCH  12  14
ENDBRANCH  11  12
ENDBRANCH  10  11
ENDBRANCH   9  10
ENDBRANCH   8   9
ENDBRANCH   7   8
ENDBRANCH   6   7
ENDBRANCH   1   6
BRANCH   1  16
ATOM     16  C   UNL     1       3.925   6.964  17.449  0.00  0.00    +0.000 C 
BRANCH  16  17
ATOM     17  C   UNL     1       2.524   6.971  18.061  0.00  0.00    +0.000 C 
BRANCH  17  18
ATOM     18  C   UNL     1       2.215   8.178  18.957  0.00  0.00    +0.000 C 
BRANCH  18  19
ATOM     19  C   UNL     1       1.327   9.191  18.216  0.00  0.00    +0.000 C 
BRANCH  19  20
ATOM     20  O   UNL     1       2.121   9.934  17.292  0.00  0.00    +0.000 OA
ATOM     21  H   UNL     1       1.522  10.336  16.638  0.00  0.00    +0.000 HD
ENDBRANCH  19  20
BRANCH  19  22
ATOM     22  C   UNL     1       0.622  10.156  19.175  0.00  0.00    +0.000 C 
BRANCH  22  23
ATOM     23  C   UNL     1      -0.902  10.144  18.988  0.00  0.00    +0.000 C 
BRANCH  23  24
ATOM     24  C   UNL     1      -1.268   9.923  17.520  0.00  0.00    +0.000 C 
BRANCH  24  26
ATOM     25  C   UNL     1      -3.417  11.152  17.950  0.00  0.00    +0.000 C 
ATOM     26  C   UNL     1      -2.782   9.927  17.308  0.00  0.00    +0.000 C 
ENDBRANCH  24  26
ENDBRANCH  23  24
ENDBRANCH  22  23
ENDBRANCH  19  22
ENDBRANCH  18  19
ENDBRANCH  17  18
ENDBRANCH  16  17
ENDBRANCH   1  16
TORSDOF 18
ENDMDL
MODEL 5
REMARK VINA RESULT:      -6.0      3.582      6.696
REMARK  Name = 
REMARK  20 active torsions:
REMARK  status: ('A' for Active; 'I' for Inactive)
REMARK    1  A    between atoms: C_1  and  C_2
REMARK    2  A    between atoms: C_2  and  C_3
REMARK    3  A    between atoms: C_3  and  C_4
REMARK    4  A    between atoms: C_4  and  C_5
REMARK    5  A    between atoms: C_5  and  C_6
REMARK    6  A    between atoms: C_6  and  O_7
REMARK    7  A    between atoms: C_6  and  C_8
REMARK    8  A    between atoms: C_8  and  C_9
REMARK    9  A    between atoms: C_9  and  C_10
REMARK   10  A    between atoms: C_10  and  N_11
REMARK   11  A    between atoms: N_11  and  C_12
REMARK   12  A    between atoms: N_11  and  S_21
REMARK   13  A    between atoms: C_12  and  C_13
REMARK   14  A    between atoms: C_13  and  C_14
REMARK   15  A    between atoms: C_14  and  C_15
REMARK   16  A    between atoms: C_15  and  C_16
REMARK   17  A    between atoms: C_16  and  C_17
REMARK   18  A    between atoms: C_17  and  C_18
REMARK   19  A    between atoms: C_18  and  O_20
REMARK   20  A    between atoms: S_21  and  C_22
REMARK                            x       y       z     vdW  Elec       q    Type
REMARK                         _______ _______ _______ _____ _____    ______ ____
ROOT
ATOM      1  N   UNL     1       5.744   5.278  17.315  0.00  0.00    +0.000 NA
ENDROOT
BRANCH   1   2
ATOM      2  S   UNL     1       7.154   4.890  16.384  0.00  0.00    +0.000 S 
ATOM      3  C   UNL     1       6.499   3.766  15.159  0.00  0.00    +0.000 C 
ATOM      4  O   UNL     1       7.585   6.090  15.695  0.00  0.00    +0.000 OA
ATOM      5  O   UNL     1       8.081   4.148  17.205  0.00  0.00    +0.000 OA
ENDBRANCH   1   2
BRANCH   1   6
ATOM      6  C   UNL     1       5.149   6.640  17.131  0.00  0.00    +0.000 C 
BRANCH   6   7
ATOM      7  C   UNL     1       3.668   6.780  17.497  0.00  0.00    +0.000 C 
BRANCH   7   8
ATOM      8  C   UNL     1       3.205   8.207  17.798  0.00  0.00    +0.000 C 
BRANCH   8   9
ATOM      9  C   UNL     1       1.817   8.255  18.433  0.00  0.00    +0.000 C 
BRANCH   9  10
ATOM     10  C   UNL     1       0.961   9.362  17.816  0.00  0.00    +0.000 C 
BRANCH  10  11
ATOM     11  C   UNL     1       0.487  10.336  18.885  0.00  0.00    +0.000 C 
BRANCH  11  12
ATOM     12  C   UNL     1      -0.851  10.945  18.542  0.00  0.00    +0.000 C 
ATOM     13  O   UNL     1      -1.511  11.667  19.269  0.00  0.00    +0.000 OA
BRANCH  12  14
ATOM     14  O   UNL     1      -1.262  10.599  17.298  0.00  0.00    +0.000 OA
ATOM     15  H   UNL     1      -0.754  11.026  16.584  0.00  0.00    +0.000 HD
ENDBRANCH  12  14
ENDBRANCH  11  12
ENDBRANCH  10  11
ENDBRANCH   9  10
ENDBRANCH   8   9
ENDBRANCH   7   8
ENDBRANCH   6   7
ENDBRANCH   1   6
BRANCH   1  16
ATOM     16  C   UNL     1       5.885   4.865  18.755  0.00  0.00    +0.000 C 
BRANCH  16  17
ATOM     17  C   UNL     1       4.914   3.788  19.239  0.00  0.00    +0.000 C 
BRANCH  17  18
ATOM     18  C   UNL     1       4.141   3.068  18.126  0.00  0.00    +0.000 C 
BRANCH  18  19
ATOM     19  C   UNL     1       3.366   1.866  18.693  0.00  0.00    +0.000 C 
BRANCH  19  20
ATOM     20  O   UNL     1       3.991   0.655  18.269  0.00  0.00    +0.000 OA
ATOM     21  H   UNL     1       4.869   0.880  17.915  0.00  0.00    +0.000 HD
ENDBRANCH  19  20
BRANCH  19  22
ATOM     22  C   UNL     1       1.898   1.863  18.255  0.00  0.00    +0.000 C 
BRANCH  22  23
ATOM     23  C   UNL     1       0.948   2.166  19.423  0.00  0.00    +0.000 C 
BRANCH  23  24
ATOM     24  C   UNL     1       0.815   3.674  19.639  0.00  0.00    +0.000 C 
BRANCH  24  26
ATOM     25  C   UNL     1       2.099   5.520  20.760  0.00  0.00    +0.000 C 
ATOM     26  C   UNL     1       1.513   4.125  20.922  0.00  0.00    +0.000 C 
ENDBRANCH  24  26
ENDBRANCH  23  24
ENDBRANCH  22  23
ENDBRANCH  19  22
ENDBRANCH  18  19
ENDBRANCH  17  18
ENDBRANCH  16  17
ENDBRANCH   1  16
TORSDOF 18
ENDMDL
MODEL 6
REMARK VINA RESULT:      -6.0      1.850      2.374
REMARK  Name = 
REMARK  20 active torsions:
REMARK  status: ('A' for Active; 'I' for Inactive)
REMARK    1  A    between atoms: C_1  and  C_2
REMARK    2  A    between atoms: C_2  and  C_3
REMARK    3  A    between atoms: C_3  and  C_4
REMARK    4  A    between atoms: C_4  and  C_5
REMARK    5  A    between atoms: C_5  and  C_6
REMARK    6  A    between atoms: C_6  and  O_7
REMARK    7  A    between atoms: C_6  and  C_8
REMARK    8  A    between atoms: C_8  and  C_9
REMARK    9  A    between atoms: C_9  and  C_10
REMARK   10  A    between atoms: C_10  and  N_11
REMARK   11  A    between atoms: N_11  and  C_12
REMARK   12  A    between atoms: N_11  and  S_21
REMARK   13  A    between atoms: C_12  and  C_13
REMARK   14  A    between atoms: C_13  and  C_14
REMARK   15  A    between atoms: C_14  and  C_15
REMARK   16  A    between atoms: C_15  and  C_16
REMARK   17  A    between atoms: C_16  and  C_17
REMARK   18  A    between atoms: C_17  and  C_18
REMARK   19  A    between atoms: C_18  and  O_20
REMARK   20  A    between atoms: S_21  and  C_22
REMARK                            x       y       z     vdW  Elec       q    Type
REMARK                         _______ _______ _______ _____ _____    ______ ____
ROOT
ATOM      1  N   UNL     1       5.775   5.879  18.531  0.00  0.00    +0.000 NA
ENDROOT
BRANCH   1   2
ATOM      2  S   UNL     1       7.434   5.763  19.020  0.00  0.00    +0.000 S 
ATOM      3  C   UNL     1       8.060   4.490  17.934  0.00  0.00    +0.000 C 
ATOM      4  O   UNL     1       8.096   7.004  18.671  0.00  0.00    +0.000 OA
ATOM      5  O   UNL     1       7.501   5.256  20.370  0.00  0.00    +0.000 OA
ENDBRANCH   1   2
BRANCH   1   6
ATOM      6  C   UNL     1       4.960   4.622  18.554  0.00  0.00    +0.000 C 
BRANCH   6   7
ATOM      7  C   UNL     1       3.469   4.784  18.243  0.00  0.00    +0.000 C 
BRANCH   7   8
ATOM      8  C   UNL     1       2.814   3.584  17.555  0.00  0.00    +0.000 C 
BRANCH   8   9
ATOM      9  C   UNL     1       2.651   2.386  18.486  0.00  0.00    +0.000 C 
BRANCH   9  10
ATOM     10  C   UNL     1       1.272   2.378  19.147  0.00  0.00    +0.000 C 
BRANCH  10  11
ATOM     11  C   UNL     1       1.076   3.626  19.998  0.00  0.00    +0.000 C 
BRANCH  11  12
ATOM     12  C   UNL     1       1.726   3.493  21.354  0.00  0.00    +0.000 C 
ATOM     13  O   UNL     1       1.632   2.530  22.095  0.00  0.00    +0.000 OA
BRANCH  12  14
ATOM     14  O   UNL     1       2.456   4.589  21.677  0.00  0.00    +0.000 OA
ATOM     15  H   UNL     1       1.914   5.376  21.873  0.00  0.00    +0.000 HD
ENDBRANCH  12  14
ENDBRANCH  11  12
ENDBRANCH  10  11
ENDBRANCH   9  10
ENDBRANCH   8   9
ENDBRANCH   7   8
ENDBRANCH   6   7
ENDBRANCH   1   6
BRANCH   1  16
ATOM     16  C   UNL     1       5.610   6.687  17.272  0.00  0.00    +0.000 C 
BRANCH  16  17
ATOM     17  C   UNL     1       6.179   6.061  15.998  0.00  0.00    +0.000 C 
BRANCH  17  18
ATOM     18  C   UNL     1       5.145   5.369  15.100  0.00  0.00    +0.000 C 
BRANCH  18  19
ATOM     19  C   UNL     1       5.747   4.114  14.446  0.00  0.00    +0.000 C 
BRANCH  19  20
ATOM     20  O   UNL     1       6.199   3.219  15.460  0.00  0.00    +0.000 OA
ATOM     21  H   UNL     1       7.028   3.575  15.826  0.00  0.00    +0.000 HD
ENDBRANCH  19  20
BRANCH  19  22
ATOM     22  C   UNL     1       6.910   4.451  13.506  0.00  0.00    +0.000 C 
BRANCH  22  23
ATOM     23  C   UNL     1       6.812   3.694  12.174  0.00  0.00    +0.000 C 
BRANCH  23  24
ATOM     24  C   UNL     1       5.436   3.043  12.018  0.00  0.00    +0.000 C 
BRANCH  24  26
ATOM     25  C   UNL     1       6.960   1.306  11.032  0.00  0.00    +0.000 C 
ATOM     26  C   UNL     1       5.515   1.739  11.223  0.00  0.00    +0.000 C 
ENDBRANCH  24  26
ENDBRANCH  23  24
ENDBRANCH  22  23
ENDBRANCH  19  22
ENDBRANCH  18  19
ENDBRANCH  17  18
ENDBRANCH  16  17
ENDBRANCH   1  16
TORSDOF 18
ENDMDL
MODEL 7
REMARK VINA RESULT:      -5.9      1.298      1.555
REMARK  Name = 
REMARK  20 active torsions:
REMARK  status: ('A' for Active; 'I' for Inactive)
REMARK    1  A    between atoms: C_1  and  C_2
REMARK    2  A    between atoms: C_2  and  C_3
REMARK    3  A    between atoms: C_3  and  C_4
REMARK    4  A    between atoms: C_4  and  C_5
REMARK    5  A    between atoms: C_5  and  C_6
REMARK    6  A    between atoms: C_6  and  O_7
REMARK    7  A    between atoms: C_6  and  C_8
REMARK    8  A    between atoms: C_8  and  C_9
REMARK    9  A    between atoms: C_9  and  C_10
REMARK   10  A    between atoms: C_10  and  N_11
REMARK   11  A    between atoms: N_11  and  C_12
REMARK   12  A    between atoms: N_11  and  S_21
REMARK   13  A    between atoms: C_12  and  C_13
REMARK   14  A    between atoms: C_13  and  C_14
REMARK   15  A    between atoms: C_14  and  C_15
REMARK   16  A    between atoms: C_15  and  C_16
REMARK   17  A    between atoms: C_16  and  C_17
REMARK   18  A    between atoms: C_17  and  C_18
REMARK   19  A    between atoms: C_18  and  O_20
REMARK   20  A    between atoms: S_21  and  C_22
REMARK                            x       y       z     vdW  Elec       q    Type
REMARK                         _______ _______ _______ _____ _____    ______ ____
ROOT
ATOM      1  N   UNL     1       5.846   6.254  17.819  0.00  0.00    +0.000 NA
ENDROOT
BRANCH   1   2
ATOM      2  S   UNL     1       7.275   5.653  18.595  0.00  0.00    +0.000 S 
ATOM      3  C   UNL     1       8.306   7.111  18.666  0.00  0.00    +0.000 C 
ATOM      4  O   UNL     1       6.933   5.289  19.955  0.00  0.00    +0.000 OA
ATOM      5  O   UNL     1       7.927   4.701  17.728  0.00  0.00    +0.000 OA
ENDBRANCH   1   2
BRANCH   1   6
ATOM      6  C   UNL     1       4.538   5.639  18.211  0.00  0.00    +0.000 C 
BRANCH   6   7
ATOM      7  C   UNL     1       3.296   6.507  17.989  0.00  0.00    +0.000 C 
BRANCH   7   8
ATOM      8  C   UNL     1       1.958   5.775  18.125  0.00  0.00    +0.000 C 
BRANCH   8   9
ATOM      9  C   UNL     1       2.038   4.568  19.056  0.00  0.00    +0.000 C 
BRANCH   9  10
ATOM     10  C   UNL     1       1.901   3.258  18.279  0.00  0.00    +0.000 C 
BRANCH  10  11
ATOM     11  C   UNL     1       2.301   2.072  19.147  0.00  0.00    +0.000 C 
BRANCH  11  12
ATOM     12  C   UNL     1       3.780   1.783  19.060  0.00  0.00    +0.000 C 
ATOM     13  O   UNL     1       4.657   2.377  19.664  0.00  0.00    +0.000 OA
BRANCH  12  14
ATOM     14  O   UNL     1       4.049   0.757  18.216  0.00  0.00    +0.000 OA
ATOM     15  H   UNL     1       3.749  -0.110  18.545  0.00  0.00    +0.000 HD
ENDBRANCH  12  14
ENDBRANCH  11  12
ENDBRANCH  10  11
ENDBRANCH   9  10
ENDBRANCH   8   9
ENDBRANCH   7   8
ENDBRANCH   6   7
ENDBRANCH   1   6
BRANCH   1  16
ATOM     16  C   UNL     1       6.028   6.400  16.332  0.00  0.00    +0.000 C 
BRANCH  16  17
ATOM     17  C   UNL     1       5.207   5.447  15.463  0.00  0.00    +0.000 C 
BRANCH  17  18
ATOM     18  C   UNL     1       5.834   4.063  15.253  0.00  0.00    +0.000 C 
BRANCH  18  19
ATOM     19  C   UNL     1       6.798   4.079  14.054  0.00  0.00    +0.000 C 
BRANCH  19  20
ATOM     20  O   UNL     1       6.987   5.423  13.614  0.00  0.00    +0.000 OA
ATOM     21  H   UNL     1       7.933   5.542  13.416  0.00  0.00    +0.000 HD
ENDBRANCH  19  20
BRANCH  19  22
ATOM     22  C   UNL     1       6.287   3.226  12.887  0.00  0.00    +0.000 C 
BRANCH  22  23
ATOM     23  C   UNL     1       4.958   3.752  12.329  0.00  0.00    +0.000 C 
BRANCH  23  24
ATOM     24  C   UNL     1       4.550   2.977  11.075  0.00  0.00    +0.000 C 
BRANCH  24  26
ATOM     25  C   UNL     1       2.929   4.166   9.569  0.00  0.00    +0.000 C 
ATOM     26  C   UNL     1       3.077   3.194  10.730  0.00  0.00    +0.000 C 
ENDBRANCH  24  26
ENDBRANCH  23  24
ENDBRANCH  22  23
ENDBRANCH  19  22
ENDBRANCH  18  19
ENDBRANCH  17  18
ENDBRANCH  16  17
ENDBRANCH   1  16
TORSDOF 18
ENDMDL
MODEL 8
REMARK VINA RESULT:      -5.9      3.713      7.131
REMARK  Name = 
REMARK  20 active torsions:
REMARK  status: ('A' for Active; 'I' for Inactive)
REMARK    1  A    between atoms: C_1  and  C_2
REMARK    2  A    between atoms: C_2  and  C_3
REMARK    3  A    between atoms: C_3  and  C_4
REMARK    4  A    between atoms: C_4  and  C_5
REMARK    5  A    between atoms: C_5  and  C_6
REMARK    6  A    between atoms: C_6  and  O_7
REMARK    7  A    between atoms: C_6  and  C_8
REMARK    8  A    between atoms: C_8  and  C_9
REMARK    9  A    between atoms: C_9  and  C_10
REMARK   10  A    between atoms: C_10  and  N_11
REMARK   11  A    between atoms: N_11  and  C_12
REMARK   12  A    between atoms: N_11  and  S_21
REMARK   13  A    between atoms: C_12  and  C_13
REMARK   14  A    between atoms: C_13  and  C_14
REMARK   15  A    between atoms: C_14  and  C_15
REMARK   16  A    between atoms: C_15  and  C_16
REMARK   17  A    between atoms: C_16  and  C_17
REMARK   18  A    between atoms: C_17  and  C_18
REMARK   19  A    between atoms: C_18  and  O_20
REMARK   20  A    between atoms: S_21  and  C_22
REMARK                            x       y       z     vdW  Elec       q    Type
REMARK                         _______ _______ _______ _____ _____    ______ ____
ROOT
ATOM      1  N   UNL     1       4.771   6.573  17.872  0.00  0.00    +0.000 NA
ENDROOT
BRANCH   1   2
ATOM      2  S   UNL     1       6.195   6.448  16.892  0.00  0.00    +0.000 S 
ATOM      3  C   UNL     1       6.966   4.970  17.535  0.00  0.00    +0.000 C 
ATOM      4  O   UNL     1       5.785   6.174  15.530  0.00  0.00    +0.000 OA
ATOM      5  O   UNL     1       7.074   7.557  17.180  0.00  0.00    +0.000 OA
ENDBRANCH   1   2
BRANCH   1   6
ATOM      6  C   UNL     1       4.231   5.310  18.469  0.00  0.00    +0.000 C 
BRANCH   6   7
ATOM      7  C   UNL     1       3.335   4.468  17.556  0.00  0.00    +0.000 C 
BRANCH   7   8
ATOM      8  C   UNL     1       1.844   4.498  17.900  0.00  0.00    +0.000 C 
BRANCH   8   9
ATOM      9  C   UNL     1       1.227   3.104  17.978  0.00  0.00    +0.000 C 
BRANCH   9  10
ATOM     10  C   UNL     1       1.428   2.483  19.361  0.00  0.00    +0.000 C 
BRANCH  10  11
ATOM     11  C   UNL     1       0.979   3.445  20.453  0.00  0.00    +0.000 C 
BRANCH  11  12
ATOM     12  C   UNL     1       2.067   3.692  21.470  0.00  0.00    +0.000 C 
ATOM     13  O   UNL     1       2.555   2.852  22.207  0.00  0.00    +0.000 OA
BRANCH  12  14
ATOM     14  O   UNL     1       2.466   4.988  21.483  0.00  0.00    +0.000 OA
ATOM     15  H   UNL     1       2.603   5.346  22.379  0.00  0.00    +0.000 HD
ENDBRANCH  12  14
ENDBRANCH  11  12
ENDBRANCH  10  11
ENDBRANCH   9  10
ENDBRANCH   8   9
ENDBRANCH   7   8
ENDBRANCH   6   7
ENDBRANCH   1   6
BRANCH   1  16
ATOM     16  C   UNL     1       3.720   7.443  17.236  0.00  0.00    +0.000 C 
BRANCH  16  17
ATOM     17  C   UNL     1       2.687   8.046  18.187  0.00  0.00    +0.000 C 
BRANCH  17  18
ATOM     18  C   UNL     1       2.038   9.347  17.696  0.00  0.00    +0.000 C 
BRANCH  18  19
ATOM     19  C   UNL     1       0.784   9.675  18.525  0.00  0.00    +0.000 C 
BRANCH  19  20
ATOM     20  O   UNL     1      -0.276  10.063  17.653  0.00  0.00    +0.000 OA
ATOM     21  H   UNL     1      -0.906  10.597  18.167  0.00  0.00    +0.000 HD
ENDBRANCH  19  20
BRANCH  19  22
ATOM     22  C   UNL     1       1.039  10.789  19.547  0.00  0.00    +0.000 C 
BRANCH  22  23
ATOM     23  C   UNL     1       0.697  10.348  20.977  0.00  0.00    +0.000 C 
BRANCH  23  24
ATOM     24  C   UNL     1      -0.595  11.012  21.457  0.00  0.00    +0.000 C 
BRANCH  24  26
ATOM     25  C   UNL     1      -0.051   9.484  23.376  0.00  0.00    +0.000 C 
ATOM     26  C   UNL     1      -0.912  10.647  22.907  0.00  0.00    +0.000 C 
ENDBRANCH  24  26
ENDBRANCH  23  24
ENDBRANCH  22  23
ENDBRANCH  19  22
ENDBRANCH  18  19
ENDBRANCH  17  18
ENDBRANCH  16  17
ENDBRANCH   1  16
TORSDOF 18
ENDMDL
MODEL 9
REMARK VINA RESULT:      -5.8      3.149      6.854
REMARK  Name = 
REMARK  20 active torsions:
REMARK  status: ('A' for Active; 'I' for Inactive)
REMARK    1  A    between atoms: C_1  and  C_2
REMARK    2  A    between atoms: C_2  and  C_3
REMARK    3  A    between atoms: C_3  and  C_4
REMARK    4  A    between atoms: C_4  and  C_5
REMARK    5  A    between atoms: C_5  and  C_6
REMARK    6  A    between atoms: C_6  and  O_7
REMARK    7  A    between atoms: C_6  and  C_8
REMARK    8  A    between atoms: C_8  and  C_9
REMARK    9  A    between atoms: C_9  and  C_10
REMARK   10  A    between atoms: C_10  and  N_11
REMARK   11  A    between atoms: N_11  and  C_12
REMARK   12  A    between atoms: N_11  and  S_21
REMARK   13  A    between atoms: C_12  and  C_13
REMARK   14  A    between atoms: C_13  and  C_14
REMARK   15  A    between atoms: C_14  and  C_15
REMARK   16  A    between atoms: C_15  and  C_16
REMARK   17  A    between atoms: C_16  and  C_17
REMARK   18  A    between atoms: C_17  and  C_18
REMARK   19  A    between atoms: C_18  and  O_20
REMARK   20  A    between atoms: S_21  and  C_22
REMARK                            x       y       z     vdW  Elec       q    Type
REMARK                         _______ _______ _______ _____ _____    ______ ____
ROOT
ATOM      1  N   UNL     1       5.440   5.502  16.871  0.00  0.00    +0.000 NA
ENDROOT
BRANCH   1   2
ATOM      2  S   UNL     1       7.163   5.641  16.741  0.00  0.00    +0.000 S 
ATOM      3  C   UNL     1       7.483   7.177  17.597  0.00  0.00    +0.000 C 
ATOM      4  O   UNL     1       7.763   4.573  17.515  0.00  0.00    +0.000 OA
ATOM      5  O   UNL     1       7.525   5.830  15.357  0.00  0.00    +0.000 OA
ENDBRANCH   1   2
BRANCH   1   6
ATOM      6  C   UNL     1       4.773   6.226  18.000  0.00  0.00    +0.000 C 
BRANCH   6   7
ATOM      7  C   UNL     1       3.343   6.706  17.735  0.00  0.00    +0.000 C 
BRANCH   7   8
ATOM      8  C   UNL     1       3.174   8.225  17.641  0.00  0.00    +0.000 C 
BRANCH   8   9
ATOM      9  C   UNL     1       1.711   8.660  17.688  0.00  0.00    +0.000 C 
BRANCH   9  10
ATOM     10  C   UNL     1       1.417   9.485  18.941  0.00  0.00    +0.000 C 
BRANCH  10  11
ATOM     11  C   UNL     1       0.754  10.805  18.574  0.00  0.00    +0.000 C 
BRANCH  11  12
ATOM     12  C   UNL     1       1.724  11.960  18.634  0.00  0.00    +0.000 C 
ATOM     13  O   UNL     1       1.802  12.776  19.536  0.00  0.00    +0.000 OA
BRANCH  12  14
ATOM     14  O   UNL     1       2.532  12.002  17.546  0.00  0.00    +0.000 OA
ATOM     15  H   UNL     1       3.452  12.249  17.752  0.00  0.00    +0.000 HD
ENDBRANCH  12  14
ENDBRANCH  11  12
ENDBRANCH  10  11
ENDBRANCH   9  10
ENDBRANCH   8   9
ENDBRANCH   7   8
ENDBRANCH   6   7
ENDBRANCH   1   6
BRANCH   1  16
ATOM     16  C   UNL     1       4.971   4.082  16.699  0.00  0.00    +0.000 C 
BRANCH  16  17
ATOM     17  C   UNL     1       4.243   3.470  17.895  0.00  0.00    +0.000 C 
BRANCH  17  18
ATOM     18  C   UNL     1       3.111   2.498  17.535  0.00  0.00    +0.000 C 
BRANCH  18  19
ATOM     19  C   UNL     1       2.607   1.763  18.789  0.00  0.00    +0.000 C 
BRANCH  19  20
ATOM     20  O   UNL     1       1.228   1.435  18.625  0.00  0.00    +0.000 OA
ATOM     21  H   UNL     1       0.783   1.579  19.478  0.00  0.00    +0.000 HD
ENDBRANCH  19  20
BRANCH  19  22
ATOM     22  C   UNL     1       2.786   2.597  20.062  0.00  0.00    +0.000 C 
BRANCH  22  23
ATOM     23  C   UNL     1       1.455   2.829  20.790  0.00  0.00    +0.000 C 
BRANCH  23  24
ATOM     24  C   UNL     1       0.952   4.256  20.565  0.00  0.00    +0.000 C 
BRANCH  24  26
ATOM     25  C   UNL     1       1.452   6.697  20.882  0.00  0.00    +0.000 C 
ATOM     26  C   UNL     1       2.033   5.291  20.878  0.00  0.00    +0.000 C 
ENDBRANCH  24  26
ENDBRANCH  23  24
ENDBRANCH  22  23
ENDBRANCH  19  22
ENDBRANCH  18  19
ENDBRANCH  17  18
ENDBRANCH  16  17
ENDBRANCH   1  16
TORSDOF 18
ENDMDL
