MODEL 1
REMARK VINA RESULT:      -7.4      0.000      0.000
REMARK  Name = 
REMARK  4 active torsions:
REMARK  status: ('A' for Active; 'I' for Inactive)
REMARK    1  A    between atoms: C_2  and  C_3
REMARK    2  A    between atoms: C_3  and  S_4
REMARK    3  A    between atoms: S_4  and  C_5
REMARK    4  A    between atoms: N_11  and  N_12
REMARK                            x       y       z     vdW  Elec       q    Type
REMARK                         _______ _______ _______ _____ _____    ______ ____
ROOT
ATOM      1  O   UNL     1       4.646   5.955  18.754  0.00  0.00    +0.000 OA
ATOM      2  C   UNL     1       3.708   5.727  17.994  0.00  0.00    +0.000 C 
ATOM      3  N   UNL     1       2.517   6.427  18.015  0.00  0.00    +0.000 N 
ATOM      4  H   UNL     1       1.673   5.925  17.761  0.00  0.00    +0.000 HD
ENDROOT
BRANCH   3   5
ATOM      5  N   UNL     1       2.306   7.503  18.884  0.00  0.00    +0.000 N 
ATOM      6  C   UNL     1       1.841   7.234  20.140  0.00  0.00    +0.000 C 
ATOM      7  O   UNL     1       1.747   6.151  20.699  0.00  0.00    +0.000 OA
ATOM      8  C   UNL     1       1.300   8.486  20.663  0.00  0.00    +0.000 A 
ATOM      9  C   UNL     1       0.751   8.758  21.901  0.00  0.00    +0.000 A 
ATOM     10  C   UNL     1       0.192  10.025  22.083  0.00  0.00    +0.000 A 
ATOM     11  C   UNL     1       0.171  10.963  21.030  0.00  0.00    +0.000 A 
ATOM     12  C   UNL     1       0.737  10.657  19.783  0.00  0.00    +0.000 A 
ATOM     13  C   UNL     1       1.317   9.410  19.633  0.00  0.00    +0.000 A 
ATOM     14  C   UNL     1       1.925   8.767  18.458  0.00  0.00    +0.000 C 
ATOM     15  O   UNL     1       1.956   9.292  17.361  0.00  0.00    +0.000 OA
ENDBRANCH   3   5
BRANCH   2  16
ATOM     16  C   UNL     1       3.748   4.548  17.024  0.00  0.00    +0.000 C 
BRANCH  16  17
ATOM     17  S   UNL     1       4.276   2.981  17.812  0.00  0.00    +0.000 S 
BRANCH  17  18
ATOM     18  C   UNL     1       3.051   2.889  19.107  0.00  0.00    +0.000 A 
ATOM     19  C   UNL     1       1.691   2.947  18.790  0.00  0.00    +0.000 A 
ATOM     20  C   UNL     1       0.729   2.929  19.802  0.00  0.00    +0.000 A 
ATOM     21  C   UNL     1       1.122   2.839  21.137  0.00  0.00    +0.000 A 
ATOM     22  C   UNL     1       2.475   2.744  21.458  0.00  0.00    +0.000 A 
ATOM     23  C   UNL     1       3.439   2.764  20.445  0.00  0.00    +0.000 A 
ENDBRANCH  17  18
ENDBRANCH  16  17
ENDBRANCH   2  16
TORSDOF 4
ENDMDL
MODEL 2
REMARK VINA RESULT:      -7.2      0.277      1.064
REMARK  Name = 
REMARK  4 active torsions:
REMARK  status: ('A' for Active; 'I' for Inactive)
REMARK    1  A    between atoms: C_2  and  C_3
REMARK    2  A    between atoms: C_3  and  S_4
REMARK    3  A    between atoms: S_4  and  C_5
REMARK    4  A    between atoms: N_11  and  N_12
REMARK                            x       y       z     vdW  Elec       q    Type
REMARK                         _______ _______ _______ _____ _____    ______ ____
ROOT
ATOM      1  O   UNL     1       4.800   6.533  18.025  0.00  0.00    +0.000 OA
ATOM      2  C   UNL     1       3.772   5.932  17.723  0.00  0.00    +0.000 C 
ATOM      3  N   UNL     1       2.512   6.301  18.154  0.00  0.00    +0.000 N 
ATOM      4  H   UNL     1       1.831   5.563  18.301  0.00  0.00    +0.000 HD
ENDROOT
BRANCH   3   5
ATOM      5  N   UNL     1       2.303   7.439  18.941  0.00  0.00    +0.000 N 
ATOM      6  C   UNL     1       1.815   7.267  20.206  0.00  0.00    +0.000 C 
ATOM      7  O   UNL     1       1.697   6.228  20.839  0.00  0.00    +0.000 OA
ATOM      8  C   UNL     1       1.285   8.560  20.629  0.00  0.00    +0.000 A 
ATOM      9  C   UNL     1       0.720   8.928  21.835  0.00  0.00    +0.000 A 
ATOM     10  C   UNL     1       0.177  10.212  21.917  0.00  0.00    +0.000 A 
ATOM     11  C   UNL     1       0.186  11.072  20.799  0.00  0.00    +0.000 A 
ATOM     12  C   UNL     1       0.767  10.671  19.587  0.00  0.00    +0.000 A 
ATOM     13  C   UNL     1       1.331   9.408  19.536  0.00  0.00    +0.000 A 
ATOM     14  C   UNL     1       1.947   8.675  18.420  0.00  0.00    +0.000 C 
ATOM     15  O   UNL     1       2.003   9.119  17.288  0.00  0.00    +0.000 OA
ENDBRANCH   3   5
BRANCH   2  16
ATOM     16  C   UNL     1       3.825   4.633  16.921  0.00  0.00    +0.000 C 
BRANCH  16  17
ATOM     17  S   UNL     1       4.473   3.216  17.883  0.00  0.00    +0.000 S 
BRANCH  17  18
ATOM     18  C   UNL     1       3.171   3.080  19.097  0.00  0.00    +0.000 A 
ATOM     19  C   UNL     1       3.487   2.998  20.456  0.00  0.00    +0.000 A 
ATOM     20  C   UNL     1       2.476   2.839  21.407  0.00  0.00    +0.000 A 
ATOM     21  C   UNL     1       1.143   2.776  21.005  0.00  0.00    +0.000 A 
ATOM     22  C   UNL     1       0.818   2.894  19.654  0.00  0.00    +0.000 A 
ATOM     23  C   UNL     1       1.830   3.052  18.701  0.00  0.00    +0.000 A 
ENDBRANCH  17  18
ENDBRANCH  16  17
ENDBRANCH   2  16
TORSDOF 4
ENDMDL
MODEL 3
REMARK VINA RESULT:      -7.2      5.468      8.151
REMARK  Name = 
REMARK  4 active torsions:
REMARK  status: ('A' for Active; 'I' for Inactive)
REMARK    1  A    between atoms: C_2  and  C_3
REMARK    2  A    between atoms: C_3  and  S_4
REMARK    3  A    between atoms: S_4  and  C_5
REMARK    4  A    between atoms: N_11  and  N_12
REMARK                            x       y       z     vdW  Elec       q    Type
REMARK                         _______ _______ _______ _____ _____    ______ ____
ROOT
ATOM      1  O   UNL     1       7.643   6.791  16.466  0.00  0.00    +0.000 OA
ATOM      2  C   UNL     1       7.487   7.169  17.625  0.00  0.00    +0.000 C 
ATOM      3  N   UNL     1       6.422   6.789  18.418  0.00  0.00    +0.000 N 
ATOM      4  H   UNL     1       6.086   7.457  19.104  0.00  0.00    +0.000 HD
ENDROOT
BRANCH   3   5
ATOM      5  N   UNL     1       5.450   5.888  17.970  0.00  0.00    +0.000 N 
ATOM      6  C   UNL     1       4.159   6.328  17.873  0.00  0.00    +0.000 C 
ATOM      7  O   UNL     1       3.741   7.474  17.951  0.00  0.00    +0.000 OA
ATOM      8  C   UNL     1       3.314   5.139  17.825  0.00  0.00    +0.000 A 
ATOM      9  C   UNL     1       1.943   5.038  17.688  0.00  0.00    +0.000 A 
ATOM     10  C   UNL     1       1.384   3.764  17.803  0.00  0.00    +0.000 A 
ATOM     11  C   UNL     1       2.195   2.643  18.080  0.00  0.00    +0.000 A 
ATOM     12  C   UNL     1       3.585   2.776  18.215  0.00  0.00    +0.000 A 
ATOM     13  C   UNL     1       4.123   4.041  18.061  0.00  0.00    +0.000 A 
ATOM     14  C   UNL     1       5.506   4.522  18.204  0.00  0.00    +0.000 C 
ATOM     15  O   UNL     1       6.424   3.800  18.548  0.00  0.00    +0.000 OA
ENDBRANCH   3   5
BRANCH   2  16
ATOM     16  C   UNL     1       8.423   8.201  18.250  0.00  0.00    +0.000 C 
BRANCH  16  17
ATOM     17  S   UNL     1       8.023   9.923  17.770  0.00  0.00    +0.000 S 
BRANCH  17  18
ATOM     18  C   UNL     1       9.379  10.762  18.573  0.00  0.00    +0.000 A 
ATOM     19  C   UNL     1      10.449  11.247  17.816  0.00  0.00    +0.000 A 
ATOM     20  C   UNL     1      11.538  11.857  18.443  0.00  0.00    +0.000 A 
ATOM     21  C   UNL     1      11.554  12.000  19.830  0.00  0.00    +0.000 A 
ATOM     22  C   UNL     1      10.473  11.551  20.588  0.00  0.00    +0.000 A 
ATOM     23  C   UNL     1       9.384  10.939  19.960  0.00  0.00    +0.000 A 
ENDBRANCH  17  18
ENDBRANCH  16  17
ENDBRANCH   2  16
TORSDOF 4
ENDMDL
MODEL 4
REMARK VINA RESULT:      -7.2      3.621      6.989
REMARK  Name = 
REMARK  4 active torsions:
REMARK  status: ('A' for Active; 'I' for Inactive)
REMARK    1  A    between atoms: C_2  and  C_3
REMARK    2  A    between atoms: C_3  and  S_4
REMARK    3  A    between atoms: S_4  and  C_5
REMARK    4  A    between atoms: N_11  and  N_12
REMARK                            x       y       z     vdW  Elec       q    Type
REMARK                         _______ _______ _______ _____ _____    ______ ____
ROOT
ATOM      1  O   UNL     1       4.152   6.349  17.002  0.00  0.00    +0.000 OA
ATOM      2  C   UNL     1       4.751   5.897  17.975  0.00  0.00    +0.000 C 
ATOM      3  N   UNL     1       5.797   4.999  17.882  0.00  0.00    +0.000 N 
ATOM      4  H   UNL     1       5.905   4.324  18.632  0.00  0.00    +0.000 HD
ENDROOT
BRANCH   3   5
ATOM      5  N   UNL     1       6.296   4.569  16.648  0.00  0.00    +0.000 N 
ATOM      6  C   UNL     1       7.108   5.418  15.950  0.00  0.00    +0.000 C 
ATOM      7  O   UNL     1       7.626   6.458  16.331  0.00  0.00    +0.000 OA
ATOM      8  C   UNL     1       7.122   4.943  14.569  0.00  0.00    +0.000 A 
ATOM      9  C   UNL     1       7.819   5.426  13.479  0.00  0.00    +0.000 A 
ATOM     10  C   UNL     1       7.539   4.849  12.238  0.00  0.00    +0.000 A 
ATOM     11  C   UNL     1       6.562   3.840  12.117  0.00  0.00    +0.000 A 
ATOM     12  C   UNL     1       5.870   3.368  13.242  0.00  0.00    +0.000 A 
ATOM     13  C   UNL     1       6.187   3.928  14.467  0.00  0.00    +0.000 A 
ATOM     14  C   UNL     1       5.610   3.709  15.802  0.00  0.00    +0.000 C 
ATOM     15  O   UNL     1       4.666   2.967  16.000  0.00  0.00    +0.000 OA
ENDBRANCH   3   5
BRANCH   2  16
ATOM     16  C   UNL     1       4.297   6.215  19.398  0.00  0.00    +0.000 C 
BRANCH  16  17
ATOM     17  S   UNL     1       2.503   6.563  19.523  0.00  0.00    +0.000 S 
BRANCH  17  18
ATOM     18  C   UNL     1       1.893   4.887  19.589  0.00  0.00    +0.000 A 
ATOM     19  C   UNL     1       1.672   4.270  20.823  0.00  0.00    +0.000 A 
ATOM     20  C   UNL     1       1.246   2.941  20.882  0.00  0.00    +0.000 A 
ATOM     21  C   UNL     1       1.024   2.227  19.705  0.00  0.00    +0.000 A 
ATOM     22  C   UNL     1       1.207   2.847  18.470  0.00  0.00    +0.000 A 
ATOM     23  C   UNL     1       1.636   4.177  18.411  0.00  0.00    +0.000 A 
ENDBRANCH  17  18
ENDBRANCH  16  17
ENDBRANCH   2  16
TORSDOF 4
ENDMDL
MODEL 5
REMARK VINA RESULT:      -7.1      5.455      8.176
REMARK  Name = 
REMARK  4 active torsions:
REMARK  status: ('A' for Active; 'I' for Inactive)
REMARK    1  A    between atoms: C_2  and  C_3
REMARK    2  A    between atoms: C_3  and  S_4
REMARK    3  A    between atoms: S_4  and  C_5
REMARK    4  A    between atoms: N_11  and  N_12
REMARK                            x       y       z     vdW  Elec       q    Type
REMARK                         _______ _______ _______ _____ _____    ______ ____
ROOT
ATOM      1  O   UNL     1       7.636   6.751  16.469  0.00  0.00    +0.000 OA
ATOM      2  C   UNL     1       7.480   7.120  17.631  0.00  0.00    +0.000 C 
ATOM      3  N   UNL     1       6.420   6.726  18.424  0.00  0.00    +0.000 N 
ATOM      4  H   UNL     1       6.079   7.387  19.115  0.00  0.00    +0.000 HD
ENDROOT
BRANCH   3   5
ATOM      5  N   UNL     1       5.454   5.821  17.973  0.00  0.00    +0.000 N 
ATOM      6  C   UNL     1       4.170   6.266  17.829  0.00  0.00    +0.000 C 
ATOM      7  O   UNL     1       3.757   7.416  17.866  0.00  0.00    +0.000 OA
ATOM      8  C   UNL     1       3.317   5.081  17.788  0.00  0.00    +0.000 A 
ATOM      9  C   UNL     1       1.950   4.985  17.615  0.00  0.00    +0.000 A 
ATOM     10  C   UNL     1       1.380   3.718  17.748  0.00  0.00    +0.000 A 
ATOM     11  C   UNL     1       2.175   2.600  18.075  0.00  0.00    +0.000 A 
ATOM     12  C   UNL     1       3.562   2.727  18.244  0.00  0.00    +0.000 A 
ATOM     13  C   UNL     1       4.113   3.985  18.073  0.00  0.00    +0.000 A 
ATOM     14  C   UNL     1       5.494   4.460  18.242  0.00  0.00    +0.000 C 
ATOM     15  O   UNL     1       6.397   3.741  18.629  0.00  0.00    +0.000 OA
ENDBRANCH   3   5
BRANCH   2  16
ATOM     16  C   UNL     1       8.409   8.156  18.260  0.00  0.00    +0.000 C 
BRANCH  16  17
ATOM     17  S   UNL     1       8.030   9.873  17.746  0.00  0.00    +0.000 S 
BRANCH  17  18
ATOM     18  C   UNL     1       9.381  10.714  18.556  0.00  0.00    +0.000 A 
ATOM     19  C   UNL     1       9.424  10.788  19.951  0.00  0.00    +0.000 A 
ATOM     20  C   UNL     1      10.450  11.491  20.589  0.00  0.00    +0.000 A 
ATOM     21  C   UNL     1      11.445  12.110  19.834  0.00  0.00    +0.000 A 
ATOM     22  C   UNL     1      11.428  12.009  18.444  0.00  0.00    +0.000 A 
ATOM     23  C   UNL     1      10.401  11.308  17.805  0.00  0.00    +0.000 A 
ENDBRANCH  17  18
ENDBRANCH  16  17
ENDBRANCH   2  16
TORSDOF 4
ENDMDL
MODEL 6
REMARK VINA RESULT:      -7.1      3.626      6.932
REMARK  Name = 
REMARK  4 active torsions:
REMARK  status: ('A' for Active; 'I' for Inactive)
REMARK    1  A    between atoms: C_2  and  C_3
REMARK    2  A    between atoms: C_3  and  S_4
REMARK    3  A    between atoms: S_4  and  C_5
REMARK    4  A    between atoms: N_11  and  N_12
REMARK                            x       y       z     vdW  Elec       q    Type
REMARK                         _______ _______ _______ _____ _____    ______ ____
ROOT
ATOM      1  O   UNL     1       4.035   6.196  17.018  0.00  0.00    +0.000 OA
ATOM      2  C   UNL     1       4.710   5.849  17.984  0.00  0.00    +0.000 C 
ATOM      3  N   UNL     1       5.827   5.041  17.888  0.00  0.00    +0.000 N 
ATOM      4  H   UNL     1       6.024   4.418  18.665  0.00  0.00    +0.000 HD
ENDROOT
BRANCH   3   5
ATOM      5  N   UNL     1       6.312   4.592  16.656  0.00  0.00    +0.000 N 
ATOM      6  C   UNL     1       7.122   5.427  15.939  0.00  0.00    +0.000 C 
ATOM      7  O   UNL     1       7.648   6.469  16.301  0.00  0.00    +0.000 OA
ATOM      8  C   UNL     1       7.121   4.933  14.564  0.00  0.00    +0.000 A 
ATOM      9  C   UNL     1       7.810   5.398  13.461  0.00  0.00    +0.000 A 
ATOM     10  C   UNL     1       7.516   4.806  12.231  0.00  0.00    +0.000 A 
ATOM     11  C   UNL     1       6.532   3.799  12.133  0.00  0.00    +0.000 A 
ATOM     12  C   UNL     1       5.848   3.347  13.271  0.00  0.00    +0.000 A 
ATOM     13  C   UNL     1       6.180   3.921  14.485  0.00  0.00    +0.000 A 
ATOM     14  C   UNL     1       5.614   3.724  15.828  0.00  0.00    +0.000 C 
ATOM     15  O   UNL     1       4.668   2.989  16.045  0.00  0.00    +0.000 OA
ENDBRANCH   3   5
BRANCH   2  16
ATOM     16  C   UNL     1       4.287   6.200  19.409  0.00  0.00    +0.000 C 
BRANCH  16  17
ATOM     17  S   UNL     1       2.490   6.517  19.571  0.00  0.00    +0.000 S 
BRANCH  17  18
ATOM     18  C   UNL     1       1.912   4.830  19.657  0.00  0.00    +0.000 A 
ATOM     19  C   UNL     1       1.600   4.137  18.484  0.00  0.00    +0.000 A 
ATOM     20  C   UNL     1       1.097   2.835  18.546  0.00  0.00    +0.000 A 
ATOM     21  C   UNL     1       0.918   2.215  19.782  0.00  0.00    +0.000 A 
ATOM     22  C   UNL     1       1.261   2.888  20.954  0.00  0.00    +0.000 A 
ATOM     23  C   UNL     1       1.763   4.192  20.892  0.00  0.00    +0.000 A 
ENDBRANCH  17  18
ENDBRANCH  16  17
ENDBRANCH   2  16
TORSDOF 4
ENDMDL
MODEL 7
REMARK VINA RESULT:      -7.1      4.279      6.836
REMARK  Name = 
REMARK  4 active torsions:
REMARK  status: ('A' for Active; 'I' for Inactive)
REMARK    1  A    between atoms: C_2  and  C_3
REMARK    2  A    between atoms: C_3  and  S_4
REMARK    3  A    between atoms: S_4  and  C_5
REMARK    4  A    between atoms: N_11  and  N_12
REMARK                            x       y       z     vdW  Elec       q    Type
REMARK                         _______ _______ _______ _____ _____    ______ ____
ROOT
ATOM      1  O   UNL     1       5.194   5.724  15.519  0.00  0.00    +0.000 OA
ATOM      2  C   UNL     1       5.784   4.668  15.733  0.00  0.00    +0.000 C 
ATOM      3  N   UNL     1       5.429   3.780  16.730  0.00  0.00    +0.000 N 
ATOM      4  H   UNL     1       6.171   3.241  17.165  0.00  0.00    +0.000 HD
ENDROOT
BRANCH   3   5
ATOM      5  N   UNL     1       4.319   3.996  17.553  0.00  0.00    +0.000 N 
ATOM      6  C   UNL     1       4.525   4.090  18.901  0.00  0.00    +0.000 C 
ATOM      7  O   UNL     1       5.585   4.196  19.501  0.00  0.00    +0.000 OA
ATOM      8  C   UNL     1       3.230   3.870  19.539  0.00  0.00    +0.000 A 
ATOM      9  C   UNL     1       2.891   3.902  20.878  0.00  0.00    +0.000 A 
ATOM     10  C   UNL     1       1.590   3.523  21.213  0.00  0.00    +0.000 A 
ATOM     11  C   UNL     1       0.683   3.099  20.220  0.00  0.00    +0.000 A 
ATOM     12  C   UNL     1       1.055   3.077  18.867  0.00  0.00    +0.000 A 
ATOM     13  C   UNL     1       2.337   3.490  18.551  0.00  0.00    +0.000 A 
ATOM     14  C   UNL     1       3.047   3.522  17.264  0.00  0.00    +0.000 C 
ATOM     15  O   UNL     1       2.556   3.111  16.228  0.00  0.00    +0.000 OA
ENDBRANCH   3   5
BRANCH   2  16
ATOM     16  C   UNL     1       7.054   4.305  14.966  0.00  0.00    +0.000 C 
BRANCH  16  17
ATOM     17  S   UNL     1       7.127   5.052  13.295  0.00  0.00    +0.000 S 
BRANCH  17  18
ATOM     18  C   UNL     1       6.611   3.640  12.332  0.00  0.00    +0.000 A 
ATOM     19  C   UNL     1       5.251   3.383  12.141  0.00  0.00    +0.000 A 
ATOM     20  C   UNL     1       4.839   2.250  11.433  0.00  0.00    +0.000 A 
ATOM     21  C   UNL     1       5.787   1.378  10.901  0.00  0.00    +0.000 A 
ATOM     22  C   UNL     1       7.146   1.648  11.057  0.00  0.00    +0.000 A 
ATOM     23  C   UNL     1       7.558   2.780  11.767  0.00  0.00    +0.000 A 
ENDBRANCH  17  18
ENDBRANCH  16  17
ENDBRANCH   2  16
TORSDOF 4
ENDMDL
MODEL 8
REMARK VINA RESULT:      -7.0      4.452      6.914
REMARK  Name = 
REMARK  4 active torsions:
REMARK  status: ('A' for Active; 'I' for Inactive)
REMARK    1  A    between atoms: C_2  and  C_3
REMARK    2  A    between atoms: C_3  and  S_4
REMARK    3  A    between atoms: S_4  and  C_5
REMARK    4  A    between atoms: N_11  and  N_12
REMARK                            x       y       z     vdW  Elec       q    Type
REMARK                         _______ _______ _______ _____ _____    ______ ____
ROOT
ATOM      1  O   UNL     1       5.220   5.727  15.850  0.00  0.00    +0.000 OA
ATOM      2  C   UNL     1       5.736   4.615  15.923  0.00  0.00    +0.000 C 
ATOM      3  N   UNL     1       5.340   3.643  16.820  0.00  0.00    +0.000 N 
ATOM      4  H   UNL     1       6.050   3.007  17.169  0.00  0.00    +0.000 HD
ENDROOT
BRANCH   3   5
ATOM      5  N   UNL     1       4.266   3.837  17.696  0.00  0.00    +0.000 N 
ATOM      6  C   UNL     1       4.514   3.792  19.040  0.00  0.00    +0.000 C 
ATOM      7  O   UNL     1       5.594   3.783  19.612  0.00  0.00    +0.000 OA
ATOM      8  C   UNL     1       3.226   3.580  19.695  0.00  0.00    +0.000 A 
ATOM      9  C   UNL     1       2.926   3.502  21.041  0.00  0.00    +0.000 A 
ATOM     10  C   UNL     1       1.616   3.161  21.382  0.00  0.00    +0.000 A 
ATOM     11  C   UNL     1       0.660   2.883  20.382  0.00  0.00    +0.000 A 
ATOM     12  C   UNL     1       0.994   2.971  19.023  0.00  0.00    +0.000 A 
ATOM     13  C   UNL     1       2.287   3.344  18.706  0.00  0.00    +0.000 A 
ATOM     14  C   UNL     1       2.963   3.462  17.404  0.00  0.00    +0.000 C 
ATOM     15  O   UNL     1       2.422   3.178  16.352  0.00  0.00    +0.000 OA
ENDBRANCH   3   5
BRANCH   2  16
ATOM     16  C   UNL     1       6.960   4.257  15.082  0.00  0.00    +0.000 C 
BRANCH  16  17
ATOM     17  S   UNL     1       6.957   5.047  13.429  0.00  0.00    +0.000 S 
BRANCH  17  18
ATOM     18  C   UNL     1       6.503   3.632  12.440  0.00  0.00    +0.000 A 
ATOM     19  C   UNL     1       7.494   2.800  11.912  0.00  0.00    +0.000 A 
ATOM     20  C   UNL     1       7.148   1.721  11.094  0.00  0.00    +0.000 A 
ATOM     21  C   UNL     1       5.808   1.462  10.812  0.00  0.00    +0.000 A 
ATOM     22  C   UNL     1       4.813   2.266  11.364  0.00  0.00    +0.000 A 
ATOM     23  C   UNL     1       5.159   3.347  12.182  0.00  0.00    +0.000 A 
ENDBRANCH  17  18
ENDBRANCH  16  17
ENDBRANCH   2  16
TORSDOF 4
ENDMDL
MODEL 9
REMARK VINA RESULT:      -7.0      3.703      5.507
REMARK  Name = 
REMARK  4 active torsions:
REMARK  status: ('A' for Active; 'I' for Inactive)
REMARK    1  A    between atoms: C_2  and  C_3
REMARK    2  A    between atoms: C_3  and  S_4
REMARK    3  A    between atoms: S_4  and  C_5
REMARK    4  A    between atoms: N_11  and  N_12
REMARK                            x       y       z     vdW  Elec       q    Type
REMARK                         _______ _______ _______ _____ _____    ______ ____
ROOT
ATOM      1  O   UNL     1       4.529   3.502  16.529  0.00  0.00    +0.000 OA
ATOM      2  C   UNL     1       4.492   4.700  16.255  0.00  0.00    +0.000 C 
ATOM      3  N   UNL     1       3.737   5.623  16.951  0.00  0.00    +0.000 N 
ATOM      4  H   UNL     1       3.364   6.411  16.433  0.00  0.00    +0.000 HD
ENDROOT
BRANCH   3   5
ATOM      5  N   UNL     1       2.983   5.267  18.074  0.00  0.00    +0.000 N 
ATOM      6  C   UNL     1       3.632   5.132  19.270  0.00  0.00    +0.000 C 
ATOM      7  O   UNL     1       4.776   5.458  19.553  0.00  0.00    +0.000 OA
ATOM      8  C   UNL     1       2.753   4.354  20.138  0.00  0.00    +0.000 A 
ATOM      9  C   UNL     1       2.924   3.979  21.456  0.00  0.00    +0.000 A 
ATOM     10  C   UNL     1       1.969   3.118  22.002  0.00  0.00    +0.000 A 
ATOM     11  C   UNL     1       0.899   2.638  21.217  0.00  0.00    +0.000 A 
ATOM     12  C   UNL     1       0.751   3.037  19.881  0.00  0.00    +0.000 A 
ATOM     13  C   UNL     1       1.687   3.917  19.369  0.00  0.00    +0.000 A 
ATOM     14  C   UNL     1       1.852   4.465  18.014  0.00  0.00    +0.000 C 
ATOM     15  O   UNL     1       1.138   4.147  17.082  0.00  0.00    +0.000 OA
ENDBRANCH   3   5
BRANCH   2  16
ATOM     16  C   UNL     1       5.208   5.248  15.022  0.00  0.00    +0.000 C 
BRANCH  16  17
ATOM     17  S   UNL     1       7.008   4.908  15.021  0.00  0.00    +0.000 S 
BRANCH  17  18
ATOM     18  C   UNL     1       7.411   5.509  16.653  0.00  0.00    +0.000 A 
ATOM     19  C   UNL     1       7.438   6.884  16.905  0.00  0.00    +0.000 A 
ATOM     20  C   UNL     1       7.803   7.363  18.165  0.00  0.00    +0.000 A 
ATOM     21  C   UNL     1       8.129   6.469  19.184  0.00  0.00    +0.000 A 
ATOM     22  C   UNL     1       8.068   5.096  18.950  0.00  0.00    +0.000 A 
ATOM     23  C   UNL     1       7.704   4.616  17.688  0.00  0.00    +0.000 A 
ENDBRANCH  17  18
ENDBRANCH  16  17
ENDBRANCH   2  16
TORSDOF 4
ENDMDL
