MODEL 1
REMARK VINA RESULT:      -7.8      0.000      0.000
REMARK  Name = 
REMARK  11 active torsions:
REMARK  status: ('A' for Active; 'I' for Inactive)
REMARK    1  A    between atoms: C_1  and  N_2
REMARK    2  A    between atoms: C_3  and  C_5
REMARK    3  A    between atoms: C_8  and  O_9
REMARK    4  A    between atoms: O_9  and  C_10
REMARK    5  A    between atoms: C_13  and  C_14
REMARK    6  A    between atoms: C_15  and  C_16
REMARK    7  A    between atoms: N_18  and  C_19
REMARK    8  A    between atoms: C_19  and  C_20
REMARK    9  A    between atoms: C_20  and  O_21
REMARK   10  A    between atoms: C_20  and  C_22
REMARK   11  A    between atoms: C_22  and  O_23
REMARK                            x       y       z     vdW  Elec       q    Type
REMARK                         _______ _______ _______ _____ _____    ______ ____
ROOT
ATOM      1  C   UNL     1       6.032   5.468  17.488  0.00  0.00    +0.000 A 
ATOM      2  C   UNL     1       6.051   6.705  16.843  0.00  0.00    +0.000 A 
ATOM      3  C   UNL     1       6.995   7.671  17.203  0.00  0.00    +0.000 A 
ATOM      4  C   UNL     1       7.891   7.446  18.257  0.00  0.00    +0.000 A 
ATOM      5  C   UNL     1       7.850   6.212  18.916  0.00  0.00    +0.000 A 
ATOM      6  C   UNL     1       6.922   5.231  18.538  0.00  0.00    +0.000 A 
ENDROOT
BRANCH   4   7
ATOM      7  C   UNL     1       8.830   8.523  18.605  0.00  0.00    +0.000 C 
ATOM      8  C   UNL     1       8.539   9.833  18.562  0.00  0.00    +0.000 C 
BRANCH   8   9
ATOM      9  C   UNL     1       9.616  10.826  18.801  0.00  0.00    +0.000 C 
ATOM     10  O   UNL     1       9.949  11.193  19.920  0.00  0.00    +0.000 OA
ATOM     11  N   UNL     1      10.209  11.272  17.647  0.00  0.00    +0.000 N 
ATOM     12  H   UNL     1       9.812  11.067  16.737  0.00  0.00    +0.000 HD
BRANCH  11  13
ATOM     13  C   UNL     1      11.270  12.260  17.697  0.00  0.00    +0.000 C 
BRANCH  13  14
ATOM     14  C   UNL     1      10.713  13.683  17.623  0.00  0.00    +0.000 C 
BRANCH  14  15
ATOM     15  O   UNL     1      10.431  14.150  18.951  0.00  0.00    +0.000 OA
ATOM     16  H   UNL     1      11.112  13.788  19.545  0.00  0.00    +0.000 HD
ENDBRANCH  14  15
BRANCH  14  17
ATOM     17  C   UNL     1      11.701  14.616  16.913  0.00  0.00    +0.000 C 
BRANCH  17  18
ATOM     18  O   UNL     1      11.016  15.580  16.118  0.00  0.00    +0.000 OA
ATOM     19  H   UNL     1      10.635  15.113  15.354  0.00  0.00    +0.000 HD
ENDBRANCH  17  18
ENDBRANCH  14  17
ENDBRANCH  13  14
ENDBRANCH  11  13
ENDBRANCH   8   9
ENDBRANCH   4   7
BRANCH   1  20
ATOM     20  O   UNL     1       5.138   4.459  17.195  0.00  0.00    +0.000 OA
BRANCH  20  24
ATOM     21  C   UNL     1       2.267   6.656  19.726  0.00  0.00    +0.000 A 
ATOM     22  C   UNL     1       3.190   6.196  18.805  0.00  0.00    +0.000 A 
ATOM     23  C   UNL     1       3.476   4.786  18.925  0.00  0.00    +0.000 A 
ATOM     24  C   UNL     1       4.358   3.940  18.208  0.00  0.00    +0.000 A 
ATOM     25  C   UNL     1       4.442   2.617  18.641  0.00  0.00    +0.000 A 
ATOM     26  N   UNL     1       3.683   2.072  19.613  0.00  0.00    +0.000 NA
ATOM     27  C   UNL     1       2.801   2.861  20.262  0.00  0.00    +0.000 A 
ATOM     28  C   UNL     1       2.711   4.218  19.945  0.00  0.00    +0.000 A 
ATOM     29  S   UNL     1       1.701   5.377  20.707  0.00  0.00    +0.000 S 
BRANCH  21  32
ATOM     30  C   UNL     1       1.250  10.129  18.710  0.00  0.00    +0.000 C 
ATOM     31  N   UNL     1       1.699   8.763  18.731  0.00  0.00    +0.000 N 
ATOM     32  C   UNL     1       1.788   8.024  19.895  0.00  0.00    +0.000 C 
ATOM     33  O   UNL     1       1.471   8.494  20.983  0.00  0.00    +0.000 OA
ATOM     34  H   UNL     1       1.970   8.318  17.863  0.00  0.00    +0.000 HD
ENDBRANCH  21  32
ENDBRANCH  20  24
ENDBRANCH   1  20
TORSDOF 10
ENDMDL
MODEL 2
REMARK VINA RESULT:      -7.8      0.685      1.052
REMARK  Name = 
REMARK  11 active torsions:
REMARK  status: ('A' for Active; 'I' for Inactive)
REMARK    1  A    between atoms: C_1  and  N_2
REMARK    2  A    between atoms: C_3  and  C_5
REMARK    3  A    between atoms: C_8  and  O_9
REMARK    4  A    between atoms: O_9  and  C_10
REMARK    5  A    between atoms: C_13  and  C_14
REMARK    6  A    between atoms: C_15  and  C_16
REMARK    7  A    between atoms: N_18  and  C_19
REMARK    8  A    between atoms: C_19  and  C_20
REMARK    9  A    between atoms: C_20  and  O_21
REMARK   10  A    between atoms: C_20  and  C_22
REMARK   11  A    between atoms: C_22  and  O_23
REMARK                            x       y       z     vdW  Elec       q    Type
REMARK                         _______ _______ _______ _____ _____    ______ ____
ROOT
ATOM      1  C   UNL     1       5.994   5.472  17.413  0.00  0.00    +0.000 A 
ATOM      2  C   UNL     1       5.997   6.736  16.819  0.00  0.00    +0.000 A 
ATOM      3  C   UNL     1       6.931   7.697  17.216  0.00  0.00    +0.000 A 
ATOM      4  C   UNL     1       7.835   7.438  18.255  0.00  0.00    +0.000 A 
ATOM      5  C   UNL     1       7.811   6.176  18.862  0.00  0.00    +0.000 A 
ATOM      6  C   UNL     1       6.892   5.202  18.447  0.00  0.00    +0.000 A 
ENDROOT
BRANCH   4   7
ATOM      7  C   UNL     1       8.763   8.510  18.644  0.00  0.00    +0.000 C 
ATOM      8  C   UNL     1       8.593   9.810  18.355  0.00  0.00    +0.000 C 
BRANCH   8   9
ATOM      9  C   UNL     1       9.671  10.775  18.681  0.00  0.00    +0.000 C 
ATOM     10  O   UNL     1      10.250  10.791  19.759  0.00  0.00    +0.000 OA
ATOM     11  N   UNL     1       9.966  11.629  17.648  0.00  0.00    +0.000 N 
ATOM     12  H   UNL     1       9.370  11.690  16.830  0.00  0.00    +0.000 HD
BRANCH  11  13
ATOM     13  C   UNL     1      10.985  12.650  17.801  0.00  0.00    +0.000 C 
BRANCH  13  14
ATOM     14  C   UNL     1      10.377  14.053  17.792  0.00  0.00    +0.000 C 
BRANCH  14  15
ATOM     15  O   UNL     1       9.019  13.978  17.331  0.00  0.00    +0.000 OA
ATOM     16  H   UNL     1       8.475  14.535  17.916  0.00  0.00    +0.000 HD
ENDBRANCH  14  15
BRANCH  14  17
ATOM     17  C   UNL     1      10.447  14.685  19.187  0.00  0.00    +0.000 C 
BRANCH  17  18
ATOM     18  O   UNL     1      10.583  13.689  20.196  0.00  0.00    +0.000 OA
ATOM     19  H   UNL     1      10.567  14.140  21.059  0.00  0.00    +0.000 HD
ENDBRANCH  17  18
ENDBRANCH  14  17
ENDBRANCH  13  14
ENDBRANCH  11  13
ENDBRANCH   8   9
ENDBRANCH   4   7
BRANCH   1  20
ATOM     20  O   UNL     1       5.110   4.467  17.081  0.00  0.00    +0.000 OA
BRANCH  20  24
ATOM     21  C   UNL     1       2.273   6.583  19.717  0.00  0.00    +0.000 A 
ATOM     22  C   UNL     1       3.188   6.154  18.774  0.00  0.00    +0.000 A 
ATOM     23  C   UNL     1       3.455   4.737  18.828  0.00  0.00    +0.000 A 
ATOM     24  C   UNL     1       4.324   3.913  18.071  0.00  0.00    +0.000 A 
ATOM     25  C   UNL     1       4.392   2.570  18.443  0.00  0.00    +0.000 A 
ATOM     26  N   UNL     1       3.627   1.991  19.391  0.00  0.00    +0.000 NA
ATOM     27  C   UNL     1       2.757   2.762  20.077  0.00  0.00    +0.000 A 
ATOM     28  C   UNL     1       2.684   4.133  19.823  0.00  0.00    +0.000 A 
ATOM     29  S   UNL     1       1.691   5.269  20.640  0.00  0.00    +0.000 S 
BRANCH  21  32
ATOM     30  C   UNL     1       1.265  10.102  18.858  0.00  0.00    +0.000 C 
ATOM     31  N   UNL     1       1.700   8.732  18.816  0.00  0.00    +0.000 N 
ATOM     32  C   UNL     1       1.812   7.949  19.949  0.00  0.00    +0.000 C 
ATOM     33  O   UNL     1       1.529   8.381  21.062  0.00  0.00    +0.000 OA
ATOM     34  H   UNL     1       1.943   8.317  17.925  0.00  0.00    +0.000 HD
ENDBRANCH  21  32
ENDBRANCH  20  24
ENDBRANCH   1  20
TORSDOF 10
ENDMDL
MODEL 3
REMARK VINA RESULT:      -7.7      1.038      1.417
REMARK  Name = 
REMARK  11 active torsions:
REMARK  status: ('A' for Active; 'I' for Inactive)
REMARK    1  A    between atoms: C_1  and  N_2
REMARK    2  A    between atoms: C_3  and  C_5
REMARK    3  A    between atoms: C_8  and  O_9
REMARK    4  A    between atoms: O_9  and  C_10
REMARK    5  A    between atoms: C_13  and  C_14
REMARK    6  A    between atoms: C_15  and  C_16
REMARK    7  A    between atoms: N_18  and  C_19
REMARK    8  A    between atoms: C_19  and  C_20
REMARK    9  A    between atoms: C_20  and  O_21
REMARK   10  A    between atoms: C_20  and  C_22
REMARK   11  A    between atoms: C_22  and  O_23
REMARK                            x       y       z     vdW  Elec       q    Type
REMARK                         _______ _______ _______ _____ _____    ______ ____
ROOT
ATOM      1  C   UNL     1       6.162   5.731  17.512  0.00  0.00    +0.000 A 
ATOM      2  C   UNL     1       7.209   5.540  18.415  0.00  0.00    +0.000 A 
ATOM      3  C   UNL     1       8.039   6.609  18.764  0.00  0.00    +0.000 A 
ATOM      4  C   UNL     1       7.882   7.868  18.169  0.00  0.00    +0.000 A 
ATOM      5  C   UNL     1       6.845   8.046  17.246  0.00  0.00    +0.000 A 
ATOM      6  C   UNL     1       5.994   6.982  16.915  0.00  0.00    +0.000 A 
ENDROOT
BRANCH   4   7
ATOM      7  C   UNL     1       8.818   8.934  18.557  0.00  0.00    +0.000 C 
ATOM      8  C   UNL     1       8.727  10.213  18.158  0.00  0.00    +0.000 C 
BRANCH   8   9
ATOM      9  C   UNL     1       9.812  11.163  18.505  0.00  0.00    +0.000 C 
ATOM     10  O   UNL     1      10.839  10.823  19.078  0.00  0.00    +0.000 OA
ATOM     11  N   UNL     1       9.558  12.449  18.102  0.00  0.00    +0.000 N 
ATOM     12  H   UNL     1       8.641  12.725  17.769  0.00  0.00    +0.000 HD
BRANCH  11  13
ATOM     13  C   UNL     1      10.507  13.510  18.376  0.00  0.00    +0.000 C 
BRANCH  13  14
ATOM     14  C   UNL     1       9.974  14.869  17.920  0.00  0.00    +0.000 C 
BRANCH  14  15
ATOM     15  O   UNL     1       9.510  15.604  19.064  0.00  0.00    +0.000 OA
ATOM     16  H   UNL     1       9.993  15.277  19.843  0.00  0.00    +0.000 HD
ENDBRANCH  14  15
BRANCH  14  17
ATOM     17  C   UNL     1      11.057  15.654  17.168  0.00  0.00    +0.000 C 
BRANCH  17  18
ATOM     18  O   UNL     1      10.693  15.853  15.805  0.00  0.00    +0.000 OA
ATOM     19  H   UNL     1      10.458  16.791  15.698  0.00  0.00    +0.000 HD
ENDBRANCH  17  18
ENDBRANCH  14  17
ENDBRANCH  13  14
ENDBRANCH  11  13
ENDBRANCH   8   9
ENDBRANCH   4   7
BRANCH   1  20
ATOM     20  O   UNL     1       5.296   4.734  17.114  0.00  0.00    +0.000 OA
BRANCH  20  24
ATOM     21  C   UNL     1       2.336   6.576  19.819  0.00  0.00    +0.000 A 
ATOM     22  C   UNL     1       3.279   6.239  18.867  0.00  0.00    +0.000 A 
ATOM     23  C   UNL     1       3.614   4.835  18.853  0.00  0.00    +0.000 A 
ATOM     24  C   UNL     1       4.529   4.093  18.066  0.00  0.00    +0.000 A 
ATOM     25  C   UNL     1       4.658   2.738  18.371  0.00  0.00    +0.000 A 
ATOM     26  N   UNL     1       3.913   2.076  19.280  0.00  0.00    +0.000 NA
ATOM     27  C   UNL     1       3.001   2.769  19.994  0.00  0.00    +0.000 A 
ATOM     28  C   UNL     1       2.864   4.146  19.808  0.00  0.00    +0.000 A 
ATOM     29  S   UNL     1       1.810   5.191  20.669  0.00  0.00    +0.000 S 
BRANCH  21  32
ATOM     30  C   UNL     1       1.085   9.426  21.928  0.00  0.00    +0.000 C 
ATOM     31  N   UNL     1       1.603   8.171  21.455  0.00  0.00    +0.000 N 
ATOM     32  C   UNL     1       1.808   7.905  20.114  0.00  0.00    +0.000 C 
ATOM     33  O   UNL     1       1.570   8.740  19.247  0.00  0.00    +0.000 OA
ATOM     34  H   UNL     1       1.822   7.443  22.123  0.00  0.00    +0.000 HD
ENDBRANCH  21  32
ENDBRANCH  20  24
ENDBRANCH   1  20
TORSDOF 10
ENDMDL
MODEL 4
REMARK VINA RESULT:      -7.6      1.410      1.449
REMARK  Name = 
REMARK  11 active torsions:
REMARK  status: ('A' for Active; 'I' for Inactive)
REMARK    1  A    between atoms: C_1  and  N_2
REMARK    2  A    between atoms: C_3  and  C_5
REMARK    3  A    between atoms: C_8  and  O_9
REMARK    4  A    between atoms: O_9  and  C_10
REMARK    5  A    between atoms: C_13  and  C_14
REMARK    6  A    between atoms: C_15  and  C_16
REMARK    7  A    between atoms: N_18  and  C_19
REMARK    8  A    between atoms: C_19  and  C_20
REMARK    9  A    between atoms: C_20  and  O_21
REMARK   10  A    between atoms: C_20  and  C_22
REMARK   11  A    between atoms: C_22  and  O_23
REMARK                            x       y       z     vdW  Elec       q    Type
REMARK                         _______ _______ _______ _____ _____    ______ ____
ROOT
ATOM      1  C   UNL     1       6.640   5.880  17.699  0.00  0.00    +0.000 A 
ATOM      2  C   UNL     1       6.442   7.026  16.928  0.00  0.00    +0.000 A 
ATOM      3  C   UNL     1       7.216   8.168  17.154  0.00  0.00    +0.000 A 
ATOM      4  C   UNL     1       8.154   8.208  18.195  0.00  0.00    +0.000 A 
ATOM      5  C   UNL     1       8.331   7.062  18.979  0.00  0.00    +0.000 A 
ATOM      6  C   UNL     1       7.574   5.907  18.736  0.00  0.00    +0.000 A 
ENDROOT
BRANCH   4   7
ATOM      7  C   UNL     1       8.906   9.456  18.397  0.00  0.00    +0.000 C 
ATOM      8  C   UNL     1       9.079  10.059  19.583  0.00  0.00    +0.000 C 
BRANCH   8   9
ATOM      9  C   UNL     1       9.737  11.388  19.635  0.00  0.00    +0.000 C 
ATOM     10  O   UNL     1       9.122  12.431  19.816  0.00  0.00    +0.000 OA
ATOM     11  N   UNL     1      11.099  11.327  19.479  0.00  0.00    +0.000 N 
ATOM     12  H   UNL     1      11.556  10.473  19.180  0.00  0.00    +0.000 HD
BRANCH  11  13
ATOM     13  C   UNL     1      11.898  12.537  19.485  0.00  0.00    +0.000 C 
BRANCH  13  14
ATOM     14  C   UNL     1      12.230  12.996  18.064  0.00  0.00    +0.000 C 
BRANCH  14  15
ATOM     15  O   UNL     1      12.105  11.883  17.166  0.00  0.00    +0.000 OA
ATOM     16  H   UNL     1      12.445  12.162  16.297  0.00  0.00    +0.000 HD
ENDBRANCH  14  15
BRANCH  14  17
ATOM     17  C   UNL     1      11.314  14.149  17.638  0.00  0.00    +0.000 C 
BRANCH  17  18
ATOM     18  O   UNL     1      10.266  13.686  16.791  0.00  0.00    +0.000 OA
ATOM     19  H   UNL     1       9.454  14.160  17.043  0.00  0.00    +0.000 HD
ENDBRANCH  17  18
ENDBRANCH  14  17
ENDBRANCH  13  14
ENDBRANCH  11  13
ENDBRANCH   8   9
ENDBRANCH   4   7
BRANCH   1  20
ATOM     20  O   UNL     1       5.923   4.712  17.543  0.00  0.00    +0.000 OA
BRANCH  20  24
ATOM     21  C   UNL     1       2.508   7.219  18.780  0.00  0.00    +0.000 A 
ATOM     22  C   UNL     1       3.623   6.625  18.219  0.00  0.00    +0.000 A 
ATOM     23  C   UNL     1       3.912   5.314  18.749  0.00  0.00    +0.000 A 
ATOM     24  C   UNL     1       4.951   4.393  18.470  0.00  0.00    +0.000 A 
ATOM     25  C   UNL     1       4.972   3.226  19.233  0.00  0.00    +0.000 A 
ATOM     26  N   UNL     1       4.031   2.874  20.133  0.00  0.00    +0.000 NA
ATOM     27  C   UNL     1       3.008   3.724  20.362  0.00  0.00    +0.000 A 
ATOM     28  C   UNL     1       2.955   4.951  19.699  0.00  0.00    +0.000 A 
ATOM     29  S   UNL     1       1.772   6.175  19.915  0.00  0.00    +0.000 S 
BRANCH  21  32
ATOM     30  C   UNL     1       0.650  10.424  19.415  0.00  0.00    +0.000 C 
ATOM     31  N   UNL     1       1.255   9.124  19.524  0.00  0.00    +0.000 N 
ATOM     32  C   UNL     1       1.968   8.544  18.493  0.00  0.00    +0.000 C 
ATOM     33  O   UNL     1       2.138   9.120  17.422  0.00  0.00    +0.000 OA
ATOM     34  H   UNL     1       1.154   8.602  20.385  0.00  0.00    +0.000 HD
ENDBRANCH  21  32
ENDBRANCH  20  24
ENDBRANCH   1  20
TORSDOF 10
ENDMDL
MODEL 5
REMARK VINA RESULT:      -7.5      1.051      1.140
REMARK  Name = 
REMARK  11 active torsions:
REMARK  status: ('A' for Active; 'I' for Inactive)
REMARK    1  A    between atoms: C_1  and  N_2
REMARK    2  A    between atoms: C_3  and  C_5
REMARK    3  A    between atoms: C_8  and  O_9
REMARK    4  A    between atoms: O_9  and  C_10
REMARK    5  A    between atoms: C_13  and  C_14
REMARK    6  A    between atoms: C_15  and  C_16
REMARK    7  A    between atoms: N_18  and  C_19
REMARK    8  A    between atoms: C_19  and  C_20
REMARK    9  A    between atoms: C_20  and  O_21
REMARK   10  A    between atoms: C_20  and  C_22
REMARK   11  A    between atoms: C_22  and  O_23
REMARK                            x       y       z     vdW  Elec       q    Type
REMARK                         _______ _______ _______ _____ _____    ______ ____
ROOT
ATOM      1  C   UNL     1       5.997   5.190  17.646  0.00  0.00    +0.000 A 
ATOM      2  C   UNL     1       5.767   6.252  16.770  0.00  0.00    +0.000 A 
ATOM      3  C   UNL     1       6.578   7.390  16.817  0.00  0.00    +0.000 A 
ATOM      4  C   UNL     1       7.587   7.517  17.781  0.00  0.00    +0.000 A 
ATOM      5  C   UNL     1       7.796   6.458  18.672  0.00  0.00    +0.000 A 
ATOM      6  C   UNL     1       7.001   5.304  18.609  0.00  0.00    +0.000 A 
ENDROOT
BRANCH   4   7
ATOM      7  C   UNL     1       8.375   8.759  17.794  0.00  0.00    +0.000 C 
ATOM      8  C   UNL     1       8.749   9.414  18.904  0.00  0.00    +0.000 C 
BRANCH   8   9
ATOM      9  C   UNL     1       9.420  10.731  18.781  0.00  0.00    +0.000 C 
ATOM     10  O   UNL     1      10.467  11.003  19.353  0.00  0.00    +0.000 OA
ATOM     11  N   UNL     1       8.761  11.601  17.949  0.00  0.00    +0.000 N 
ATOM     12  H   UNL     1       7.825  11.402  17.615  0.00  0.00    +0.000 HD
BRANCH  11  13
ATOM     13  C   UNL     1       9.270  12.941  17.728  0.00  0.00    +0.000 C 
BRANCH  13  14
ATOM     14  C   UNL     1       8.781  13.910  18.806  0.00  0.00    +0.000 C 
BRANCH  14  15
ATOM     15  O   UNL     1       9.785  14.032  19.824  0.00  0.00    +0.000 OA
ATOM     16  H   UNL     1      10.652  13.878  19.408  0.00  0.00    +0.000 HD
ENDBRANCH  14  15
BRANCH  14  17
ATOM     17  C   UNL     1       8.449  15.278  18.196  0.00  0.00    +0.000 C 
BRANCH  17  18
ATOM     18  O   UNL     1       9.397  15.638  17.196  0.00  0.00    +0.000 OA
ATOM     19  H   UNL     1       9.927  14.847  16.995  0.00  0.00    +0.000 HD
ENDBRANCH  17  18
ENDBRANCH  14  17
ENDBRANCH  13  14
ENDBRANCH  11  13
ENDBRANCH   8   9
ENDBRANCH   4   7
BRANCH   1  20
ATOM     20  O   UNL     1       5.248   4.033  17.667  0.00  0.00    +0.000 OA
BRANCH  20  24
ATOM     21  C   UNL     1       2.366   6.786  19.561  0.00  0.00    +0.000 A 
ATOM     22  C   UNL     1       3.296   6.115  18.790  0.00  0.00    +0.000 A 
ATOM     23  C   UNL     1       3.564   4.771  19.242  0.00  0.00    +0.000 A 
ATOM     24  C   UNL     1       4.446   3.773  18.760  0.00  0.00    +0.000 A 
ATOM     25  C   UNL     1       4.509   2.588  19.493  0.00  0.00    +0.000 A 
ATOM     26  N   UNL     1       3.729   2.293  20.553  0.00  0.00    +0.000 NA
ATOM     27  C   UNL     1       2.848   3.220  20.983  0.00  0.00    +0.000 A 
ATOM     28  C   UNL     1       2.777   4.465  20.355  0.00  0.00    +0.000 A 
ATOM     29  S   UNL     1       1.770   5.779  20.806  0.00  0.00    +0.000 S 
BRANCH  21  32
ATOM     30  C   UNL     1       1.801  10.076  17.833  0.00  0.00    +0.000 C 
ATOM     31  N   UNL     1       2.182   8.731  18.169  0.00  0.00    +0.000 N 
ATOM     32  C   UNL     1       1.900   8.159  19.395  0.00  0.00    +0.000 C 
ATOM     33  O   UNL     1       1.291   8.771  20.267  0.00  0.00    +0.000 OA
ATOM     34  H   UNL     1       2.683   8.174  17.488  0.00  0.00    +0.000 HD
ENDBRANCH  21  32
ENDBRANCH  20  24
ENDBRANCH   1  20
TORSDOF 10
ENDMDL
MODEL 6
REMARK VINA RESULT:      -7.4      5.599      8.334
REMARK  Name = 
REMARK  11 active torsions:
REMARK  status: ('A' for Active; 'I' for Inactive)
REMARK    1  A    between atoms: C_1  and  N_2
REMARK    2  A    between atoms: C_3  and  C_5
REMARK    3  A    between atoms: C_8  and  O_9
REMARK    4  A    between atoms: O_9  and  C_10
REMARK    5  A    between atoms: C_13  and  C_14
REMARK    6  A    between atoms: C_15  and  C_16
REMARK    7  A    between atoms: N_18  and  C_19
REMARK    8  A    between atoms: C_19  and  C_20
REMARK    9  A    between atoms: C_20  and  O_21
REMARK   10  A    between atoms: C_20  and  C_22
REMARK   11  A    between atoms: C_22  and  O_23
REMARK                            x       y       z     vdW  Elec       q    Type
REMARK                         _______ _______ _______ _____ _____    ______ ____
ROOT
ATOM      1  C   UNL     1       1.689   7.865  19.488  0.00  0.00    +0.000 A 
ATOM      2  C   UNL     1       2.164   8.412  18.295  0.00  0.00    +0.000 A 
ATOM      3  C   UNL     1       3.194   7.780  17.593  0.00  0.00    +0.000 A 
ATOM      4  C   UNL     1       3.812   6.629  18.101  0.00  0.00    +0.000 A 
ATOM      5  C   UNL     1       3.347   6.100  19.311  0.00  0.00    +0.000 A 
ATOM      6  C   UNL     1       2.296   6.718  20.003  0.00  0.00    +0.000 A 
ENDROOT
BRANCH   4   7
ATOM      7  C   UNL     1       4.915   6.041  17.326  0.00  0.00    +0.000 C 
ATOM      8  C   UNL     1       5.070   6.171  15.999  0.00  0.00    +0.000 C 
BRANCH   8   9
ATOM      9  C   UNL     1       6.145   5.412  15.314  0.00  0.00    +0.000 C 
ATOM     10  O   UNL     1       7.330   5.530  15.597  0.00  0.00    +0.000 OA
ATOM     11  N   UNL     1       5.676   4.556  14.351  0.00  0.00    +0.000 N 
ATOM     12  H   UNL     1       4.713   4.593  14.037  0.00  0.00    +0.000 HD
BRANCH  11  13
ATOM     13  C   UNL     1       6.594   3.748  13.570  0.00  0.00    +0.000 C 
BRANCH  13  14
ATOM     14  C   UNL     1       6.012   3.410  12.197  0.00  0.00    +0.000 C 
BRANCH  14  15
ATOM     15  O   UNL     1       6.401   2.076  11.832  0.00  0.00    +0.000 OA
ATOM     16  H   UNL     1       7.374   2.040  11.832  0.00  0.00    +0.000 HD
ENDBRANCH  14  15
BRANCH  14  17
ATOM     17  C   UNL     1       4.485   3.552  12.203  0.00  0.00    +0.000 C 
BRANCH  17  18
ATOM     18  O   UNL     1       3.912   2.991  11.026  0.00  0.00    +0.000 OA
ATOM     19  H   UNL     1       3.683   3.727  10.431  0.00  0.00    +0.000 HD
ENDBRANCH  17  18
ENDBRANCH  14  17
ENDBRANCH  13  14
ENDBRANCH  11  13
ENDBRANCH   8   9
ENDBRANCH   4   7
BRANCH   1  20
ATOM     20  O   UNL     1       0.678   8.422  20.243  0.00  0.00    +0.000 OA
BRANCH  20  24
ATOM     21  C   UNL     1      -1.863  11.150  17.882  0.00  0.00    +0.000 A 
ATOM     22  C   UNL     1      -1.195  10.106  18.492  0.00  0.00    +0.000 A 
ATOM     23  C   UNL     1      -0.274  10.528  19.521  0.00  0.00    +0.000 A 
ATOM     24  C   UNL     1       0.605   9.796  20.356  0.00  0.00    +0.000 A 
ATOM     25  C   UNL     1       1.423  10.540  21.206  0.00  0.00    +0.000 A 
ATOM     26  N   UNL     1       1.366  11.879  21.356  0.00  0.00    +0.000 NA
ATOM     27  C   UNL     1       0.491  12.576  20.601  0.00  0.00    +0.000 A 
ATOM     28  C   UNL     1      -0.310  11.916  19.666  0.00  0.00    +0.000 A 
ATOM     29  S   UNL     1      -1.422  12.645  18.582  0.00  0.00    +0.000 S 
BRANCH  21  32
ATOM     30  C   UNL     1      -3.212  10.213  14.500  0.00  0.00    +0.000 C 
ATOM     31  N   UNL     1      -2.394  10.387  15.670  0.00  0.00    +0.000 N 
ATOM     32  C   UNL     1      -2.830  11.069  16.791  0.00  0.00    +0.000 C 
ATOM     33  O   UNL     1      -3.955  11.555  16.853  0.00  0.00    +0.000 OA
ATOM     34  H   UNL     1      -1.457  10.004  15.681  0.00  0.00    +0.000 HD
ENDBRANCH  21  32
ENDBRANCH  20  24
ENDBRANCH   1  20
TORSDOF 10
ENDMDL
MODEL 7
REMARK VINA RESULT:      -7.4      5.665     10.280
REMARK  Name = 
REMARK  11 active torsions:
REMARK  status: ('A' for Active; 'I' for Inactive)
REMARK    1  A    between atoms: C_1  and  N_2
REMARK    2  A    between atoms: C_3  and  C_5
REMARK    3  A    between atoms: C_8  and  O_9
REMARK    4  A    between atoms: O_9  and  C_10
REMARK    5  A    between atoms: C_13  and  C_14
REMARK    6  A    between atoms: C_15  and  C_16
REMARK    7  A    between atoms: N_18  and  C_19
REMARK    8  A    between atoms: C_19  and  C_20
REMARK    9  A    between atoms: C_20  and  O_21
REMARK   10  A    between atoms: C_20  and  C_22
REMARK   11  A    between atoms: C_22  and  O_23
REMARK                            x       y       z     vdW  Elec       q    Type
REMARK                         _______ _______ _______ _____ _____    ______ ____
ROOT
ATOM      1  C   UNL     1      -0.804  11.664  22.115  0.00  0.00    +0.000 A 
ATOM      2  C   UNL     1      -0.901  10.567  22.973  0.00  0.00    +0.000 A 
ATOM      3  C   UNL     1      -0.254   9.368  22.657  0.00  0.00    +0.000 A 
ATOM      4  C   UNL     1       0.443   9.222  21.450  0.00  0.00    +0.000 A 
ATOM      5  C   UNL     1       0.516  10.319  20.583  0.00  0.00    +0.000 A 
ATOM      6  C   UNL     1      -0.110  11.531  20.911  0.00  0.00    +0.000 A 
ENDROOT
BRANCH   4   7
ATOM      7  C   UNL     1       1.066   7.920  21.168  0.00  0.00    +0.000 C 
ATOM      8  C   UNL     1       1.895   7.677  20.141  0.00  0.00    +0.000 C 
BRANCH   8   9
ATOM      9  C   UNL     1       2.346   6.287  19.883  0.00  0.00    +0.000 C 
ATOM     10  O   UNL     1       1.909   5.320  20.492  0.00  0.00    +0.000 OA
ATOM     11  N   UNL     1       3.282   6.196  18.885  0.00  0.00    +0.000 N 
ATOM     12  H   UNL     1       3.732   7.022  18.508  0.00  0.00    +0.000 HD
BRANCH  11  13
ATOM     13  C   UNL     1       3.845   4.911  18.514  0.00  0.00    +0.000 C 
BRANCH  13  14
ATOM     14  C   UNL     1       5.131   4.620  19.289  0.00  0.00    +0.000 C 
BRANCH  14  15
ATOM     15  O   UNL     1       5.294   3.199  19.420  0.00  0.00    +0.000 OA
ATOM     16  H   UNL     1       5.875   2.899  18.699  0.00  0.00    +0.000 HD
ENDBRANCH  14  15
BRANCH  14  17
ATOM     17  C   UNL     1       6.342   5.247  18.588  0.00  0.00    +0.000 C 
BRANCH  17  18
ATOM     18  O   UNL     1       7.243   4.246  18.124  0.00  0.00    +0.000 OA
ATOM     19  H   UNL     1       6.899   3.911  17.277  0.00  0.00    +0.000 HD
ENDBRANCH  17  18
ENDBRANCH  14  17
ENDBRANCH  13  14
ENDBRANCH  11  13
ENDBRANCH   8   9
ENDBRANCH   4   7
BRANCH   1  20
ATOM     20  O   UNL     1      -1.408  12.881  22.350  0.00  0.00    +0.000 OA
BRANCH  20  24
ATOM     21  C   UNL     1      -4.662  12.294  19.428  0.00  0.00    +0.000 A 
ATOM     22  C   UNL     1      -3.486  12.416  20.142  0.00  0.00    +0.000 A 
ATOM     23  C   UNL     1      -3.684  12.701  21.543  0.00  0.00    +0.000 A 
ATOM     24  C   UNL     1      -2.766  12.919  22.599  0.00  0.00    +0.000 A 
ATOM     25  C   UNL     1      -3.309  13.249  23.841  0.00  0.00    +0.000 A 
ATOM     26  N   UNL     1      -4.627  13.277  24.124  0.00  0.00    +0.000 NA
ATOM     27  C   UNL     1      -5.506  13.016  23.134  0.00  0.00    +0.000 A 
ATOM     28  C   UNL     1      -5.047  12.756  21.841  0.00  0.00    +0.000 A 
ATOM     29  S   UNL     1      -6.016  12.471  20.454  0.00  0.00    +0.000 S 
BRANCH  21  32
ATOM     30  C   UNL     1      -3.740  11.027  16.011  0.00  0.00    +0.000 C 
ATOM     31  N   UNL     1      -3.764  11.357  17.410  0.00  0.00    +0.000 N 
ATOM     32  C   UNL     1      -4.811  12.043  17.997  0.00  0.00    +0.000 C 
ATOM     33  O   UNL     1      -5.792  12.398  17.352  0.00  0.00    +0.000 OA
ATOM     34  H   UNL     1      -2.984  11.087  17.995  0.00  0.00    +0.000 HD
ENDBRANCH  21  32
ENDBRANCH  20  24
ENDBRANCH   1  20
TORSDOF 10
ENDMDL
MODEL 8
REMARK VINA RESULT:      -7.4      5.463      9.094
REMARK  Name = 
REMARK  11 active torsions:
REMARK  status: ('A' for Active; 'I' for Inactive)
REMARK    1  A    between atoms: C_1  and  N_2
REMARK    2  A    between atoms: C_3  and  C_5
REMARK    3  A    between atoms: C_8  and  O_9
REMARK    4  A    between atoms: O_9  and  C_10
REMARK    5  A    between atoms: C_13  and  C_14
REMARK    6  A    between atoms: C_15  and  C_16
REMARK    7  A    between atoms: N_18  and  C_19
REMARK    8  A    between atoms: C_19  and  C_20
REMARK    9  A    between atoms: C_20  and  O_21
REMARK   10  A    between atoms: C_20  and  C_22
REMARK   11  A    between atoms: C_22  and  O_23
REMARK                            x       y       z     vdW  Elec       q    Type
REMARK                         _______ _______ _______ _____ _____    ______ ____
ROOT
ATOM      1  C   UNL     1       0.251   9.813  19.814  0.00  0.00    +0.000 A 
ATOM      2  C   UNL     1       0.875   8.836  20.591  0.00  0.00    +0.000 A 
ATOM      3  C   UNL     1       1.862   8.018  20.033  0.00  0.00    +0.000 A 
ATOM      4  C   UNL     1       2.196   8.116  18.676  0.00  0.00    +0.000 A 
ATOM      5  C   UNL     1       1.550   9.082  17.896  0.00  0.00    +0.000 A 
ATOM      6  C   UNL     1       0.579   9.922  18.461  0.00  0.00    +0.000 A 
ENDROOT
BRANCH   4   7
ATOM      7  C   UNL     1       3.217   7.197  18.150  0.00  0.00    +0.000 C 
ATOM      8  C   UNL     1       3.571   6.038  18.728  0.00  0.00    +0.000 C 
BRANCH   8   9
ATOM      9  C   UNL     1       4.713   5.269  18.175  0.00  0.00    +0.000 C 
ATOM     10  O   UNL     1       4.880   4.075  18.389  0.00  0.00    +0.000 OA
ATOM     11  N   UNL     1       5.547   6.023  17.389  0.00  0.00    +0.000 N 
ATOM     12  H   UNL     1       5.468   7.033  17.356  0.00  0.00    +0.000 HD
BRANCH  11  13
ATOM     13  C   UNL     1       6.725   5.433  16.783  0.00  0.00    +0.000 C 
BRANCH  13  14
ATOM     14  C   UNL     1       6.529   5.211  15.282  0.00  0.00    +0.000 C 
BRANCH  14  15
ATOM     15  O   UNL     1       7.777   5.428  14.605  0.00  0.00    +0.000 OA
ATOM     16  H   UNL     1       7.602   5.412  13.647  0.00  0.00    +0.000 HD
ENDBRANCH  14  15
BRANCH  14  17
ATOM     17  C   UNL     1       5.995   3.800  15.006  0.00  0.00    +0.000 C 
BRANCH  17  18
ATOM     18  O   UNL     1       6.378   3.350  13.710  0.00  0.00    +0.000 OA
ATOM     19  H   UNL     1       5.753   2.652  13.445  0.00  0.00    +0.000 HD
ENDBRANCH  17  18
ENDBRANCH  14  17
ENDBRANCH  13  14
ENDBRANCH  11  13
ENDBRANCH   8   9
ENDBRANCH   4   7
BRANCH   1  20
ATOM     20  O   UNL     1      -0.729  10.661  20.284  0.00  0.00    +0.000 OA
BRANCH  20  24
ATOM     21  C   UNL     1      -2.966  12.763  23.455  0.00  0.00    +0.000 A 
ATOM     22  C   UNL     1      -2.454  11.923  22.483  0.00  0.00    +0.000 A 
ATOM     23  C   UNL     1      -1.192  12.365  21.940  0.00  0.00    +0.000 A 
ATOM     24  C   UNL     1      -0.357  11.821  20.934  0.00  0.00    +0.000 A 
ATOM     25  C   UNL     1       0.778  12.559  20.598  0.00  0.00    +0.000 A 
ATOM     26  N   UNL     1       1.181  13.684  21.223  0.00  0.00    +0.000 NA
ATOM     27  C   UNL     1       0.417  14.177  22.221  0.00  0.00    +0.000 A 
ATOM     28  C   UNL     1      -0.778  13.543  22.566  0.00  0.00    +0.000 A 
ATOM     29  S   UNL     1      -1.901  14.064  23.755  0.00  0.00    +0.000 S 
BRANCH  21  32
ATOM     30  C   UNL     1      -6.692  12.688  23.946  0.00  0.00    +0.000 C 
ATOM     31  N   UNL     1      -5.365  12.788  23.403  0.00  0.00    +0.000 N 
ATOM     32  C   UNL     1      -4.229  12.622  24.173  0.00  0.00    +0.000 C 
ATOM     33  O   UNL     1      -4.294  12.364  25.371  0.00  0.00    +0.000 OA
ATOM     34  H   UNL     1      -5.246  12.995  22.420  0.00  0.00    +0.000 HD
ENDBRANCH  21  32
ENDBRANCH  20  24
ENDBRANCH   1  20
TORSDOF 10
ENDMDL
MODEL 9
REMARK VINA RESULT:      -7.3      1.640      1.733
REMARK  Name = 
REMARK  11 active torsions:
REMARK  status: ('A' for Active; 'I' for Inactive)
REMARK    1  A    between atoms: C_1  and  N_2
REMARK    2  A    between atoms: C_3  and  C_5
REMARK    3  A    between atoms: C_8  and  O_9
REMARK    4  A    between atoms: O_9  and  C_10
REMARK    5  A    between atoms: C_13  and  C_14
REMARK    6  A    between atoms: C_15  and  C_16
REMARK    7  A    between atoms: N_18  and  C_19
REMARK    8  A    between atoms: C_19  and  C_20
REMARK    9  A    between atoms: C_20  and  O_21
REMARK   10  A    between atoms: C_20  and  C_22
REMARK   11  A    between atoms: C_22  and  O_23
REMARK                            x       y       z     vdW  Elec       q    Type
REMARK                         _______ _______ _______ _____ _____    ______ ____
ROOT
ATOM      1  C   UNL     1       5.942   5.003  17.724  0.00  0.00    +0.000 A 
ATOM      2  C   UNL     1       5.820   5.969  16.724  0.00  0.00    +0.000 A 
ATOM      3  C   UNL     1       6.677   7.073  16.705  0.00  0.00    +0.000 A 
ATOM      4  C   UNL     1       7.625   7.268  17.719  0.00  0.00    +0.000 A 
ATOM      5  C   UNL     1       7.725   6.307  18.733  0.00  0.00    +0.000 A 
ATOM      6  C   UNL     1       6.884   5.185  18.738  0.00  0.00    +0.000 A 
ENDROOT
BRANCH   4   7
ATOM      7  C   UNL     1       8.466   8.472  17.654  0.00  0.00    +0.000 C 
ATOM      8  C   UNL     1       8.528   9.413  18.610  0.00  0.00    +0.000 C 
BRANCH   8   9
ATOM      9  C   UNL     1       9.307  10.651  18.363  0.00  0.00    +0.000 C 
ATOM     10  O   UNL     1      10.028  10.802  17.385  0.00  0.00    +0.000 OA
ATOM     11  N   UNL     1       9.123  11.610  19.326  0.00  0.00    +0.000 N 
ATOM     12  H   UNL     1       8.644  11.399  20.194  0.00  0.00    +0.000 HD
BRANCH  11  13
ATOM     13  C   UNL     1       9.824  12.877  19.250  0.00  0.00    +0.000 C 
BRANCH  13  14
ATOM     14  C   UNL     1      10.906  12.984  20.325  0.00  0.00    +0.000 C 
BRANCH  14  15
ATOM     15  O   UNL     1      10.622  12.049  21.377  0.00  0.00    +0.000 OA
ATOM     16  H   UNL     1      10.390  12.559  22.174  0.00  0.00    +0.000 HD
ENDBRANCH  14  15
BRANCH  14  17
ATOM     17  C   UNL     1      12.295  12.728  19.725  0.00  0.00    +0.000 C 
BRANCH  17  18
ATOM     18  O   UNL     1      12.204  11.961  18.528  0.00  0.00    +0.000 OA
ATOM     19  H   UNL     1      12.556  11.074  18.721  0.00  0.00    +0.000 HD
ENDBRANCH  17  18
ENDBRANCH  14  17
ENDBRANCH  13  14
ENDBRANCH  11  13
ENDBRANCH   8   9
ENDBRANCH   4   7
BRANCH   1  20
ATOM     20  O   UNL     1       5.141   3.884  17.817  0.00  0.00    +0.000 OA
BRANCH  20  24
ATOM     21  C   UNL     1       2.323   6.924  19.332  0.00  0.00    +0.000 A 
ATOM     22  C   UNL     1       3.250   6.145  18.665  0.00  0.00    +0.000 A 
ATOM     23  C   UNL     1       3.434   4.836  19.246  0.00  0.00    +0.000 A 
ATOM     24  C   UNL     1       4.285   3.760  18.893  0.00  0.00    +0.000 A 
ATOM     25  C   UNL     1       4.261   2.644  19.730  0.00  0.00    +0.000 A 
ATOM     26  N   UNL     1       3.426   2.482  20.776  0.00  0.00    +0.000 NA
ATOM     27  C   UNL     1       2.574   3.483  21.084  0.00  0.00    +0.000 A 
ATOM     28  C   UNL     1       2.590   4.668  20.345  0.00  0.00    +0.000 A 
ATOM     29  S   UNL     1       1.631   6.061  20.634  0.00  0.00    +0.000 S 
BRANCH  21  32
ATOM     30  C   UNL     1       0.805  10.313  19.912  0.00  0.00    +0.000 C 
ATOM     31  N   UNL     1       1.267   8.958  20.041  0.00  0.00    +0.000 N 
ATOM     32  C   UNL     1       1.932   8.296  19.026  0.00  0.00    +0.000 C 
ATOM     33  O   UNL     1       2.179   8.841  17.955  0.00  0.00    +0.000 OA
ATOM     34  H   UNL     1       1.096   8.457  20.904  0.00  0.00    +0.000 HD
ENDBRANCH  21  32
ENDBRANCH  20  24
ENDBRANCH   1  20
TORSDOF 10
ENDMDL
