MODEL 1
REMARK VINA RESULT:      -9.6      0.000      0.000
REMARK  Name = 
REMARK  5 active torsions:
REMARK  status: ('A' for Active; 'I' for Inactive)
REMARK    1  A    between atoms: C_2  and  C_26
REMARK    2  A    between atoms: N_3  and  C_4
REMARK    3  A    between atoms: C_6  and  C_7
REMARK    4  A    between atoms: N_18  and  C_19
REMARK    5  A    between atoms: C_19  and  C_20
REMARK                            x       y       z     vdW  Elec       q    Type
REMARK                         _______ _______ _______ _____ _____    ______ ____
ROOT
ATOM      1  C   UNL     1       7.473   6.299  17.642  0.00  0.00    +0.000 A 
ATOM      2  N   UNL     1       7.518   5.974  16.326  0.00  0.00    +0.000 NA
ATOM      3  C   UNL     1       6.764   4.979  15.824  0.00  0.00    +0.000 A 
ATOM      4  N   UNL     1       5.928   4.203  16.533  0.00  0.00    +0.000 NA
ATOM      5  C   UNL     1       5.941   4.517  17.839  0.00  0.00    +0.000 A 
ATOM      6  C   UNL     1       6.676   5.502  18.473  0.00  0.00    +0.000 A 
ATOM      7  N   UNL     1       6.407   5.453  19.819  0.00  0.00    +0.000 NA
ATOM      8  N   UNL     1       5.553   4.450  20.038  0.00  0.00    +0.000 NA
ATOM      9  N   UNL     1       5.242   3.905  18.837  0.00  0.00    +0.000 N 
ENDROOT
BRANCH   3  10
ATOM     10  C   UNL     1       6.877   4.718  14.379  0.00  0.00    +0.000 A 
ATOM     11  C   UNL     1       6.132   3.695  13.759  0.00  0.00    +0.000 A 
ATOM     12  C   UNL     1       6.227   3.459  12.386  0.00  0.00    +0.000 A 
ATOM     13  C   UNL     1       7.077   4.233  11.602  0.00  0.00    +0.000 A 
ATOM     14  C   UNL     1       7.833   5.243  12.192  0.00  0.00    +0.000 A 
ATOM     15  C   UNL     1       7.731   5.483  13.563  0.00  0.00    +0.000 A 
ENDBRANCH   3  10
BRANCH   1  18
ATOM     16  O   UNL     1       6.812   9.012  17.176  0.00  0.00    +0.000 OA
ATOM     17  C   UNL     1       7.822   8.710  17.809  0.00  0.00    +0.000 C 
ATOM     18  N   UNL     1       8.214   7.410  18.098  0.00  0.00    +0.000 N 
ATOM     19  H   UNL     1       8.977   7.258  18.744  0.00  0.00    +0.000 HD
BRANCH  17  20
ATOM     20  C   UNL     1       8.645   9.768  18.354  0.00  0.00    +0.000 A 
ATOM     21  C   UNL     1       8.929  11.004  17.799  0.00  0.00    +0.000 A 
ATOM     22  C   UNL     1       9.824  11.647  18.673  0.00  0.00    +0.000 A 
ATOM     23  C   UNL     1      10.032  10.773  19.713  0.00  0.00    +0.000 A 
ATOM     24  O   UNL     1       9.307   9.631  19.541  0.00  0.00    +0.000 OA
ENDBRANCH  17  20
ENDBRANCH   1  18
BRANCH   9  25
ATOM     25  C   UNL     1       4.508   2.661  18.712  0.00  0.00    +0.000 C 
BRANCH  25  26
ATOM     26  C   UNL     1       3.105   2.700  19.272  0.00  0.00    +0.000 A 
ATOM     27  C   UNL     1       2.875   2.711  20.657  0.00  0.00    +0.000 A 
ATOM     28  C   UNL     1       1.583   2.895  21.161  0.00  0.00    +0.000 A 
ATOM     29  C   UNL     1       0.509   3.062  20.289  0.00  0.00    +0.000 A 
ATOM     30  C   UNL     1       0.721   3.016  18.912  0.00  0.00    +0.000 A 
ATOM     31  C   UNL     1       2.009   2.828  18.407  0.00  0.00    +0.000 A 
ENDBRANCH  25  26
ENDBRANCH   9  25
TORSDOF 5
ENDMDL
MODEL 2
REMARK VINA RESULT:      -9.4      0.523      1.424
REMARK  Name = 
REMARK  5 active torsions:
REMARK  status: ('A' for Active; 'I' for Inactive)
REMARK    1  A    between atoms: C_2  and  C_26
REMARK    2  A    between atoms: N_3  and  C_4
REMARK    3  A    between atoms: C_6  and  C_7
REMARK    4  A    between atoms: N_18  and  C_19
REMARK    5  A    between atoms: C_19  and  C_20
REMARK                            x       y       z     vdW  Elec       q    Type
REMARK                         _______ _______ _______ _____ _____    ______ ____
ROOT
ATOM      1  C   UNL     1       7.505   6.325  17.602  0.00  0.00    +0.000 A 
ATOM      2  N   UNL     1       7.513   5.983  16.290  0.00  0.00    +0.000 NA
ATOM      3  C   UNL     1       6.741   4.986  15.821  0.00  0.00    +0.000 A 
ATOM      4  N   UNL     1       5.920   4.224  16.562  0.00  0.00    +0.000 NA
ATOM      5  C   UNL     1       5.968   4.555  17.863  0.00  0.00    +0.000 A 
ATOM      6  C   UNL     1       6.725   5.544  18.464  0.00  0.00    +0.000 A 
ATOM      7  N   UNL     1       6.492   5.514  19.817  0.00  0.00    +0.000 NA
ATOM      8  N   UNL     1       5.638   4.519  20.072  0.00  0.00    +0.000 NA
ATOM      9  N   UNL     1       5.292   3.961  18.887  0.00  0.00    +0.000 N 
ENDROOT
BRANCH   3  10
ATOM     10  C   UNL     1       6.814   4.705  14.377  0.00  0.00    +0.000 A 
ATOM     11  C   UNL     1       7.697   5.411  13.538  0.00  0.00    +0.000 A 
ATOM     12  C   UNL     1       7.777   5.133  12.171  0.00  0.00    +0.000 A 
ATOM     13  C   UNL     1       6.969   4.149  11.611  0.00  0.00    +0.000 A 
ATOM     14  C   UNL     1       6.078   3.444  12.417  0.00  0.00    +0.000 A 
ATOM     15  C   UNL     1       6.005   3.718  13.784  0.00  0.00    +0.000 A 
ENDBRANCH   3  10
BRANCH   1  18
ATOM     16  O   UNL     1       6.786   9.037  17.226  0.00  0.00    +0.000 OA
ATOM     17  C   UNL     1       7.839   8.737  17.783  0.00  0.00    +0.000 C 
ATOM     18  N   UNL     1       8.264   7.438  18.023  0.00  0.00    +0.000 N 
ATOM     19  H   UNL     1       9.071   7.284  18.613  0.00  0.00    +0.000 HD
BRANCH  17  20
ATOM     20  C   UNL     1       8.687   9.796  18.287  0.00  0.00    +0.000 A 
ATOM     21  C   UNL     1       9.332   9.869  19.509  0.00  0.00    +0.000 A 
ATOM     22  C   UNL     1       9.975  11.118  19.557  0.00  0.00    +0.000 A 
ATOM     23  C   UNL     1       9.691  11.737  18.363  0.00  0.00    +0.000 A 
ATOM     24  O   UNL     1       8.923  10.936  17.571  0.00  0.00    +0.000 OA
ENDBRANCH  17  20
ENDBRANCH   1  18
BRANCH   9  25
ATOM     25  C   UNL     1       4.548   2.719  18.798  0.00  0.00    +0.000 C 
BRANCH  25  26
ATOM     26  C   UNL     1       3.098   2.826  19.208  0.00  0.00    +0.000 A 
ATOM     27  C   UNL     1       2.063   2.669  18.272  0.00  0.00    +0.000 A 
ATOM     28  C   UNL     1       0.729   2.625  18.688  0.00  0.00    +0.000 A 
ATOM     29  C   UNL     1       0.414   2.744  20.040  0.00  0.00    +0.000 A 
ATOM     30  C   UNL     1       1.430   2.938  20.974  0.00  0.00    +0.000 A 
ATOM     31  C   UNL     1       2.763   2.987  20.560  0.00  0.00    +0.000 A 
ENDBRANCH  25  26
ENDBRANCH   9  25
TORSDOF 5
ENDMDL
MODEL 3
REMARK VINA RESULT:      -8.9      0.905      1.113
REMARK  Name = 
REMARK  5 active torsions:
REMARK  status: ('A' for Active; 'I' for Inactive)
REMARK    1  A    between atoms: C_2  and  C_26
REMARK    2  A    between atoms: N_3  and  C_4
REMARK    3  A    between atoms: C_6  and  C_7
REMARK    4  A    between atoms: N_18  and  C_19
REMARK    5  A    between atoms: C_19  and  C_20
REMARK                            x       y       z     vdW  Elec       q    Type
REMARK                         _______ _______ _______ _____ _____    ______ ____
ROOT
ATOM      1  C   UNL     1       6.672   6.732  17.010  0.00  0.00    +0.000 A 
ATOM      2  N   UNL     1       6.784   6.191  15.771  0.00  0.00    +0.000 NA
ATOM      3  C   UNL     1       6.238   4.997  15.476  0.00  0.00    +0.000 A 
ATOM      4  N   UNL     1       5.564   4.217  16.337  0.00  0.00    +0.000 NA
ATOM      5  C   UNL     1       5.511   4.756  17.565  0.00  0.00    +0.000 A 
ATOM      6  C   UNL     1       6.041   5.960  17.992  0.00  0.00    +0.000 A 
ATOM      7  N   UNL     1       5.781   6.103  19.333  0.00  0.00    +0.000 NA
ATOM      8  N   UNL     1       5.136   5.012  19.753  0.00  0.00    +0.000 NA
ATOM      9  N   UNL     1       4.939   4.212  18.677  0.00  0.00    +0.000 N 
ENDROOT
BRANCH   3  10
ATOM     10  C   UNL     1       6.403   4.508  14.097  0.00  0.00    +0.000 A 
ATOM     11  C   UNL     1       5.508   3.574  13.539  0.00  0.00    +0.000 A 
ATOM     12  C   UNL     1       5.657   3.122  12.226  0.00  0.00    +0.000 A 
ATOM     13  C   UNL     1       6.709   3.586  11.443  0.00  0.00    +0.000 A 
ATOM     14  C   UNL     1       7.615   4.501  11.975  0.00  0.00    +0.000 A 
ATOM     15  C   UNL     1       7.461   4.957  13.285  0.00  0.00    +0.000 A 
ENDBRANCH   3  10
BRANCH   1  18
ATOM     16  O   UNL     1       8.658   7.398  18.914  0.00  0.00    +0.000 OA
ATOM     17  C   UNL     1       8.150   8.264  18.206  0.00  0.00    +0.000 C 
ATOM     18  N   UNL     1       7.184   8.027  17.238  0.00  0.00    +0.000 N 
ATOM     19  H   UNL     1       6.927   8.773  16.606  0.00  0.00    +0.000 HD
BRANCH  17  20
ATOM     20  C   UNL     1       8.619   9.628  18.330  0.00  0.00    +0.000 A 
ATOM     21  C   UNL     1       9.506  10.148  19.256  0.00  0.00    +0.000 A 
ATOM     22  C   UNL     1       9.590  11.530  19.008  0.00  0.00    +0.000 A 
ATOM     23  C   UNL     1       8.754  11.776  17.945  0.00  0.00    +0.000 A 
ATOM     24  O   UNL     1       8.170  10.624  17.509  0.00  0.00    +0.000 OA
ENDBRANCH  17  20
ENDBRANCH   1  18
BRANCH   9  25
ATOM     25  C   UNL     1       4.459   2.849  18.797  0.00  0.00    +0.000 C 
BRANCH  25  26
ATOM     26  C   UNL     1       3.129   2.712  19.501  0.00  0.00    +0.000 A 
ATOM     27  C   UNL     1       3.055   2.577  20.897  0.00  0.00    +0.000 A 
ATOM     28  C   UNL     1       1.817   2.598  21.548  0.00  0.00    +0.000 A 
ATOM     29  C   UNL     1       0.643   2.745  20.813  0.00  0.00    +0.000 A 
ATOM     30  C   UNL     1       0.702   2.842  19.424  0.00  0.00    +0.000 A 
ATOM     31  C   UNL     1       1.937   2.817  18.771  0.00  0.00    +0.000 A 
ENDBRANCH  25  26
ENDBRANCH   9  25
TORSDOF 5
ENDMDL
MODEL 4
REMARK VINA RESULT:      -8.2      0.896      1.494
REMARK  Name = 
REMARK  5 active torsions:
REMARK  status: ('A' for Active; 'I' for Inactive)
REMARK    1  A    between atoms: C_2  and  C_26
REMARK    2  A    between atoms: N_3  and  C_4
REMARK    3  A    between atoms: C_6  and  C_7
REMARK    4  A    between atoms: N_18  and  C_19
REMARK    5  A    between atoms: C_19  and  C_20
REMARK                            x       y       z     vdW  Elec       q    Type
REMARK                         _______ _______ _______ _____ _____    ______ ____
ROOT
ATOM      1  C   UNL     1       6.781   6.839  17.101  0.00  0.00    +0.000 A 
ATOM      2  N   UNL     1       6.904   6.297  15.864  0.00  0.00    +0.000 NA
ATOM      3  C   UNL     1       6.324   5.123  15.553  0.00  0.00    +0.000 A 
ATOM      4  N   UNL     1       5.603   4.365  16.395  0.00  0.00    +0.000 NA
ATOM      5  C   UNL     1       5.539   4.904  17.624  0.00  0.00    +0.000 A 
ATOM      6  C   UNL     1       6.099   6.088  18.066  0.00  0.00    +0.000 A 
ATOM      7  N   UNL     1       5.813   6.238  19.401  0.00  0.00    +0.000 NA
ATOM      8  N   UNL     1       5.120   5.169  19.802  0.00  0.00    +0.000 NA
ATOM      9  N   UNL     1       4.922   4.378  18.720  0.00  0.00    +0.000 N 
ENDROOT
BRANCH   3  10
ATOM     10  C   UNL     1       6.506   4.630  14.178  0.00  0.00    +0.000 A 
ATOM     11  C   UNL     1       7.544   5.113  13.358  0.00  0.00    +0.000 A 
ATOM     12  C   UNL     1       7.726   4.633  12.059  0.00  0.00    +0.000 A 
ATOM     13  C   UNL     1       6.868   3.666  11.546  0.00  0.00    +0.000 A 
ATOM     14  C   UNL     1       5.826   3.180  12.332  0.00  0.00    +0.000 A 
ATOM     15  C   UNL     1       5.650   3.655  13.632  0.00  0.00    +0.000 A 
ENDBRANCH   3  10
BRANCH   1  18
ATOM     16  O   UNL     1       8.702   7.443  19.091  0.00  0.00    +0.000 OA
ATOM     17  C   UNL     1       8.260   8.323  18.354  0.00  0.00    +0.000 C 
ATOM     18  N   UNL     1       7.331   8.116  17.345  0.00  0.00    +0.000 N 
ATOM     19  H   UNL     1       7.132   8.866  16.697  0.00  0.00    +0.000 HD
BRANCH  17  20
ATOM     20  C   UNL     1       8.775   9.669  18.491  0.00  0.00    +0.000 A 
ATOM     21  C   UNL     1       8.597  10.745  17.639  0.00  0.00    +0.000 A 
ATOM     22  C   UNL     1       9.347  11.811  18.166  0.00  0.00    +0.000 A 
ATOM     23  C   UNL     1       9.937  11.330  19.311  0.00  0.00    +0.000 A 
ATOM     24  O   UNL     1       9.583  10.032  19.531  0.00  0.00    +0.000 OA
ENDBRANCH  17  20
ENDBRANCH   1  18
BRANCH   9  25
ATOM     25  C   UNL     1       4.392   3.032  18.825  0.00  0.00    +0.000 C 
BRANCH  25  26
ATOM     26  C   UNL     1       2.915   2.962  19.135  0.00  0.00    +0.000 A 
ATOM     27  C   UNL     1       2.013   2.361  18.242  0.00  0.00    +0.000 A 
ATOM     28  C   UNL     1       0.675   2.172  18.605  0.00  0.00    +0.000 A 
ATOM     29  C   UNL     1       0.224   2.588  19.856  0.00  0.00    +0.000 A 
ATOM     30  C   UNL     1       1.102   3.219  20.734  0.00  0.00    +0.000 A 
ATOM     31  C   UNL     1       2.437   3.413  20.373  0.00  0.00    +0.000 A 
ENDBRANCH  25  26
ENDBRANCH   9  25
TORSDOF 5
ENDMDL
MODEL 5
REMARK VINA RESULT:      -8.2      1.308      1.683
REMARK  Name = 
REMARK  5 active torsions:
REMARK  status: ('A' for Active; 'I' for Inactive)
REMARK    1  A    between atoms: C_2  and  C_26
REMARK    2  A    between atoms: N_3  and  C_4
REMARK    3  A    between atoms: C_6  and  C_7
REMARK    4  A    between atoms: N_18  and  C_19
REMARK    5  A    between atoms: C_19  and  C_20
REMARK                            x       y       z     vdW  Elec       q    Type
REMARK                         _______ _______ _______ _____ _____    ______ ____
ROOT
ATOM      1  C   UNL     1       6.306   6.943  16.754  0.00  0.00    +0.000 A 
ATOM      2  N   UNL     1       6.590   6.316  15.585  0.00  0.00    +0.000 NA
ATOM      3  C   UNL     1       5.941   5.198  15.214  0.00  0.00    +0.000 A 
ATOM      4  N   UNL     1       4.989   4.578  15.931  0.00  0.00    +0.000 NA
ATOM      5  C   UNL     1       4.764   5.194  17.102  0.00  0.00    +0.000 A 
ATOM      6  C   UNL     1       5.371   6.333  17.598  0.00  0.00    +0.000 A 
ATOM      7  N   UNL     1       4.862   6.595  18.846  0.00  0.00    +0.000 NA
ATOM      8  N   UNL     1       3.982   5.636  19.148  0.00  0.00    +0.000 NA
ATOM      9  N   UNL     1       3.895   4.808  18.079  0.00  0.00    +0.000 N 
ENDROOT
BRANCH   3  10
ATOM     10  C   UNL     1       6.314   4.605  13.919  0.00  0.00    +0.000 A 
ATOM     11  C   UNL     1       5.591   3.528  13.371  0.00  0.00    +0.000 A 
ATOM     12  C   UNL     1       5.936   2.977  12.134  0.00  0.00    +0.000 A 
ATOM     13  C   UNL     1       7.019   3.484  11.422  0.00  0.00    +0.000 A 
ATOM     14  C   UNL     1       7.758   4.541  11.947  0.00  0.00    +0.000 A 
ATOM     15  C   UNL     1       7.407   5.096  13.180  0.00  0.00    +0.000 A 
ENDBRANCH   3  10
BRANCH   1  18
ATOM     16  O   UNL     1       8.331   7.296  18.700  0.00  0.00    +0.000 OA
ATOM     17  C   UNL     1       7.927   8.246  18.033  0.00  0.00    +0.000 C 
ATOM     18  N   UNL     1       6.952   8.163  17.049  0.00  0.00    +0.000 N 
ATOM     19  H   UNL     1       6.784   8.962  16.453  0.00  0.00    +0.000 HD
BRANCH  17  20
ATOM     20  C   UNL     1       8.539   9.544  18.227  0.00  0.00    +0.000 A 
ATOM     21  C   UNL     1       9.477   9.915  19.175  0.00  0.00    +0.000 A 
ATOM     22  C   UNL     1       9.708  11.291  19.002  0.00  0.00    +0.000 A 
ATOM     23  C   UNL     1       8.904  11.682  17.958  0.00  0.00    +0.000 A 
ATOM     24  O   UNL     1       8.200  10.624  17.464  0.00  0.00    +0.000 OA
ENDBRANCH  17  20
ENDBRANCH   1  18
BRANCH   9  25
ATOM     25  C   UNL     1       3.195   3.538  18.132  0.00  0.00    +0.000 C 
BRANCH  25  26
ATOM     26  C   UNL     1       2.561   3.227  19.467  0.00  0.00    +0.000 A 
ATOM     27  C   UNL     1       1.185   3.409  19.679  0.00  0.00    +0.000 A 
ATOM     28  C   UNL     1       0.586   2.980  20.868  0.00  0.00    +0.000 A 
ATOM     29  C   UNL     1       1.355   2.375  21.860  0.00  0.00    +0.000 A 
ATOM     30  C   UNL     1       2.728   2.223  21.676  0.00  0.00    +0.000 A 
ATOM     31  C   UNL     1       3.329   2.654  20.491  0.00  0.00    +0.000 A 
ENDBRANCH  25  26
ENDBRANCH   9  25
TORSDOF 5
ENDMDL
MODEL 6
REMARK VINA RESULT:      -7.9      4.510     11.488
REMARK  Name = 
REMARK  5 active torsions:
REMARK  status: ('A' for Active; 'I' for Inactive)
REMARK    1  A    between atoms: C_2  and  C_26
REMARK    2  A    between atoms: N_3  and  C_4
REMARK    3  A    between atoms: C_6  and  C_7
REMARK    4  A    between atoms: N_18  and  C_19
REMARK    5  A    between atoms: C_19  and  C_20
REMARK                            x       y       z     vdW  Elec       q    Type
REMARK                         _______ _______ _______ _____ _____    ______ ____
ROOT
ATOM      1  C   UNL     1       9.564  10.591  19.828  0.00  0.00    +0.000 A 
ATOM      2  N   UNL     1       9.121  11.088  21.009  0.00  0.00    +0.000 NA
ATOM      3  C   UNL     1       9.461  12.324  21.420  0.00  0.00    +0.000 A 
ATOM      4  N   UNL     1      10.263  13.171  20.755  0.00  0.00    +0.000 NA
ATOM      5  C   UNL     1      10.723  12.633  19.614  0.00  0.00    +0.000 A 
ATOM      6  C   UNL     1      10.458  11.379  19.093  0.00  0.00    +0.000 A 
ATOM      7  N   UNL     1      11.161  11.231  17.923  0.00  0.00    +0.000 NA
ATOM      8  N   UNL     1      11.875  12.342  17.721  0.00  0.00    +0.000 NA
ATOM      9  N   UNL     1      11.583  13.206  18.724  0.00  0.00    +0.000 N 
ENDROOT
BRANCH   3  10
ATOM     10  C   UNL     1       8.914  12.774  22.711  0.00  0.00    +0.000 A 
ATOM     11  C   UNL     1       8.393  11.857  23.645  0.00  0.00    +0.000 A 
ATOM     12  C   UNL     1       7.889  12.283  24.876  0.00  0.00    +0.000 A 
ATOM     13  C   UNL     1       7.886  13.637  25.198  0.00  0.00    +0.000 A 
ATOM     14  C   UNL     1       8.385  14.565  24.287  0.00  0.00    +0.000 A 
ATOM     15  C   UNL     1       8.895  14.137  23.060  0.00  0.00    +0.000 A 
ENDBRANCH   3  10
BRANCH   1  18
ATOM     16  O   UNL     1       7.872  10.126  17.607  0.00  0.00    +0.000 OA
ATOM     17  C   UNL     1       8.260   9.194  18.307  0.00  0.00    +0.000 C 
ATOM     18  N   UNL     1       9.102   9.327  19.402  0.00  0.00    +0.000 N 
ATOM     19  H   UNL     1       9.485   8.495  19.833  0.00  0.00    +0.000 HD
BRANCH  17  20
ATOM     20  C   UNL     1       7.876   7.845  17.949  0.00  0.00    +0.000 A 
ATOM     21  C   UNL     1       8.023   6.686  18.691  0.00  0.00    +0.000 A 
ATOM     22  C   UNL     1       7.561   5.627  17.890  0.00  0.00    +0.000 A 
ATOM     23  C   UNL     1       7.155   6.196  16.707  0.00  0.00    +0.000 A 
ATOM     24  O   UNL     1       7.323   7.549  16.735  0.00  0.00    +0.000 OA
ENDBRANCH  17  20
ENDBRANCH   1  18
BRANCH   9  25
ATOM     25  C   UNL     1      12.333  14.427  18.943  0.00  0.00    +0.000 C 
BRANCH  25  26
ATOM     26  C   UNL     1      11.577  15.695  18.622  0.00  0.00    +0.000 A 
ATOM     27  C   UNL     1      11.197  16.001  17.305  0.00  0.00    +0.000 A 
ATOM     28  C   UNL     1      10.373  17.100  17.040  0.00  0.00    +0.000 A 
ATOM     29  C   UNL     1       9.927  17.908  18.085  0.00  0.00    +0.000 A 
ATOM     30  C   UNL     1      10.329  17.635  19.391  0.00  0.00    +0.000 A 
ATOM     31  C   UNL     1      11.155  16.541  19.657  0.00  0.00    +0.000 A 
ENDBRANCH  25  26
ENDBRANCH   9  25
TORSDOF 5
ENDMDL
MODEL 7
REMARK VINA RESULT:      -7.9      8.484      9.900
REMARK  Name = 
REMARK  5 active torsions:
REMARK  status: ('A' for Active; 'I' for Inactive)
REMARK    1  A    between atoms: C_2  and  C_26
REMARK    2  A    between atoms: N_3  and  C_4
REMARK    3  A    between atoms: C_6  and  C_7
REMARK    4  A    between atoms: N_18  and  C_19
REMARK    5  A    between atoms: C_19  and  C_20
REMARK                            x       y       z     vdW  Elec       q    Type
REMARK                         _______ _______ _______ _____ _____    ______ ____
ROOT
ATOM      1  C   UNL     1      -0.951  11.172  21.210  0.00  0.00    +0.000 A 
ATOM      2  N   UNL     1      -1.683  11.245  20.071  0.00  0.00    +0.000 NA
ATOM      3  C   UNL     1      -1.396  10.477  19.003  0.00  0.00    +0.000 A 
ATOM      4  N   UNL     1      -0.383   9.599  18.927  0.00  0.00    +0.000 NA
ATOM      5  C   UNL     1       0.351   9.583  20.051  0.00  0.00    +0.000 A 
ATOM      6  C   UNL     1       0.167  10.328  21.202  0.00  0.00    +0.000 A 
ATOM      7  N   UNL     1       1.167  10.020  22.090  0.00  0.00    +0.000 NA
ATOM      8  N   UNL     1       1.980   9.131  21.512  0.00  0.00    +0.000 NA
ATOM      9  N   UNL     1       1.467   8.839  20.293  0.00  0.00    +0.000 N 
ENDROOT
BRANCH   3  10
ATOM     10  C   UNL     1      -2.263  10.623  17.822  0.00  0.00    +0.000 A 
ATOM     11  C   UNL     1      -1.966   9.967  16.611  0.00  0.00    +0.000 A 
ATOM     12  C   UNL     1      -2.798  10.093  15.495  0.00  0.00    +0.000 A 
ATOM     13  C   UNL     1      -3.940  10.885  15.562  0.00  0.00    +0.000 A 
ATOM     14  C   UNL     1      -4.249  11.554  16.744  0.00  0.00    +0.000 A 
ATOM     15  C   UNL     1      -3.421  11.421  17.860  0.00  0.00    +0.000 A 
ENDBRANCH   3  10
BRANCH   1  18
ATOM     16  O   UNL     1      -0.462  13.936  21.576  0.00  0.00    +0.000 OA
ATOM     17  C   UNL     1      -1.056  13.283  22.432  0.00  0.00    +0.000 C 
ATOM     18  N   UNL     1      -1.352  11.932  22.330  0.00  0.00    +0.000 N 
ATOM     19  H   UNL     1      -1.967  11.509  23.013  0.00  0.00    +0.000 HD
BRANCH  17  20
ATOM     20  C   UNL     1      -1.544  13.964  23.612  0.00  0.00    +0.000 A 
ATOM     21  C   UNL     1      -2.825  13.958  24.136  0.00  0.00    +0.000 A 
ATOM     22  C   UNL     1      -2.815  14.821  25.246  0.00  0.00    +0.000 A 
ATOM     23  C   UNL     1      -1.531  15.300  25.342  0.00  0.00    +0.000 A 
ATOM     24  O   UNL     1      -0.740  14.773  24.364  0.00  0.00    +0.000 OA
ENDBRANCH  17  20
ENDBRANCH   1  18
BRANCH   9  25
ATOM     25  C   UNL     1       2.200   8.072  19.303  0.00  0.00    +0.000 C 
BRANCH  25  26
ATOM     26  C   UNL     1       2.023   6.576  19.410  0.00  0.00    +0.000 A 
ATOM     27  C   UNL     1       1.592   5.978  20.606  0.00  0.00    +0.000 A 
ATOM     28  C   UNL     1       1.291   4.613  20.650  0.00  0.00    +0.000 A 
ATOM     29  C   UNL     1       1.426   3.830  19.505  0.00  0.00    +0.000 A 
ATOM     30  C   UNL     1       1.889   4.405  18.323  0.00  0.00    +0.000 A 
ATOM     31  C   UNL     1       2.194   5.768  18.278  0.00  0.00    +0.000 A 
ENDBRANCH  25  26
ENDBRANCH   9  25
TORSDOF 5
ENDMDL
MODEL 8
REMARK VINA RESULT:      -7.8      4.002      7.558
REMARK  Name = 
REMARK  5 active torsions:
REMARK  status: ('A' for Active; 'I' for Inactive)
REMARK    1  A    between atoms: C_2  and  C_26
REMARK    2  A    between atoms: N_3  and  C_4
REMARK    3  A    between atoms: C_6  and  C_7
REMARK    4  A    between atoms: N_18  and  C_19
REMARK    5  A    between atoms: C_19  and  C_20
REMARK                            x       y       z     vdW  Elec       q    Type
REMARK                         _______ _______ _______ _____ _____    ______ ____
ROOT
ATOM      1  C   UNL     1       2.744   7.212  17.982  0.00  0.00    +0.000 A 
ATOM      2  N   UNL     1       2.431   6.220  18.851  0.00  0.00    +0.000 NA
ATOM      3  C   UNL     1       3.156   5.088  18.914  0.00  0.00    +0.000 A 
ATOM      4  N   UNL     1       4.218   4.802  18.143  0.00  0.00    +0.000 NA
ATOM      5  C   UNL     1       4.474   5.781  17.260  0.00  0.00    +0.000 A 
ATOM      6  C   UNL     1       3.799   6.977  17.092  0.00  0.00    +0.000 A 
ATOM      7  N   UNL     1       4.377   7.666  16.055  0.00  0.00    +0.000 NA
ATOM      8  N   UNL     1       5.369   6.920  15.559  0.00  0.00    +0.000 NA
ATOM      9  N   UNL     1       5.452   5.796  16.311  0.00  0.00    +0.000 N 
ENDROOT
BRANCH   3  10
ATOM     10  C   UNL     1       2.741   4.080  19.903  0.00  0.00    +0.000 A 
ATOM     11  C   UNL     1       1.437   4.072  20.438  0.00  0.00    +0.000 A 
ATOM     12  C   UNL     1       1.039   3.106  21.365  0.00  0.00    +0.000 A 
ATOM     13  C   UNL     1       1.938   2.131  21.786  0.00  0.00    +0.000 A 
ATOM     14  C   UNL     1       3.237   2.124  21.283  0.00  0.00    +0.000 A 
ATOM     15  C   UNL     1       3.631   3.086  20.351  0.00  0.00    +0.000 A 
ENDBRANCH   3  10
BRANCH   1  18
ATOM     16  O   UNL     1       1.626   8.371  20.310  0.00  0.00    +0.000 OA
ATOM     17  C   UNL     1       1.482   8.902  19.212  0.00  0.00    +0.000 C 
ATOM     18  N   UNL     1       2.006   8.415  18.023  0.00  0.00    +0.000 N 
ATOM     19  H   UNL     1       1.960   8.989  17.192  0.00  0.00    +0.000 HD
BRANCH  17  20
ATOM     20  C   UNL     1       0.769  10.160  19.135  0.00  0.00    +0.000 A 
ATOM     21  C   UNL     1      -0.593  10.380  19.244  0.00  0.00    +0.000 A 
ATOM     22  C   UNL     1      -0.802  11.754  19.033  0.00  0.00    +0.000 A 
ATOM     23  C   UNL     1       0.441  12.297  18.811  0.00  0.00    +0.000 A 
ATOM     24  O   UNL     1       1.410  11.341  18.888  0.00  0.00    +0.000 OA
ENDBRANCH  17  20
ENDBRANCH   1  18
BRANCH   9  25
ATOM     25  C   UNL     1       6.275   4.664  15.931  0.00  0.00    +0.000 C 
BRANCH  25  26
ATOM     26  C   UNL     1       6.455   4.491  14.441  0.00  0.00    +0.000 A 
ATOM     27  C   UNL     1       7.526   5.096  13.762  0.00  0.00    +0.000 A 
ATOM     28  C   UNL     1       7.765   4.811  12.414  0.00  0.00    +0.000 A 
ATOM     29  C   UNL     1       6.934   3.927  11.728  0.00  0.00    +0.000 A 
ATOM     30  C   UNL     1       5.846   3.351  12.382  0.00  0.00    +0.000 A 
ATOM     31  C   UNL     1       5.603   3.637  13.727  0.00  0.00    +0.000 A 
ENDBRANCH  25  26
ENDBRANCH   9  25
TORSDOF 5
ENDMDL
MODEL 9
REMARK VINA RESULT:      -7.8      8.877     11.787
REMARK  Name = 
REMARK  5 active torsions:
REMARK  status: ('A' for Active; 'I' for Inactive)
REMARK    1  A    between atoms: C_2  and  C_26
REMARK    2  A    between atoms: N_3  and  C_4
REMARK    3  A    between atoms: C_6  and  C_7
REMARK    4  A    between atoms: N_18  and  C_19
REMARK    5  A    between atoms: C_19  and  C_20
REMARK                            x       y       z     vdW  Elec       q    Type
REMARK                         _______ _______ _______ _____ _____    ______ ____
ROOT
ATOM      1  C   UNL     1       0.223  10.833  19.442  0.00  0.00    +0.000 A 
ATOM      2  N   UNL     1      -1.086  10.832  19.089  0.00  0.00    +0.000 NA
ATOM      3  C   UNL     1      -1.773  11.980  18.943  0.00  0.00    +0.000 A 
ATOM      4  N   UNL     1      -1.278  13.213  19.141  0.00  0.00    +0.000 NA
ATOM      5  C   UNL     1       0.005  13.179  19.535  0.00  0.00    +0.000 A 
ATOM      6  C   UNL     1       0.809  12.071  19.732  0.00  0.00    +0.000 A 
ATOM      7  N   UNL     1       2.041  12.494  20.166  0.00  0.00    +0.000 NA
ATOM      8  N   UNL     1       2.013  13.825  20.271  0.00  0.00    +0.000 NA
ATOM      9  N   UNL     1       0.794  14.244  19.856  0.00  0.00    +0.000 N 
ENDROOT
BRANCH   3  10
ATOM     10  C   UNL     1      -3.185  11.869  18.542  0.00  0.00    +0.000 A 
ATOM     11  C   UNL     1      -3.550  11.394  17.267  0.00  0.00    +0.000 A 
ATOM     12  C   UNL     1      -4.890  11.273  16.893  0.00  0.00    +0.000 A 
ATOM     13  C   UNL     1      -5.898  11.634  17.782  0.00  0.00    +0.000 A 
ATOM     14  C   UNL     1      -5.564  12.117  19.045  0.00  0.00    +0.000 A 
ATOM     15  C   UNL     1      -4.224  12.230  19.420  0.00  0.00    +0.000 A 
ENDBRANCH   3  10
BRANCH   1  18
ATOM     16  O   UNL     1       1.910   9.823  17.406  0.00  0.00    +0.000 OA
ATOM     17  C   UNL     1       1.715   9.182  18.437  0.00  0.00    +0.000 C 
ATOM     18  N   UNL     1       0.918   9.606  19.490  0.00  0.00    +0.000 N 
ATOM     19  H   UNL     1       0.928   9.083  20.356  0.00  0.00    +0.000 HD
BRANCH  17  20
ATOM     20  C   UNL     1       2.402   7.920  18.613  0.00  0.00    +0.000 A 
ATOM     21  C   UNL     1       3.281   7.295  17.746  0.00  0.00    +0.000 A 
ATOM     22  C   UNL     1       3.625   6.064  18.332  0.00  0.00    +0.000 A 
ATOM     23  C   UNL     1       2.942   6.008  19.523  0.00  0.00    +0.000 A 
ATOM     24  O   UNL     1       2.207   7.139  19.717  0.00  0.00    +0.000 OA
ENDBRANCH  17  20
ENDBRANCH   1  18
BRANCH   9  25
ATOM     25  C   UNL     1       0.336  15.609  20.035  0.00  0.00    +0.000 C 
BRANCH  25  26
ATOM     26  C   UNL     1       0.471  16.482  18.809  0.00  0.00    +0.000 A 
ATOM     27  C   UNL     1      -0.643  17.127  18.249  0.00  0.00    +0.000 A 
ATOM     28  C   UNL     1      -0.483  18.046  17.206  0.00  0.00    +0.000 A 
ATOM     29  C   UNL     1       0.789  18.323  16.708  0.00  0.00    +0.000 A 
ATOM     30  C   UNL     1       1.897  17.660  17.231  0.00  0.00    +0.000 A 
ATOM     31  C   UNL     1       1.739  16.739  18.269  0.00  0.00    +0.000 A 
ENDBRANCH  25  26
ENDBRANCH   9  25
TORSDOF 5
ENDMDL
