MODEL 1
REMARK VINA RESULT:      -8.4      0.000      0.000
REMARK  Name = 
REMARK  7 active torsions:
REMARK  status: ('A' for Active; 'I' for Inactive)
REMARK    1  A    between atoms: C_1  and  C_2
REMARK    2  A    between atoms: C_5  and  C_6
REMARK    3  A    between atoms: C_13  and  C_14
REMARK    4  A    between atoms: C_17  and  C_18
REMARK    5  A    between atoms: C_18  and  N_19
REMARK    6  A    between atoms: N_19  and  C_20
REMARK    7  A    between atoms: N_19  and  C_21
REMARK                            x       y       z     vdW  Elec       q    Type
REMARK                         _______ _______ _______ _____ _____    ______ ____
ROOT
ATOM      1  C   UNL     1       4.609   3.375  19.348  0.00  0.00    +0.000 C 
ATOM      2  O   UNL     1       5.222   2.620  20.106  0.00  0.00    +0.000 OA
ATOM      3  N   UNL     1       3.289   3.783  19.615  0.00  0.00    +0.000 N 
ATOM      4  C   UNL     1       2.718   3.489  20.935  0.00  0.00    +0.000 C 
ATOM      5  C   UNL     1       1.344   2.826  20.867  0.00  0.00    +0.000 C 
ATOM      6  C   UNL     1       0.406   3.456  19.843  0.00  0.00    +0.000 C 
ATOM      7  C   UNL     1       1.118   3.695  18.515  0.00  0.00    +0.000 C 
ATOM      8  C   UNL     1       2.406   4.534  18.688  0.00  0.00    +0.000 C 
ENDROOT
BRANCH   1  13
ATOM      9  C   UNL     1       7.317   5.043  14.621  0.00  0.00    +0.000 C 
ATOM     10  C   UNL     1       6.598   4.614  15.858  0.00  0.00    +0.000 A 
ATOM     11  C   UNL     1       7.176   4.776  17.112  0.00  0.00    +0.000 A 
ATOM     12  N   UNL     1       6.572   4.385  18.256  0.00  0.00    +0.000 NA
ATOM     13  C   UNL     1       5.338   3.840  18.125  0.00  0.00    +0.000 A 
ATOM     14  C   UNL     1       4.765   3.652  16.874  0.00  0.00    +0.000 A 
ATOM     15  N   UNL     1       5.377   4.042  15.719  0.00  0.00    +0.000 NA
ENDBRANCH   1  13
BRANCH   8  16
ATOM     16  C   UNL     1       2.177   5.987  19.126  0.00  0.00    +0.000 A 
ATOM     17  C   UNL     1       1.801   6.309  20.443  0.00  0.00    +0.000 A 
ATOM     18  C   UNL     1       1.454   7.616  20.803  0.00  0.00    +0.000 A 
ATOM     19  C   UNL     1       1.519   8.649  19.863  0.00  0.00    +0.000 A 
ATOM     20  C   UNL     1       2.008   8.359  18.587  0.00  0.00    +0.000 A 
ATOM     21  C   UNL     1       2.346   7.053  18.229  0.00  0.00    +0.000 A 
BRANCH  19  22
ATOM     22  C   UNL     1       1.003  10.037  20.178  0.00  0.00    +0.000 C 
BRANCH  22  23
ATOM     23  N   UNL     1      -0.459  10.148  20.303  0.00  0.00    +0.000 NA
ATOM     24  C   UNL     1      -0.841  11.249  21.190  0.00  0.00    +0.000 C 
ATOM     25  C   UNL     1      -1.041  10.362  18.975  0.00  0.00    +0.000 C 
ENDBRANCH  22  23
ENDBRANCH  19  22
ENDBRANCH   8  16
TORSDOF 4
ENDMDL
MODEL 2
REMARK VINA RESULT:      -8.3      0.696      1.065
REMARK  Name = 
REMARK  7 active torsions:
REMARK  status: ('A' for Active; 'I' for Inactive)
REMARK    1  A    between atoms: C_1  and  C_2
REMARK    2  A    between atoms: C_5  and  C_6
REMARK    3  A    between atoms: C_13  and  C_14
REMARK    4  A    between atoms: C_17  and  C_18
REMARK    5  A    between atoms: C_18  and  N_19
REMARK    6  A    between atoms: N_19  and  C_20
REMARK    7  A    between atoms: N_19  and  C_21
REMARK                            x       y       z     vdW  Elec       q    Type
REMARK                         _______ _______ _______ _____ _____    ______ ____
ROOT
ATOM      1  C   UNL     1       4.789   3.649  19.043  0.00  0.00    +0.000 C 
ATOM      2  O   UNL     1       5.452   2.974  19.834  0.00  0.00    +0.000 OA
ATOM      3  N   UNL     1       3.472   4.051  19.336  0.00  0.00    +0.000 N 
ATOM      4  C   UNL     1       2.967   3.859  20.700  0.00  0.00    +0.000 C 
ATOM      5  C   UNL     1       1.608   3.165  20.751  0.00  0.00    +0.000 C 
ATOM      6  C   UNL     1       0.611   3.686  19.721  0.00  0.00    +0.000 C 
ATOM      7  C   UNL     1       1.258   3.826  18.347  0.00  0.00    +0.000 C 
ATOM      8  C   UNL     1       2.531   4.703  18.389  0.00  0.00    +0.000 C 
ENDROOT
BRANCH   1  13
ATOM      9  C   UNL     1       7.368   5.188  14.202  0.00  0.00    +0.000 C 
ATOM     10  C   UNL     1       6.701   4.777  15.474  0.00  0.00    +0.000 A 
ATOM     11  C   UNL     1       5.511   4.058  15.457  0.00  0.00    +0.000 A 
ATOM     12  N   UNL     1       4.863   3.683  16.582  0.00  0.00    +0.000 NA
ATOM     13  C   UNL     1       5.452   4.023  17.754  0.00  0.00    +0.000 A 
ATOM     14  C   UNL     1       6.627   4.763  17.779  0.00  0.00    +0.000 A 
ATOM     15  N   UNL     1       7.278   5.147  16.644  0.00  0.00    +0.000 NA
ENDBRANCH   1  13
BRANCH   8  16
ATOM     16  C   UNL     1       2.287   6.182  18.714  0.00  0.00    +0.000 A 
ATOM     17  C   UNL     1       2.052   6.619  20.030  0.00  0.00    +0.000 A 
ATOM     18  C   UNL     1       1.688   7.942  20.305  0.00  0.00    +0.000 A 
ATOM     19  C   UNL     1       1.594   8.879  19.271  0.00  0.00    +0.000 A 
ATOM     20  C   UNL     1       1.944   8.482  17.978  0.00  0.00    +0.000 A 
ATOM     21  C   UNL     1       2.299   7.160  17.707  0.00  0.00    +0.000 A 
BRANCH  19  22
ATOM     22  C   UNL     1       1.053  10.272  19.514  0.00  0.00    +0.000 C 
BRANCH  22  23
ATOM     23  N   UNL     1      -0.329  10.328  20.014  0.00  0.00    +0.000 NA
ATOM     24  C   UNL     1      -0.483  11.342  21.060  0.00  0.00    +0.000 C 
ATOM     25  C   UNL     1      -1.232  10.631  18.900  0.00  0.00    +0.000 C 
ENDBRANCH  22  23
ENDBRANCH  19  22
ENDBRANCH   8  16
TORSDOF 4
ENDMDL
MODEL 3
REMARK VINA RESULT:      -7.6      1.211      1.442
REMARK  Name = 
REMARK  7 active torsions:
REMARK  status: ('A' for Active; 'I' for Inactive)
REMARK    1  A    between atoms: C_1  and  C_2
REMARK    2  A    between atoms: C_5  and  C_6
REMARK    3  A    between atoms: C_13  and  C_14
REMARK    4  A    between atoms: C_17  and  C_18
REMARK    5  A    between atoms: C_18  and  N_19
REMARK    6  A    between atoms: N_19  and  C_20
REMARK    7  A    between atoms: N_19  and  C_21
REMARK                            x       y       z     vdW  Elec       q    Type
REMARK                         _______ _______ _______ _____ _____    ______ ____
ROOT
ATOM      1  C   UNL     1       4.857   4.002  19.018  0.00  0.00    +0.000 C 
ATOM      2  O   UNL     1       5.553   3.379  19.824  0.00  0.00    +0.000 OA
ATOM      3  N   UNL     1       3.529   4.365  19.311  0.00  0.00    +0.000 N 
ATOM      4  C   UNL     1       3.044   4.201  20.686  0.00  0.00    +0.000 C 
ATOM      5  C   UNL     1       1.712   3.459  20.774  0.00  0.00    +0.000 C 
ATOM      6  C   UNL     1       0.687   3.908  19.739  0.00  0.00    +0.000 C 
ATOM      7  C   UNL     1       1.315   4.025  18.354  0.00  0.00    +0.000 C 
ATOM      8  C   UNL     1       2.556   4.949  18.353  0.00  0.00    +0.000 C 
ENDROOT
BRANCH   1  13
ATOM      9  C   UNL     1       7.268   5.215  14.001  0.00  0.00    +0.000 C 
ATOM     10  C   UNL     1       6.624   4.900  15.312  0.00  0.00    +0.000 A 
ATOM     11  C   UNL     1       6.939   5.628  16.454  0.00  0.00    +0.000 A 
ATOM     12  N   UNL     1       6.396   5.366  17.664  0.00  0.00    +0.000 NA
ATOM     13  C   UNL     1       5.493   4.357  17.710  0.00  0.00    +0.000 A 
ATOM     14  C   UNL     1       5.194   3.609  16.579  0.00  0.00    +0.000 A 
ATOM     15  N   UNL     1       5.745   3.869  15.359  0.00  0.00    +0.000 NA
ENDBRANCH   1  13
BRANCH   8  16
ATOM     16  C   UNL     1       2.259   6.429  18.631  0.00  0.00    +0.000 A 
ATOM     17  C   UNL     1       2.041   6.904  19.937  0.00  0.00    +0.000 A 
ATOM     18  C   UNL     1       1.631   8.221  20.174  0.00  0.00    +0.000 A 
ATOM     19  C   UNL     1       1.472   9.115  19.110  0.00  0.00    +0.000 A 
ATOM     20  C   UNL     1       1.804   8.685  17.823  0.00  0.00    +0.000 A 
ATOM     21  C   UNL     1       2.206   7.369  17.590  0.00  0.00    +0.000 A 
BRANCH  19  22
ATOM     22  C   UNL     1       0.881  10.493  19.317  0.00  0.00    +0.000 C 
BRANCH  22  23
ATOM     23  N   UNL     1       1.859  11.562  19.570  0.00  0.00    +0.000 NA
ATOM     24  C   UNL     1       2.194  12.287  18.342  0.00  0.00    +0.000 C 
ATOM     25  C   UNL     1       1.307  12.496  20.556  0.00  0.00    +0.000 C 
ENDBRANCH  22  23
ENDBRANCH  19  22
ENDBRANCH   8  16
TORSDOF 4
ENDMDL
MODEL 4
REMARK VINA RESULT:      -7.5      0.622      1.247
REMARK  Name = 
REMARK  7 active torsions:
REMARK  status: ('A' for Active; 'I' for Inactive)
REMARK    1  A    between atoms: C_1  and  C_2
REMARK    2  A    between atoms: C_5  and  C_6
REMARK    3  A    between atoms: C_13  and  C_14
REMARK    4  A    between atoms: C_17  and  C_18
REMARK    5  A    between atoms: C_18  and  N_19
REMARK    6  A    between atoms: N_19  and  C_20
REMARK    7  A    between atoms: N_19  and  C_21
REMARK                            x       y       z     vdW  Elec       q    Type
REMARK                         _______ _______ _______ _____ _____    ______ ____
ROOT
ATOM      1  C   UNL     1       4.637   3.327  19.420  0.00  0.00    +0.000 C 
ATOM      2  O   UNL     1       5.294   2.626  20.193  0.00  0.00    +0.000 OA
ATOM      3  N   UNL     1       3.290   3.647  19.673  0.00  0.00    +0.000 N 
ATOM      4  C   UNL     1       2.731   3.334  20.993  0.00  0.00    +0.000 C 
ATOM      5  C   UNL     1       1.406   2.578  20.925  0.00  0.00    +0.000 C 
ATOM      6  C   UNL     1       0.435   3.128  19.886  0.00  0.00    +0.000 C 
ATOM      7  C   UNL     1       1.139   3.397  18.560  0.00  0.00    +0.000 C 
ATOM      8  C   UNL     1       2.365   4.324  18.729  0.00  0.00    +0.000 C 
ENDROOT
BRANCH   1  13
ATOM      9  C   UNL     1       7.256   5.115  14.687  0.00  0.00    +0.000 C 
ATOM     10  C   UNL     1       6.560   4.655  15.926  0.00  0.00    +0.000 A 
ATOM     11  C   UNL     1       7.143   4.823  17.177  0.00  0.00    +0.000 A 
ATOM     12  N   UNL     1       6.560   4.405  18.322  0.00  0.00    +0.000 NA
ATOM     13  C   UNL     1       5.342   3.824  18.196  0.00  0.00    +0.000 A 
ATOM     14  C   UNL     1       4.765   3.629  16.948  0.00  0.00    +0.000 A 
ATOM     15  N   UNL     1       5.356   4.046  15.792  0.00  0.00    +0.000 NA
ENDBRANCH   1  13
BRANCH   8  16
ATOM     16  C   UNL     1       2.035   5.764  19.145  0.00  0.00    +0.000 A 
ATOM     17  C   UNL     1       2.191   6.843  18.256  0.00  0.00    +0.000 A 
ATOM     18  C   UNL     1       2.026   8.166  18.680  0.00  0.00    +0.000 A 
ATOM     19  C   UNL     1       1.654   8.445  19.999  0.00  0.00    +0.000 A 
ATOM     20  C   UNL     1       1.379   7.376  20.854  0.00  0.00    +0.000 A 
ATOM     21  C   UNL     1       1.551   6.057  20.430  0.00  0.00    +0.000 A 
BRANCH  19  22
ATOM     22  C   UNL     1       1.622   9.863  20.527  0.00  0.00    +0.000 C 
BRANCH  22  23
ATOM     23  N   UNL     1       0.855  10.818  19.712  0.00  0.00    +0.000 NA
ATOM     24  C   UNL     1      -0.588  10.618  19.863  0.00  0.00    +0.000 C 
ATOM     25  C   UNL     1       1.206  12.184  20.113  0.00  0.00    +0.000 C 
ENDBRANCH  22  23
ENDBRANCH  19  22
ENDBRANCH   8  16
TORSDOF 4
ENDMDL
MODEL 5
REMARK VINA RESULT:      -7.4      1.014      1.664
REMARK  Name = 
REMARK  7 active torsions:
REMARK  status: ('A' for Active; 'I' for Inactive)
REMARK    1  A    between atoms: C_1  and  C_2
REMARK    2  A    between atoms: C_5  and  C_6
REMARK    3  A    between atoms: C_13  and  C_14
REMARK    4  A    between atoms: C_17  and  C_18
REMARK    5  A    between atoms: C_18  and  N_19
REMARK    6  A    between atoms: N_19  and  C_20
REMARK    7  A    between atoms: N_19  and  C_21
REMARK                            x       y       z     vdW  Elec       q    Type
REMARK                         _______ _______ _______ _____ _____    ______ ____
ROOT
ATOM      1  C   UNL     1       4.786   3.680  19.114  0.00  0.00    +0.000 C 
ATOM      2  O   UNL     1       5.482   3.077  19.935  0.00  0.00    +0.000 OA
ATOM      3  N   UNL     1       3.444   4.007  19.380  0.00  0.00    +0.000 N 
ATOM      4  C   UNL     1       2.936   3.831  20.745  0.00  0.00    +0.000 C 
ATOM      5  C   UNL     1       1.622   3.054  20.807  0.00  0.00    +0.000 C 
ATOM      6  C   UNL     1       0.607   3.475  19.750  0.00  0.00    +0.000 C 
ATOM      7  C   UNL     1       1.260   3.608  18.378  0.00  0.00    +0.000 C 
ATOM      8  C   UNL     1       2.475   4.564  18.402  0.00  0.00    +0.000 C 
ENDROOT
BRANCH   1  13
ATOM      9  C   UNL     1       7.329   5.205  14.250  0.00  0.00    +0.000 C 
ATOM     10  C   UNL     1       6.672   4.797  15.528  0.00  0.00    +0.000 A 
ATOM     11  C   UNL     1       5.480   4.083  15.522  0.00  0.00    +0.000 A 
ATOM     12  N   UNL     1       4.840   3.710  16.653  0.00  0.00    +0.000 NA
ATOM     13  C   UNL     1       5.440   4.051  17.819  0.00  0.00    +0.000 A 
ATOM     14  C   UNL     1       6.617   4.787  17.833  0.00  0.00    +0.000 A 
ATOM     15  N   UNL     1       7.260   5.167  16.692  0.00  0.00    +0.000 NA
ENDBRANCH   1  13
BRANCH   8  16
ATOM     16  C   UNL     1       2.133   6.036  18.671  0.00  0.00    +0.000 A 
ATOM     17  C   UNL     1       2.023   6.970  17.625  0.00  0.00    +0.000 A 
ATOM     18  C   UNL     1       1.854   8.336  17.883  0.00  0.00    +0.000 A 
ATOM     19  C   UNL     1       1.742   8.799  19.198  0.00  0.00    +0.000 A 
ATOM     20  C   UNL     1       1.728   7.863  20.235  0.00  0.00    +0.000 A 
ATOM     21  C   UNL     1       1.904   6.503  19.975  0.00  0.00    +0.000 A 
BRANCH  19  22
ATOM     22  C   UNL     1       1.717  10.279  19.514  0.00  0.00    +0.000 C 
BRANCH  22  23
ATOM     23  N   UNL     1       0.768  11.073  18.719  0.00  0.00    +0.000 NA
ATOM     24  C   UNL     1      -0.606  10.914  19.202  0.00  0.00    +0.000 C 
ATOM     25  C   UNL     1       1.150  12.486  18.783  0.00  0.00    +0.000 C 
ENDBRANCH  22  23
ENDBRANCH  19  22
ENDBRANCH   8  16
TORSDOF 4
ENDMDL
MODEL 6
REMARK VINA RESULT:      -7.3      0.834      1.264
REMARK  Name = 
REMARK  7 active torsions:
REMARK  status: ('A' for Active; 'I' for Inactive)
REMARK    1  A    between atoms: C_1  and  C_2
REMARK    2  A    between atoms: C_5  and  C_6
REMARK    3  A    between atoms: C_13  and  C_14
REMARK    4  A    between atoms: C_17  and  C_18
REMARK    5  A    between atoms: C_18  and  N_19
REMARK    6  A    between atoms: N_19  and  C_20
REMARK    7  A    between atoms: N_19  and  C_21
REMARK                            x       y       z     vdW  Elec       q    Type
REMARK                         _______ _______ _______ _____ _____    ______ ____
ROOT
ATOM      1  C   UNL     1       4.841   3.971  19.076  0.00  0.00    +0.000 C 
ATOM      2  O   UNL     1       5.554   3.399  19.905  0.00  0.00    +0.000 OA
ATOM      3  N   UNL     1       3.491   4.268  19.339  0.00  0.00    +0.000 N 
ATOM      4  C   UNL     1       2.990   4.100  20.708  0.00  0.00    +0.000 C 
ATOM      5  C   UNL     1       1.697   3.290  20.786  0.00  0.00    +0.000 C 
ATOM      6  C   UNL     1       0.669   3.667  19.724  0.00  0.00    +0.000 C 
ATOM      7  C   UNL     1       1.316   3.795  18.349  0.00  0.00    +0.000 C 
ATOM      8  C   UNL     1       2.506   4.784  18.355  0.00  0.00    +0.000 C 
ENDROOT
BRANCH   1  13
ATOM      9  C   UNL     1       7.263   5.232  14.076  0.00  0.00    +0.000 C 
ATOM     10  C   UNL     1       6.617   4.906  15.383  0.00  0.00    +0.000 A 
ATOM     11  C   UNL     1       6.973   5.582  16.545  0.00  0.00    +0.000 A 
ATOM     12  N   UNL     1       6.430   5.307  17.751  0.00  0.00    +0.000 NA
ATOM     13  C   UNL     1       5.482   4.338  17.774  0.00  0.00    +0.000 A 
ATOM     14  C   UNL     1       5.140   3.641  16.623  0.00  0.00    +0.000 A 
ATOM     15  N   UNL     1       5.692   3.915  15.406  0.00  0.00    +0.000 NA
ENDBRANCH   1  13
BRANCH   8  16
ATOM     16  C   UNL     1       2.127   6.250  18.602  0.00  0.00    +0.000 A 
ATOM     17  C   UNL     1       1.954   7.156  17.539  0.00  0.00    +0.000 A 
ATOM     18  C   UNL     1       1.750   8.521  17.772  0.00  0.00    +0.000 A 
ATOM     19  C   UNL     1       1.666   9.011  19.078  0.00  0.00    +0.000 A 
ATOM     20  C   UNL     1       1.714   8.100  20.136  0.00  0.00    +0.000 A 
ATOM     21  C   UNL     1       1.925   6.740  19.901  0.00  0.00    +0.000 A 
BRANCH  19  22
ATOM     22  C   UNL     1       1.603  10.497  19.362  0.00  0.00    +0.000 C 
BRANCH  22  23
ATOM     23  N   UNL     1       0.563  10.909  20.317  0.00  0.00    +0.000 NA
ATOM     24  C   UNL     1       0.811  12.255  20.836  0.00  0.00    +0.000 C 
ATOM     25  C   UNL     1      -0.743  10.872  19.652  0.00  0.00    +0.000 C 
ENDBRANCH  22  23
ENDBRANCH  19  22
ENDBRANCH   8  16
TORSDOF 4
ENDMDL
MODEL 7
REMARK VINA RESULT:      -7.2      0.947      1.176
REMARK  Name = 
REMARK  7 active torsions:
REMARK  status: ('A' for Active; 'I' for Inactive)
REMARK    1  A    between atoms: C_1  and  C_2
REMARK    2  A    between atoms: C_5  and  C_6
REMARK    3  A    between atoms: C_13  and  C_14
REMARK    4  A    between atoms: C_17  and  C_18
REMARK    5  A    between atoms: C_18  and  N_19
REMARK    6  A    between atoms: N_19  and  C_20
REMARK    7  A    between atoms: N_19  and  C_21
REMARK                            x       y       z     vdW  Elec       q    Type
REMARK                         _______ _______ _______ _____ _____    ______ ____
ROOT
ATOM      1  C   UNL     1       4.887   4.050  18.988  0.00  0.00    +0.000 C 
ATOM      2  O   UNL     1       5.574   3.405  19.784  0.00  0.00    +0.000 OA
ATOM      3  N   UNL     1       3.579   4.461  19.302  0.00  0.00    +0.000 N 
ATOM      4  C   UNL     1       3.113   4.319  20.686  0.00  0.00    +0.000 C 
ATOM      5  C   UNL     1       1.756   3.627  20.801  0.00  0.00    +0.000 C 
ATOM      6  C   UNL     1       0.730   4.109  19.781  0.00  0.00    +0.000 C 
ATOM      7  C   UNL     1       1.338   4.199  18.385  0.00  0.00    +0.000 C 
ATOM      8  C   UNL     1       2.610   5.077  18.359  0.00  0.00    +0.000 C 
ENDROOT
BRANCH   1  13
ATOM      9  C   UNL     1       7.271   5.154  13.932  0.00  0.00    +0.000 C 
ATOM     10  C   UNL     1       6.634   4.867  15.253  0.00  0.00    +0.000 A 
ATOM     11  C   UNL     1       6.862   5.690  16.350  0.00  0.00    +0.000 A 
ATOM     12  N   UNL     1       6.324   5.458  17.568  0.00  0.00    +0.000 NA
ATOM     13  C   UNL     1       5.513   4.377  17.667  0.00  0.00    +0.000 A 
ATOM     14  C   UNL     1       5.302   3.535  16.583  0.00  0.00    +0.000 A 
ATOM     15  N   UNL     1       5.849   3.766  15.355  0.00  0.00    +0.000 NA
ENDBRANCH   1  13
BRANCH   8  16
ATOM     16  C   UNL     1       2.373   6.567  18.636  0.00  0.00    +0.000 A 
ATOM     17  C   UNL     1       1.915   7.021  19.887  0.00  0.00    +0.000 A 
ATOM     18  C   UNL     1       1.563   8.360  20.092  0.00  0.00    +0.000 A 
ATOM     19  C   UNL     1       1.704   9.294  19.062  0.00  0.00    +0.000 A 
ATOM     20  C   UNL     1       2.272   8.876  17.856  0.00  0.00    +0.000 A 
ATOM     21  C   UNL     1       2.616   7.539  17.652  0.00  0.00    +0.000 A 
BRANCH  19  22
ATOM     22  C   UNL     1       1.187  10.710  19.203  0.00  0.00    +0.000 C 
BRANCH  22  23
ATOM     23  N   UNL     1      -0.185  10.927  18.718  0.00  0.00    +0.000 NA
ATOM     24  C   UNL     1      -0.663   9.791  17.927  0.00  0.00    +0.000 C 
ATOM     25  C   UNL     1      -1.074  11.135  19.865  0.00  0.00    +0.000 C 
ENDBRANCH  22  23
ENDBRANCH  19  22
ENDBRANCH   8  16
TORSDOF 4
ENDMDL
MODEL 8
REMARK VINA RESULT:      -7.2      3.595      8.722
REMARK  Name = 
REMARK  7 active torsions:
REMARK  status: ('A' for Active; 'I' for Inactive)
REMARK    1  A    between atoms: C_1  and  C_2
REMARK    2  A    between atoms: C_5  and  C_6
REMARK    3  A    between atoms: C_13  and  C_14
REMARK    4  A    between atoms: C_17  and  C_18
REMARK    5  A    between atoms: C_18  and  N_19
REMARK    6  A    between atoms: N_19  and  C_20
REMARK    7  A    between atoms: N_19  and  C_21
REMARK                            x       y       z     vdW  Elec       q    Type
REMARK                         _______ _______ _______ _____ _____    ______ ____
ROOT
ATOM      1  C   UNL     1      -2.084  11.658  19.254  0.00  0.00    +0.000 C 
ATOM      2  O   UNL     1      -2.960  12.006  20.049  0.00  0.00    +0.000 OA
ATOM      3  N   UNL     1      -0.719  11.692  19.593  0.00  0.00    +0.000 N 
ATOM      4  C   UNL     1      -0.351  11.924  20.994  0.00  0.00    +0.000 C 
ATOM      5  C   UNL     1       0.696  13.022  21.172  0.00  0.00    +0.000 C 
ATOM      6  C   UNL     1       1.842  12.949  20.168  0.00  0.00    +0.000 C 
ATOM      7  C   UNL     1       1.323  12.719  18.753  0.00  0.00    +0.000 C 
ATOM      8  C   UNL     1       0.415  11.470  18.660  0.00  0.00    +0.000 C 
ENDROOT
BRANCH   1  13
ATOM      9  C   UNL     1      -3.964   9.926  14.162  0.00  0.00    +0.000 C 
ATOM     10  C   UNL     1      -3.469  10.392  15.492  0.00  0.00    +0.000 A 
ATOM     11  C   UNL     1      -2.313   9.858  16.051  0.00  0.00    +0.000 A 
ATOM     12  N   UNL     1      -1.839  10.235  17.259  0.00  0.00    +0.000 NA
ATOM     13  C   UNL     1      -2.543  11.196  17.905  0.00  0.00    +0.000 A 
ATOM     14  C   UNL     1      -3.712  11.714  17.366  0.00  0.00    +0.000 A 
ATOM     15  N   UNL     1      -4.194  11.331  16.149  0.00  0.00    +0.000 NA
ENDBRANCH   1  13
BRANCH   8  16
ATOM     16  C   UNL     1       1.131  10.134  18.896  0.00  0.00    +0.000 A 
ATOM     17  C   UNL     1       1.973   9.567  17.922  0.00  0.00    +0.000 A 
ATOM     18  C   UNL     1       2.509   8.283  18.080  0.00  0.00    +0.000 A 
ATOM     19  C   UNL     1       2.253   7.548  19.242  0.00  0.00    +0.000 A 
ATOM     20  C   UNL     1       1.519   8.152  20.264  0.00  0.00    +0.000 A 
ATOM     21  C   UNL     1       0.980   9.429  20.101  0.00  0.00    +0.000 A 
BRANCH  19  22
ATOM     22  C   UNL     1       2.686   6.104  19.373  0.00  0.00    +0.000 C 
BRANCH  22  23
ATOM     23  N   UNL     1       2.337   5.239  18.236  0.00  0.00    +0.000 NA
ATOM     24  C   UNL     1       3.531   4.741  17.550  0.00  0.00    +0.000 C 
ATOM     25  C   UNL     1       1.540   4.107  18.719  0.00  0.00    +0.000 C 
ENDBRANCH  22  23
ENDBRANCH  19  22
ENDBRANCH   8  16
TORSDOF 4
ENDMDL
MODEL 9
REMARK VINA RESULT:      -7.1      3.289      7.706
REMARK  Name = 
REMARK  7 active torsions:
REMARK  status: ('A' for Active; 'I' for Inactive)
REMARK    1  A    between atoms: C_1  and  C_2
REMARK    2  A    between atoms: C_5  and  C_6
REMARK    3  A    between atoms: C_13  and  C_14
REMARK    4  A    between atoms: C_17  and  C_18
REMARK    5  A    between atoms: C_18  and  N_19
REMARK    6  A    between atoms: N_19  and  C_20
REMARK    7  A    between atoms: N_19  and  C_21
REMARK                            x       y       z     vdW  Elec       q    Type
REMARK                         _______ _______ _______ _____ _____    ______ ____
ROOT
ATOM      1  C   UNL     1       5.652   4.666  19.477  0.00  0.00    +0.000 C 
ATOM      2  O   UNL     1       6.257   4.392  20.517  0.00  0.00    +0.000 OA
ATOM      3  N   UNL     1       6.253   5.410  18.445  0.00  0.00    +0.000 N 
ATOM      4  C   UNL     1       7.697   5.664  18.513  0.00  0.00    +0.000 C 
ATOM      5  C   UNL     1       8.064   7.132  18.307  0.00  0.00    +0.000 C 
ATOM      6  C   UNL     1       7.306   7.803  17.167  0.00  0.00    +0.000 C 
ATOM      7  C   UNL     1       5.819   7.470  17.221  0.00  0.00    +0.000 C 
ATOM      8  C   UNL     1       5.564   5.945  17.243  0.00  0.00    +0.000 C 
ENDROOT
BRANCH   1  13
ATOM      9  C   UNL     1       0.341   2.677  18.938  0.00  0.00    +0.000 C 
ATOM     10  C   UNL     1       1.736   3.191  19.089  0.00  0.00    +0.000 A 
ATOM     11  C   UNL     1       1.976   4.488  19.526  0.00  0.00    +0.000 A 
ATOM     12  N   UNL     1       3.219   5.001  19.658  0.00  0.00    +0.000 NA
ATOM     13  C   UNL     1       4.246   4.166  19.363  0.00  0.00    +0.000 A 
ATOM     14  C   UNL     1       4.013   2.877  18.902  0.00  0.00    +0.000 A 
ATOM     15  N   UNL     1       2.758   2.361  18.763  0.00  0.00    +0.000 NA
ENDBRANCH   1  13
BRANCH   8  16
ATOM     16  C   UNL     1       5.950   5.206  15.955  0.00  0.00    +0.000 A 
ATOM     17  C   UNL     1       6.869   5.751  15.040  0.00  0.00    +0.000 A 
ATOM     18  C   UNL     1       7.110   5.146  13.801  0.00  0.00    +0.000 A 
ATOM     19  C   UNL     1       6.471   3.949  13.463  0.00  0.00    +0.000 A 
ATOM     20  C   UNL     1       5.652   3.339  14.415  0.00  0.00    +0.000 A 
ATOM     21  C   UNL     1       5.408   3.949  15.646  0.00  0.00    +0.000 A 
BRANCH  19  22
ATOM     22  C   UNL     1       6.590   3.355  12.076  0.00  0.00    +0.000 C 
BRANCH  22  23
ATOM     23  N   UNL     1       5.607   2.309  11.756  0.00  0.00    +0.000 NA
ATOM     24  C   UNL     1       4.445   2.858  11.053  0.00  0.00    +0.000 C 
ATOM     25  C   UNL     1       6.247   1.286  10.922  0.00  0.00    +0.000 C 
ENDBRANCH  22  23
ENDBRANCH  19  22
ENDBRANCH   8  16
TORSDOF 4
ENDMDL
