MODEL 1
REMARK VINA RESULT:      -8.3      0.000      0.000
REMARK  Name = 
REMARK  11 active torsions:
REMARK  status: ('A' for Active; 'I' for Inactive)
REMARK    1  A    between atoms: C_1  and  C_2
REMARK    2  A    between atoms: C_2  and  O_3
REMARK    3  A    between atoms: O_3  and  C_4
REMARK    4  A    between atoms: C_7  and  N_8
REMARK    5  A    between atoms: C_10  and  O_11
REMARK    6  A    between atoms: O_11  and  C_12
REMARK    7  A    between atoms: C_15  and  C_16
REMARK    8  A    between atoms: C_16  and  C_17
REMARK    9  A    between atoms: C_16  and  N_18
REMARK   10  A    between atoms: C_19  and  C_21
REMARK   11  A    between atoms: C_24  and  C_25
REMARK                            x       y       z     vdW  Elec       q    Type
REMARK                         _______ _______ _______ _____ _____    ______ ____
ROOT
ATOM      1  C   UNL     1       2.511   6.752  19.322  0.00  0.00    +0.000 A 
ATOM      2  C   UNL     1       2.362   7.659  18.274  0.00  0.00    +0.000 A 
ATOM      3  C   UNL     1       1.657   8.849  18.462  0.00  0.00    +0.000 A 
ATOM      4  C   UNL     1       1.080   9.147  19.706  0.00  0.00    +0.000 A 
ATOM      5  C   UNL     1       1.314   8.266  20.776  0.00  0.00    +0.000 A 
ATOM      6  C   UNL     1       2.022   7.071  20.585  0.00  0.00    +0.000 A 
ENDROOT
BRANCH   4   7
ATOM      7  C   UNL     1       0.193  10.372  19.846  0.00  0.00    +0.000 C 
ATOM      8  C   UNL     1      -0.383  10.501  21.258  0.00  0.00    +0.000 C 
BRANCH   7   9
ATOM      9  N   UNL     1      -0.862  10.372  18.838  0.00  0.00    +0.000 N 
ATOM     10  C   UNL     1      -1.564  11.518  18.535  0.00  0.00    +0.000 C 
ATOM     11  O   UNL     1      -1.289  12.601  19.048  0.00  0.00    +0.000 OA
ATOM     12  H   UNL     1      -1.176   9.501  18.426  0.00  0.00    +0.000 HD
BRANCH  10  13
ATOM     13  C   UNL     1      -2.675  11.356  17.619  0.00  0.00    +0.000 A 
ATOM     14  C   UNL     1      -3.984  11.784  17.748  0.00  0.00    +0.000 A 
ATOM     15  C   UNL     1      -4.675  11.382  16.586  0.00  0.00    +0.000 A 
ATOM     16  C   UNL     1      -3.742  10.764  15.782  0.00  0.00    +0.000 A 
ATOM     17  C   UNL     1      -3.829  10.207  14.415  0.00  0.00    +0.000 C 
ATOM     18  O   UNL     1      -2.529  10.714  16.413  0.00  0.00    +0.000 OA
ENDBRANCH  10  13
ENDBRANCH   7   9
ENDBRANCH   4   7
BRANCH   1  19
ATOM     19  O   UNL     1       3.039   5.542  18.963  0.00  0.00    +0.000 OA
BRANCH  19  22
ATOM     20  N   UNL     1       5.764   4.389  18.430  0.00  0.00    +0.000 N 
ATOM     21  C   UNL     1       4.692   3.676  19.079  0.00  0.00    +0.000 C 
ATOM     22  C   UNL     1       4.192   5.009  19.656  0.00  0.00    +0.000 C 
ATOM     23  C   UNL     1       5.559   5.566  19.240  0.00  0.00    +0.000 C 
BRANCH  20  27
ATOM     24  C   UNL     1       6.533   4.333  14.254  0.00  0.00    +0.000 A 
ATOM     25  C   UNL     1       5.299   3.918  14.752  0.00  0.00    +0.000 A 
ATOM     26  C   UNL     1       5.036   3.957  16.126  0.00  0.00    +0.000 A 
ATOM     27  C   UNL     1       6.010   4.384  17.034  0.00  0.00    +0.000 A 
ATOM     28  C   UNL     1       7.240   4.816  16.516  0.00  0.00    +0.000 A 
ATOM     29  C   UNL     1       7.510   4.772  15.144  0.00  0.00    +0.000 A 
BRANCH  24  30
ATOM     30  O   UNL     1       6.667   4.262  12.896  0.00  0.00    +0.000 OA
BRANCH  30  32
ATOM     31  C   UNL     1       6.731   2.317  11.527  0.00  0.00    +0.000 C 
ATOM     32  C   UNL     1       5.831   3.314  12.234  0.00  0.00    +0.000 C 
ENDBRANCH  30  32
ENDBRANCH  24  30
ENDBRANCH  20  27
ENDBRANCH  19  22
ENDBRANCH   1  19
TORSDOF 8
ENDMDL
MODEL 2
REMARK VINA RESULT:      -8.1      2.207      3.416
REMARK  Name = 
REMARK  11 active torsions:
REMARK  status: ('A' for Active; 'I' for Inactive)
REMARK    1  A    between atoms: C_1  and  C_2
REMARK    2  A    between atoms: C_2  and  O_3
REMARK    3  A    between atoms: O_3  and  C_4
REMARK    4  A    between atoms: C_7  and  N_8
REMARK    5  A    between atoms: C_10  and  O_11
REMARK    6  A    between atoms: O_11  and  C_12
REMARK    7  A    between atoms: C_15  and  C_16
REMARK    8  A    between atoms: C_16  and  C_17
REMARK    9  A    between atoms: C_16  and  N_18
REMARK   10  A    between atoms: C_19  and  C_21
REMARK   11  A    between atoms: C_24  and  C_25
REMARK                            x       y       z     vdW  Elec       q    Type
REMARK                         _______ _______ _______ _____ _____    ______ ____
ROOT
ATOM      1  C   UNL     1       1.884   4.688  19.222  0.00  0.00    +0.000 A 
ATOM      2  C   UNL     1       2.303   5.745  18.415  0.00  0.00    +0.000 A 
ATOM      3  C   UNL     1       2.227   7.060  18.876  0.00  0.00    +0.000 A 
ATOM      4  C   UNL     1       1.720   7.339  20.154  0.00  0.00    +0.000 A 
ATOM      5  C   UNL     1       1.385   6.259  20.988  0.00  0.00    +0.000 A 
ATOM      6  C   UNL     1       1.463   4.938  20.523  0.00  0.00    +0.000 A 
ENDROOT
BRANCH   4   7
ATOM      7  C   UNL     1       1.506   8.783  20.577  0.00  0.00    +0.000 C 
ATOM      8  C   UNL     1       1.538   8.943  22.098  0.00  0.00    +0.000 C 
BRANCH   7   9
ATOM      9  N   UNL     1       0.272   9.317  20.010  0.00  0.00    +0.000 N 
ATOM     10  C   UNL     1       0.292  10.200  18.953  0.00  0.00    +0.000 C 
ATOM     11  O   UNL     1       1.342  10.524  18.399  0.00  0.00    +0.000 OA
ATOM     12  H   UNL     1      -0.617   9.138  20.461  0.00  0.00    +0.000 HD
BRANCH  10  13
ATOM     13  C   UNL     1      -0.989  10.762  18.574  0.00  0.00    +0.000 A 
ATOM     14  C   UNL     1      -1.812  11.617  19.284  0.00  0.00    +0.000 A 
ATOM     15  C   UNL     1      -2.944  11.874  18.481  0.00  0.00    +0.000 A 
ATOM     16  C   UNL     1      -2.736  11.195  17.300  0.00  0.00    +0.000 A 
ATOM     17  C   UNL     1      -3.514  11.135  16.044  0.00  0.00    +0.000 C 
ATOM     18  O   UNL     1      -1.565  10.489  17.357  0.00  0.00    +0.000 OA
ENDBRANCH  10  13
ENDBRANCH   7   9
ENDBRANCH   4   7
BRANCH   1  19
ATOM     19  O   UNL     1       1.817   3.476  18.589  0.00  0.00    +0.000 OA
BRANCH  19  22
ATOM     20  N   UNL     1       4.776   2.946  18.579  0.00  0.00    +0.000 N 
ATOM     21  C   UNL     1       3.818   2.222  17.782  0.00  0.00    +0.000 C 
ATOM     22  C   UNL     1       2.776   2.435  18.891  0.00  0.00    +0.000 C 
ATOM     23  C   UNL     1       3.967   2.835  19.770  0.00  0.00    +0.000 C 
BRANCH  20  27
ATOM     24  C   UNL     1       6.788   6.461  17.306  0.00  0.00    +0.000 A 
ATOM     25  C   UNL     1       6.678   6.161  18.662  0.00  0.00    +0.000 A 
ATOM     26  C   UNL     1       6.035   4.992  19.083  0.00  0.00    +0.000 A 
ATOM     27  C   UNL     1       5.463   4.112  18.158  0.00  0.00    +0.000 A 
ATOM     28  C   UNL     1       5.600   4.418  16.796  0.00  0.00    +0.000 A 
ATOM     29  C   UNL     1       6.236   5.590  16.371  0.00  0.00    +0.000 A 
BRANCH  24  30
ATOM     30  O   UNL     1       7.449   7.622  17.018  0.00  0.00    +0.000 OA
BRANCH  30  32
ATOM     31  C   UNL     1       8.310   9.650  17.915  0.00  0.00    +0.000 C 
ATOM     32  C   UNL     1       8.285   8.140  18.052  0.00  0.00    +0.000 C 
ENDBRANCH  30  32
ENDBRANCH  24  30
ENDBRANCH  20  27
ENDBRANCH  19  22
ENDBRANCH   1  19
TORSDOF 8
ENDMDL
MODEL 3
REMARK VINA RESULT:      -8.0      2.626      3.787
REMARK  Name = 
REMARK  11 active torsions:
REMARK  status: ('A' for Active; 'I' for Inactive)
REMARK    1  A    between atoms: C_1  and  C_2
REMARK    2  A    between atoms: C_2  and  O_3
REMARK    3  A    between atoms: O_3  and  C_4
REMARK    4  A    between atoms: C_7  and  N_8
REMARK    5  A    between atoms: C_10  and  O_11
REMARK    6  A    between atoms: O_11  and  C_12
REMARK    7  A    between atoms: C_15  and  C_16
REMARK    8  A    between atoms: C_16  and  C_17
REMARK    9  A    between atoms: C_16  and  N_18
REMARK   10  A    between atoms: C_19  and  C_21
REMARK   11  A    between atoms: C_24  and  C_25
REMARK                            x       y       z     vdW  Elec       q    Type
REMARK                         _______ _______ _______ _____ _____    ______ ____
ROOT
ATOM      1  C   UNL     1       2.433   6.759  19.310  0.00  0.00    +0.000 A 
ATOM      2  C   UNL     1       2.401   7.643  18.232  0.00  0.00    +0.000 A 
ATOM      3  C   UNL     1       1.762   8.877  18.348  0.00  0.00    +0.000 A 
ATOM      4  C   UNL     1       1.133   9.245  19.548  0.00  0.00    +0.000 A 
ATOM      5  C   UNL     1       1.250   8.383  20.651  0.00  0.00    +0.000 A 
ATOM      6  C   UNL     1       1.894   7.142  20.533  0.00  0.00    +0.000 A 
ENDROOT
BRANCH   4   7
ATOM      7  C   UNL     1       0.317  10.524  19.604  0.00  0.00    +0.000 C 
ATOM      8  C   UNL     1      -0.979  10.412  18.799  0.00  0.00    +0.000 C 
BRANCH   7   9
ATOM      9  N   UNL     1       1.112  11.672  19.178  0.00  0.00    +0.000 N 
ATOM     10  C   UNL     1       1.460  12.671  20.060  0.00  0.00    +0.000 C 
ATOM     11  O   UNL     1       1.176  12.608  21.255  0.00  0.00    +0.000 OA
ATOM     12  H   UNL     1       1.323  11.811  18.197  0.00  0.00    +0.000 HD
BRANCH  10  13
ATOM     13  C   UNL     1       2.130  13.819  19.483  0.00  0.00    +0.000 A 
ATOM     14  C   UNL     1       1.739  15.146  19.475  0.00  0.00    +0.000 A 
ATOM     15  C   UNL     1       2.735  15.874  18.790  0.00  0.00    +0.000 A 
ATOM     16  C   UNL     1       3.708  14.960  18.449  0.00  0.00    +0.000 A 
ATOM     17  C   UNL     1       5.026  15.116  17.797  0.00  0.00    +0.000 C 
ATOM     18  O   UNL     1       3.337  13.702  18.838  0.00  0.00    +0.000 OA
ENDBRANCH  10  13
ENDBRANCH   7   9
ENDBRANCH   4   7
BRANCH   1  19
ATOM     19  O   UNL     1       2.906   5.509  19.013  0.00  0.00    +0.000 OA
BRANCH  19  22
ATOM     20  N   UNL     1       5.637   4.383  18.456  0.00  0.00    +0.000 N 
ATOM     21  C   UNL     1       4.576   3.657  19.106  0.00  0.00    +0.000 C 
ATOM     22  C   UNL     1       4.068   4.982  19.695  0.00  0.00    +0.000 C 
ATOM     23  C   UNL     1       5.427   5.554  19.275  0.00  0.00    +0.000 C 
BRANCH  20  27
ATOM     24  C   UNL     1       6.375   4.358  14.274  0.00  0.00    +0.000 A 
ATOM     25  C   UNL     1       5.103   4.076  14.770  0.00  0.00    +0.000 A 
ATOM     26  C   UNL     1       4.853   4.106  16.146  0.00  0.00    +0.000 A 
ATOM     27  C   UNL     1       5.875   4.390  17.058  0.00  0.00    +0.000 A 
ATOM     28  C   UNL     1       7.144   4.691  16.542  0.00  0.00    +0.000 A 
ATOM     29  C   UNL     1       7.401   4.655  15.167  0.00  0.00    +0.000 A 
BRANCH  24  30
ATOM     30  O   UNL     1       6.494   4.311  12.913  0.00  0.00    +0.000 OA
BRANCH  30  32
ATOM     31  C   UNL     1       4.740   3.348  11.626  0.00  0.00    +0.000 C 
ATOM     32  C   UNL     1       6.080   3.095  12.291  0.00  0.00    +0.000 C 
ENDBRANCH  30  32
ENDBRANCH  24  30
ENDBRANCH  20  27
ENDBRANCH  19  22
ENDBRANCH   1  19
TORSDOF 8
ENDMDL
MODEL 4
REMARK VINA RESULT:      -8.0      3.218      4.577
REMARK  Name = 
REMARK  11 active torsions:
REMARK  status: ('A' for Active; 'I' for Inactive)
REMARK    1  A    between atoms: C_1  and  C_2
REMARK    2  A    between atoms: C_2  and  O_3
REMARK    3  A    between atoms: O_3  and  C_4
REMARK    4  A    between atoms: C_7  and  N_8
REMARK    5  A    between atoms: C_10  and  O_11
REMARK    6  A    between atoms: O_11  and  C_12
REMARK    7  A    between atoms: C_15  and  C_16
REMARK    8  A    between atoms: C_16  and  C_17
REMARK    9  A    between atoms: C_16  and  N_18
REMARK   10  A    between atoms: C_19  and  C_21
REMARK   11  A    between atoms: C_24  and  C_25
REMARK                            x       y       z     vdW  Elec       q    Type
REMARK                         _______ _______ _______ _____ _____    ______ ____
ROOT
ATOM      1  C   UNL     1       2.463   5.606  18.678  0.00  0.00    +0.000 A 
ATOM      2  C   UNL     1       2.579   6.930  18.259  0.00  0.00    +0.000 A 
ATOM      3  C   UNL     1       2.157   7.974  19.083  0.00  0.00    +0.000 A 
ATOM      4  C   UNL     1       1.600   7.706  20.343  0.00  0.00    +0.000 A 
ATOM      5  C   UNL     1       1.571   6.374  20.788  0.00  0.00    +0.000 A 
ATOM      6  C   UNL     1       1.996   5.327  19.958  0.00  0.00    +0.000 A 
ENDROOT
BRANCH   4   7
ATOM      7  C   UNL     1       1.010   8.844  21.158  0.00  0.00    +0.000 C 
ATOM      8  C   UNL     1      -0.377   8.497  21.703  0.00  0.00    +0.000 C 
BRANCH   7   9
ATOM      9  N   UNL     1       0.986  10.083  20.387  0.00  0.00    +0.000 N 
ATOM     10  C   UNL     1       0.630  11.281  20.966  0.00  0.00    +0.000 C 
ATOM     11  O   UNL     1       0.385  11.372  22.168  0.00  0.00    +0.000 OA
ATOM     12  H   UNL     1       1.117  10.063  19.383  0.00  0.00    +0.000 HD
BRANCH  10  13
ATOM     13  C   UNL     1       0.512  12.409  20.064  0.00  0.00    +0.000 A 
ATOM     14  C   UNL     1      -0.598  12.865  19.376  0.00  0.00    +0.000 A 
ATOM     15  C   UNL     1      -0.197  13.995  18.633  0.00  0.00    +0.000 A 
ATOM     16  C   UNL     1       1.131  14.201  18.938  0.00  0.00    +0.000 A 
ATOM     17  C   UNL     1       2.082  15.263  18.546  0.00  0.00    +0.000 C 
ATOM     18  O   UNL     1       1.582  13.224  19.783  0.00  0.00    +0.000 OA
ENDBRANCH  10  13
ENDBRANCH   7   9
ENDBRANCH   4   7
BRANCH   1  19
ATOM     19  O   UNL     1       2.719   4.673  17.710  0.00  0.00    +0.000 OA
BRANCH  19  22
ATOM     20  N   UNL     1       5.665   4.199  18.078  0.00  0.00    +0.000 N 
ATOM     21  C   UNL     1       4.879   3.640  17.006  0.00  0.00    +0.000 C 
ATOM     22  C   UNL     1       3.667   3.607  17.950  0.00  0.00    +0.000 C 
ATOM     23  C   UNL     1       4.685   3.835  19.074  0.00  0.00    +0.000 C 
BRANCH  20  27
ATOM     24  C   UNL     1       7.766   7.883  17.865  0.00  0.00    +0.000 A 
ATOM     25  C   UNL     1       6.618   7.678  17.103  0.00  0.00    +0.000 A 
ATOM     26  C   UNL     1       5.911   6.474  17.188  0.00  0.00    +0.000 A 
ATOM     27  C   UNL     1       6.353   5.437  18.016  0.00  0.00    +0.000 A 
ATOM     28  C   UNL     1       7.499   5.665  18.792  0.00  0.00    +0.000 A 
ATOM     29  C   UNL     1       8.214   6.865  18.704  0.00  0.00    +0.000 A 
BRANCH  24  30
ATOM     30  O   UNL     1       8.362   9.103  17.707  0.00  0.00    +0.000 OA
BRANCH  30  32
ATOM     31  C   UNL     1       9.439  11.063  18.519  0.00  0.00    +0.000 C 
ATOM     32  C   UNL     1       8.901   9.693  18.889  0.00  0.00    +0.000 C 
ENDBRANCH  30  32
ENDBRANCH  24  30
ENDBRANCH  20  27
ENDBRANCH  19  22
ENDBRANCH   1  19
TORSDOF 8
ENDMDL
MODEL 5
REMARK VINA RESULT:      -8.0      2.516     10.916
REMARK  Name = 
REMARK  11 active torsions:
REMARK  status: ('A' for Active; 'I' for Inactive)
REMARK    1  A    between atoms: C_1  and  C_2
REMARK    2  A    between atoms: C_2  and  O_3
REMARK    3  A    between atoms: O_3  and  C_4
REMARK    4  A    between atoms: C_7  and  N_8
REMARK    5  A    between atoms: C_10  and  O_11
REMARK    6  A    between atoms: O_11  and  C_12
REMARK    7  A    between atoms: C_15  and  C_16
REMARK    8  A    between atoms: C_16  and  C_17
REMARK    9  A    between atoms: C_16  and  N_18
REMARK   10  A    between atoms: C_19  and  C_21
REMARK   11  A    between atoms: C_24  and  C_25
REMARK                            x       y       z     vdW  Elec       q    Type
REMARK                         _______ _______ _______ _____ _____    ______ ____
ROOT
ATOM      1  C   UNL     1       2.355   7.568  18.925  0.00  0.00    +0.000 A 
ATOM      2  C   UNL     1       3.135   7.808  17.794  0.00  0.00    +0.000 A 
ATOM      3  C   UNL     1       4.232   6.996  17.506  0.00  0.00    +0.000 A 
ATOM      4  C   UNL     1       4.575   5.932  18.354  0.00  0.00    +0.000 A 
ATOM      5  C   UNL     1       3.729   5.648  19.440  0.00  0.00    +0.000 A 
ATOM      6  C   UNL     1       2.626   6.466  19.728  0.00  0.00    +0.000 A 
ENDROOT
BRANCH   4   7
ATOM      7  C   UNL     1       5.857   5.157  18.104  0.00  0.00    +0.000 C 
ATOM      8  C   UNL     1       6.988   5.610  19.029  0.00  0.00    +0.000 C 
BRANCH   7   9
ATOM      9  N   UNL     1       6.251   5.236  16.701  0.00  0.00    +0.000 N 
ATOM     10  C   UNL     1       5.911   4.248  15.803  0.00  0.00    +0.000 C 
ATOM     11  O   UNL     1       5.205   3.294  16.127  0.00  0.00    +0.000 OA
ATOM     12  H   UNL     1       6.883   5.964  16.388  0.00  0.00    +0.000 HD
BRANCH  10  13
ATOM     13  C   UNL     1       6.479   4.377  14.476  0.00  0.00    +0.000 A 
ATOM     14  C   UNL     1       6.172   3.676  13.323  0.00  0.00    +0.000 A 
ATOM     15  C   UNL     1       7.001   4.174  12.296  0.00  0.00    +0.000 A 
ATOM     16  C   UNL     1       7.745   5.186  12.863  0.00  0.00    +0.000 A 
ATOM     17  C   UNL     1       8.722   6.135  12.288  0.00  0.00    +0.000 C 
ATOM     18  O   UNL     1       7.459   5.297  14.196  0.00  0.00    +0.000 OA
ENDBRANCH  10  13
ENDBRANCH   7   9
ENDBRANCH   4   7
BRANCH   1  19
ATOM     19  O   UNL     1       1.440   8.545  19.209  0.00  0.00    +0.000 OA
BRANCH  19  22
ATOM     20  N   UNL     1      -0.013  11.167  18.985  0.00  0.00    +0.000 N 
ATOM     21  C   UNL     1      -0.261  10.027  18.140  0.00  0.00    +0.000 C 
ATOM     22  C   UNL     1       1.218   9.635  18.283  0.00  0.00    +0.000 C 
ATOM     23  C   UNL     1       1.418  11.053  18.833  0.00  0.00    +0.000 C 
BRANCH  20  27
ATOM     24  C   UNL     1      -2.003  12.004  22.642  0.00  0.00    +0.000 A 
ATOM     25  C   UNL     1      -2.407  12.620  21.460  0.00  0.00    +0.000 A 
ATOM     26  C   UNL     1      -1.768  12.328  20.250  0.00  0.00    +0.000 A 
ATOM     27  C   UNL     1      -0.691  11.437  20.201  0.00  0.00    +0.000 A 
ATOM     28  C   UNL     1      -0.308  10.810  21.396  0.00  0.00    +0.000 A 
ATOM     29  C   UNL     1      -0.940  11.104  22.610  0.00  0.00    +0.000 A 
BRANCH  24  30
ATOM     30  O   UNL     1      -2.711  12.358  23.756  0.00  0.00    +0.000 OA
BRANCH  30  32
ATOM     31  C   UNL     1      -4.804  12.409  24.887  0.00  0.00    +0.000 C 
ATOM     32  C   UNL     1      -4.101  12.615  23.558  0.00  0.00    +0.000 C 
ENDBRANCH  30  32
ENDBRANCH  24  30
ENDBRANCH  20  27
ENDBRANCH  19  22
ENDBRANCH   1  19
TORSDOF 8
ENDMDL
MODEL 6
REMARK VINA RESULT:      -7.9      0.820      1.492
REMARK  Name = 
REMARK  11 active torsions:
REMARK  status: ('A' for Active; 'I' for Inactive)
REMARK    1  A    between atoms: C_1  and  C_2
REMARK    2  A    between atoms: C_2  and  O_3
REMARK    3  A    between atoms: O_3  and  C_4
REMARK    4  A    between atoms: C_7  and  N_8
REMARK    5  A    between atoms: C_10  and  O_11
REMARK    6  A    between atoms: O_11  and  C_12
REMARK    7  A    between atoms: C_15  and  C_16
REMARK    8  A    between atoms: C_16  and  C_17
REMARK    9  A    between atoms: C_16  and  N_18
REMARK   10  A    between atoms: C_19  and  C_21
REMARK   11  A    between atoms: C_24  and  C_25
REMARK                            x       y       z     vdW  Elec       q    Type
REMARK                         _______ _______ _______ _____ _____    ______ ____
ROOT
ATOM      1  C   UNL     1       2.503   7.097  19.310  0.00  0.00    +0.000 A 
ATOM      2  C   UNL     1       2.305   8.108  18.371  0.00  0.00    +0.000 A 
ATOM      3  C   UNL     1       1.538   9.229  18.689  0.00  0.00    +0.000 A 
ATOM      4  C   UNL     1       0.946   9.352  19.955  0.00  0.00    +0.000 A 
ATOM      5  C   UNL     1       1.227   8.369  20.919  0.00  0.00    +0.000 A 
ATOM      6  C   UNL     1       1.999   7.243  20.597  0.00  0.00    +0.000 A 
ENDROOT
BRANCH   4   7
ATOM      7  C   UNL     1      -0.005  10.504  20.229  0.00  0.00    +0.000 C 
ATOM      8  C   UNL     1      -0.488  10.513  21.681  0.00  0.00    +0.000 C 
BRANCH   7   9
ATOM      9  N   UNL     1      -1.126  10.490  19.294  0.00  0.00    +0.000 N 
ATOM     10  C   UNL     1      -1.743  11.656  18.898  0.00  0.00    +0.000 C 
ATOM     11  O   UNL     1      -1.336  12.760  19.258  0.00  0.00    +0.000 OA
ATOM     12  H   UNL     1      -1.546   9.613  19.012  0.00  0.00    +0.000 HD
BRANCH  10  13
ATOM     13  C   UNL     1      -2.928  11.498  18.078  0.00  0.00    +0.000 A 
ATOM     14  C   UNL     1      -3.029  11.095  16.758  0.00  0.00    +0.000 A 
ATOM     15  C   UNL     1      -4.399  11.100  16.421  0.00  0.00    +0.000 A 
ATOM     16  C   UNL     1      -5.073  11.465  17.567  0.00  0.00    +0.000 A 
ATOM     17  C   UNL     1      -6.515  11.570  17.874  0.00  0.00    +0.000 C 
ATOM     18  O   UNL     1      -4.186  11.740  18.572  0.00  0.00    +0.000 OA
ENDBRANCH  10  13
ENDBRANCH   7   9
ENDBRANCH   4   7
BRANCH   1  19
ATOM     19  O   UNL     1       3.096   5.965  18.818  0.00  0.00    +0.000 OA
BRANCH  19  22
ATOM     20  N   UNL     1       5.642   4.437  18.350  0.00  0.00    +0.000 N 
ATOM     21  C   UNL     1       4.493   3.910  19.043  0.00  0.00    +0.000 C 
ATOM     22  C   UNL     1       4.177   5.329  19.540  0.00  0.00    +0.000 C 
ATOM     23  C   UNL     1       5.600   5.677  19.088  0.00  0.00    +0.000 C 
BRANCH  20  27
ATOM     24  C   UNL     1       6.292   4.114  14.166  0.00  0.00    +0.000 A 
ATOM     25  C   UNL     1       7.205   4.789  14.974  0.00  0.00    +0.000 A 
ATOM     26  C   UNL     1       7.004   4.876  16.356  0.00  0.00    +0.000 A 
ATOM     27  C   UNL     1       5.871   4.317  16.956  0.00  0.00    +0.000 A 
ATOM     28  C   UNL     1       4.971   3.625  16.132  0.00  0.00    +0.000 A 
ATOM     29  C   UNL     1       5.164   3.541  14.749  0.00  0.00    +0.000 A 
BRANCH  24  30
ATOM     30  O   UNL     1       6.602   4.084  12.836  0.00  0.00    +0.000 OA
BRANCH  30  32
ATOM     31  C   UNL     1       4.657   3.485  11.603  0.00  0.00    +0.000 C 
ATOM     32  C   UNL     1       6.020   3.020  12.082  0.00  0.00    +0.000 C 
ENDBRANCH  30  32
ENDBRANCH  24  30
ENDBRANCH  20  27
ENDBRANCH  19  22
ENDBRANCH   1  19
TORSDOF 8
ENDMDL
MODEL 7
REMARK VINA RESULT:      -7.9      2.727      4.141
REMARK  Name = 
REMARK  11 active torsions:
REMARK  status: ('A' for Active; 'I' for Inactive)
REMARK    1  A    between atoms: C_1  and  C_2
REMARK    2  A    between atoms: C_2  and  O_3
REMARK    3  A    between atoms: O_3  and  C_4
REMARK    4  A    between atoms: C_7  and  N_8
REMARK    5  A    between atoms: C_10  and  O_11
REMARK    6  A    between atoms: O_11  and  C_12
REMARK    7  A    between atoms: C_15  and  C_16
REMARK    8  A    between atoms: C_16  and  C_17
REMARK    9  A    between atoms: C_16  and  N_18
REMARK   10  A    between atoms: C_19  and  C_21
REMARK   11  A    between atoms: C_24  and  C_25
REMARK                            x       y       z     vdW  Elec       q    Type
REMARK                         _______ _______ _______ _____ _____    ______ ____
ROOT
ATOM      1  C   UNL     1       2.417   6.893  19.212  0.00  0.00    +0.000 A 
ATOM      2  C   UNL     1       2.383   7.714  18.086  0.00  0.00    +0.000 A 
ATOM      3  C   UNL     1       1.746   8.954  18.134  0.00  0.00    +0.000 A 
ATOM      4  C   UNL     1       1.123   9.391  19.313  0.00  0.00    +0.000 A 
ATOM      5  C   UNL     1       1.243   8.593  20.464  0.00  0.00    +0.000 A 
ATOM      6  C   UNL     1       1.884   7.346  20.413  0.00  0.00    +0.000 A 
ENDROOT
BRANCH   4   7
ATOM      7  C   UNL     1       0.310  10.674  19.300  0.00  0.00    +0.000 C 
ATOM      8  C   UNL     1      -0.879  10.586  18.341  0.00  0.00    +0.000 C 
BRANCH   7   9
ATOM      9  N   UNL     1       1.154  11.826  19.000  0.00  0.00    +0.000 N 
ATOM     10  C   UNL     1       1.627  12.648  19.999  0.00  0.00    +0.000 C 
ATOM     11  O   UNL     1       1.417  12.410  21.187  0.00  0.00    +0.000 OA
ATOM     12  H   UNL     1       1.310  12.109  18.040  0.00  0.00    +0.000 HD
BRANCH  10  13
ATOM     13  C   UNL     1       2.337  13.833  19.560  0.00  0.00    +0.000 A 
ATOM     14  C   UNL     1       1.937  14.810  18.666  0.00  0.00    +0.000 A 
ATOM     15  C   UNL     1       2.983  15.753  18.579  0.00  0.00    +0.000 A 
ATOM     16  C   UNL     1       3.955  15.327  19.458  0.00  0.00    +0.000 A 
ATOM     17  C   UNL     1       5.241  15.925  19.874  0.00  0.00    +0.000 C 
ATOM     18  O   UNL     1       3.587  14.144  20.037  0.00  0.00    +0.000 OA
ENDBRANCH  10  13
ENDBRANCH   7   9
ENDBRANCH   4   7
BRANCH   1  19
ATOM     19  O   UNL     1       2.887   5.627  18.985  0.00  0.00    +0.000 OA
BRANCH  19  22
ATOM     20  N   UNL     1       5.624   4.503  18.458  0.00  0.00    +0.000 N 
ATOM     21  C   UNL     1       4.575   3.796  19.149  0.00  0.00    +0.000 C 
ATOM     22  C   UNL     1       4.059   5.142  19.682  0.00  0.00    +0.000 C 
ATOM     23  C   UNL     1       5.409   5.707  19.225  0.00  0.00    +0.000 C 
BRANCH  20  27
ATOM     24  C   UNL     1       6.286   4.391  14.265  0.00  0.00    +0.000 A 
ATOM     25  C   UNL     1       7.355   4.540  15.146  0.00  0.00    +0.000 A 
ATOM     26  C   UNL     1       7.141   4.554  16.529  0.00  0.00    +0.000 A 
ATOM     27  C   UNL     1       5.851   4.449  17.059  0.00  0.00    +0.000 A 
ATOM     28  C   UNL     1       4.788   4.280  16.161  0.00  0.00    +0.000 A 
ATOM     29  C   UNL     1       4.996   4.272  14.777  0.00  0.00    +0.000 A 
BRANCH  24  30
ATOM     30  O   UNL     1       6.619   4.378  12.940  0.00  0.00    +0.000 OA
BRANCH  30  32
ATOM     31  C   UNL     1       4.974   3.230  11.661  0.00  0.00    +0.000 C 
ATOM     32  C   UNL     1       6.373   3.156  12.245  0.00  0.00    +0.000 C 
ENDBRANCH  30  32
ENDBRANCH  24  30
ENDBRANCH  20  27
ENDBRANCH  19  22
ENDBRANCH   1  19
TORSDOF 8
ENDMDL
MODEL 8
REMARK VINA RESULT:      -7.7      1.146      1.505
REMARK  Name = 
REMARK  11 active torsions:
REMARK  status: ('A' for Active; 'I' for Inactive)
REMARK    1  A    between atoms: C_1  and  C_2
REMARK    2  A    between atoms: C_2  and  O_3
REMARK    3  A    between atoms: O_3  and  C_4
REMARK    4  A    between atoms: C_7  and  N_8
REMARK    5  A    between atoms: C_10  and  O_11
REMARK    6  A    between atoms: O_11  and  C_12
REMARK    7  A    between atoms: C_15  and  C_16
REMARK    8  A    between atoms: C_16  and  C_17
REMARK    9  A    between atoms: C_16  and  N_18
REMARK   10  A    between atoms: C_19  and  C_21
REMARK   11  A    between atoms: C_24  and  C_25
REMARK                            x       y       z     vdW  Elec       q    Type
REMARK                         _______ _______ _______ _____ _____    ______ ____
ROOT
ATOM      1  C   UNL     1       2.226   7.627  19.158  0.00  0.00    +0.000 A 
ATOM      2  C   UNL     1       1.920   8.641  18.251  0.00  0.00    +0.000 A 
ATOM      3  C   UNL     1       1.145   9.732  18.644  0.00  0.00    +0.000 A 
ATOM      4  C   UNL     1       0.654   9.822  19.956  0.00  0.00    +0.000 A 
ATOM      5  C   UNL     1       1.044   8.839  20.882  0.00  0.00    +0.000 A 
ATOM      6  C   UNL     1       1.824   7.743  20.484  0.00  0.00    +0.000 A 
ENDROOT
BRANCH   4   7
ATOM      7  C   UNL     1      -0.309  10.938  20.321  0.00  0.00    +0.000 C 
ATOM      8  C   UNL     1      -0.740  10.865  21.787  0.00  0.00    +0.000 C 
BRANCH   7   9
ATOM      9  N   UNL     1      -1.462  10.948  19.426  0.00  0.00    +0.000 N 
ATOM     10  C   UNL     1      -2.284  12.049  19.328  0.00  0.00    +0.000 C 
ATOM     11  O   UNL     1      -2.046  13.092  19.935  0.00  0.00    +0.000 OA
ATOM     12  H   UNL     1      -1.746  10.101  18.948  0.00  0.00    +0.000 HD
BRANCH  10  13
ATOM     13  C   UNL     1      -3.469  11.882  18.510  0.00  0.00    +0.000 A 
ATOM     14  C   UNL     1      -3.592  11.312  17.256  0.00  0.00    +0.000 A 
ATOM     15  C   UNL     1      -4.953  11.389  16.891  0.00  0.00    +0.000 A 
ATOM     16  C   UNL     1      -5.603  11.966  17.960  0.00  0.00    +0.000 A 
ATOM     17  C   UNL     1      -7.033  12.237  18.218  0.00  0.00    +0.000 C 
ATOM     18  O   UNL     1      -4.706  12.299  18.938  0.00  0.00    +0.000 OA
ENDBRANCH  10  13
ENDBRANCH   7   9
ENDBRANCH   4   7
BRANCH   1  19
ATOM     19  O   UNL     1       2.814   6.521  18.605  0.00  0.00    +0.000 OA
BRANCH  19  22
ATOM     20  N   UNL     1       5.080   4.554  18.428  0.00  0.00    +0.000 N 
ATOM     21  C   UNL     1       3.733   4.210  18.810  0.00  0.00    +0.000 C 
ATOM     22  C   UNL     1       3.581   5.609  19.426  0.00  0.00    +0.000 C 
ATOM     23  C   UNL     1       5.107   5.699  19.307  0.00  0.00    +0.000 C 
BRANCH  20  27
ATOM     24  C   UNL     1       6.591   4.419  14.462  0.00  0.00    +0.000 A 
ATOM     25  C   UNL     1       5.238   4.201  14.711  0.00  0.00    +0.000 A 
ATOM     26  C   UNL     1       4.734   4.268  16.014  0.00  0.00    +0.000 A 
ATOM     27  C   UNL     1       5.577   4.525  17.100  0.00  0.00    +0.000 A 
ATOM     28  C   UNL     1       6.933   4.761  16.832  0.00  0.00    +0.000 A 
ATOM     29  C   UNL     1       7.443   4.688  15.530  0.00  0.00    +0.000 A 
BRANCH  24  30
ATOM     30  O   UNL     1       6.963   4.341  13.149  0.00  0.00    +0.000 OA
BRANCH  30  32
ATOM     31  C   UNL     1       7.201   2.639  11.505  0.00  0.00    +0.000 C 
ATOM     32  C   UNL     1       6.215   3.434  12.340  0.00  0.00    +0.000 C 
ENDBRANCH  30  32
ENDBRANCH  24  30
ENDBRANCH  20  27
ENDBRANCH  19  22
ENDBRANCH   1  19
TORSDOF 8
ENDMDL
MODEL 9
REMARK VINA RESULT:      -7.7      1.429      2.028
REMARK  Name = 
REMARK  11 active torsions:
REMARK  status: ('A' for Active; 'I' for Inactive)
REMARK    1  A    between atoms: C_1  and  C_2
REMARK    2  A    between atoms: C_2  and  O_3
REMARK    3  A    between atoms: O_3  and  C_4
REMARK    4  A    between atoms: C_7  and  N_8
REMARK    5  A    between atoms: C_10  and  O_11
REMARK    6  A    between atoms: O_11  and  C_12
REMARK    7  A    between atoms: C_15  and  C_16
REMARK    8  A    between atoms: C_16  and  C_17
REMARK    9  A    between atoms: C_16  and  N_18
REMARK   10  A    between atoms: C_19  and  C_21
REMARK   11  A    between atoms: C_24  and  C_25
REMARK                            x       y       z     vdW  Elec       q    Type
REMARK                         _______ _______ _______ _____ _____    ______ ____
ROOT
ATOM      1  C   UNL     1       2.131   6.610  20.143  0.00  0.00    +0.000 A 
ATOM      2  C   UNL     1       1.321   7.450  20.904  0.00  0.00    +0.000 A 
ATOM      3  C   UNL     1       0.984   8.721  20.440  0.00  0.00    +0.000 A 
ATOM      4  C   UNL     1       1.463   9.178  19.202  0.00  0.00    +0.000 A 
ATOM      5  C   UNL     1       2.204   8.289  18.406  0.00  0.00    +0.000 A 
ATOM      6  C   UNL     1       2.542   7.010  18.876  0.00  0.00    +0.000 A 
ENDROOT
BRANCH   4   7
ATOM      7  C   UNL     1       1.208  10.616  18.785  0.00  0.00    +0.000 C 
ATOM      8  C   UNL     1       1.144  11.558  19.989  0.00  0.00    +0.000 C 
BRANCH   7   9
ATOM      9  N   UNL     1       0.006  10.718  17.963  0.00  0.00    +0.000 N 
ATOM     10  C   UNL     1      -1.214  11.041  18.515  0.00  0.00    +0.000 C 
ATOM     11  O   UNL     1      -1.332  11.324  19.706  0.00  0.00    +0.000 OA
ATOM     12  H   UNL     1       0.027  10.437  16.990  0.00  0.00    +0.000 HD
BRANCH  10  13
ATOM     13  C   UNL     1      -2.351  10.975  17.618  0.00  0.00    +0.000 A 
ATOM     14  C   UNL     1      -3.650  11.402  17.822  0.00  0.00    +0.000 A 
ATOM     15  C   UNL     1      -4.377  11.115  16.647  0.00  0.00    +0.000 A 
ATOM     16  C   UNL     1      -3.473  10.564  15.765  0.00  0.00    +0.000 A 
ATOM     17  C   UNL     1      -3.603  10.136  14.356  0.00  0.00    +0.000 C 
ATOM     18  O   UNL     1      -2.245  10.444  16.356  0.00  0.00    +0.000 OA
ENDBRANCH  10  13
ENDBRANCH   7   9
ENDBRANCH   4   7
BRANCH   1  19
ATOM     19  O   UNL     1       2.555   5.481  20.789  0.00  0.00    +0.000 OA
BRANCH  19  22
ATOM     20  N   UNL     1       3.112   3.369  18.723  0.00  0.00    +0.000 N 
ATOM     21  C   UNL     1       1.861   4.074  18.847  0.00  0.00    +0.000 C 
ATOM     22  C   UNL     1       2.101   4.175  20.362  0.00  0.00    +0.000 C 
ATOM     23  C   UNL     1       3.183   3.111  20.142  0.00  0.00    +0.000 C 
BRANCH  20  27
ATOM     24  C   UNL     1       6.385   4.558  16.293  0.00  0.00    +0.000 A 
ATOM     25  C   UNL     1       5.221   4.054  15.716  0.00  0.00    +0.000 A 
ATOM     26  C   UNL     1       4.133   3.684  16.513  0.00  0.00    +0.000 A 
ATOM     27  C   UNL     1       4.196   3.781  17.907  0.00  0.00    +0.000 A 
ATOM     28  C   UNL     1       5.366   4.307  18.472  0.00  0.00    +0.000 A 
ATOM     29  C   UNL     1       6.460   4.672  17.679  0.00  0.00    +0.000 A 
BRANCH  24  30
ATOM     30  O   UNL     1       7.373   4.898  15.413  0.00  0.00    +0.000 OA
BRANCH  30  32
ATOM     31  C   UNL     1       8.048   5.442  13.197  0.00  0.00    +0.000 C 
ATOM     32  C   UNL     1       7.125   4.585  14.043  0.00  0.00    +0.000 C 
ENDBRANCH  30  32
ENDBRANCH  24  30
ENDBRANCH  20  27
ENDBRANCH  19  22
ENDBRANCH   1  19
TORSDOF 8
ENDMDL
