MODEL 1
REMARK VINA RESULT:      -8.0      0.000      0.000
REMARK  Name = 
REMARK  4 active torsions:
REMARK  status: ('A' for Active; 'I' for Inactive)
REMARK    1  A    between atoms: C_1  and  C_2
REMARK    2  A    between atoms: C_5  and  C_7
REMARK    3  A    between atoms: C_16  and  C_18
REMARK    4  A    between atoms: C_18  and  C_20
REMARK                            x       y       z     vdW  Elec       q    Type
REMARK                         _______ _______ _______ _____ _____    ______ ____
ROOT
ATOM      1  C   UNL     1       1.652  11.161  19.602  0.00  0.00    +0.000 C 
ATOM      2  C   UNL     1       0.711   9.994  19.254  0.00  0.00    +0.000 C 
ATOM      3  C   UNL     1      -0.536   9.979  20.190  0.00  0.00    +0.000 C 
ATOM      4  N   UNL     1      -0.099   9.766  21.571  0.00  0.00    +0.000 N 
ATOM      5  C   UNL     1      -0.459  10.493  22.701  0.00  0.00    +0.000 C 
ATOM      6  O   UNL     1      -0.199  10.069  23.843  0.00  0.00    +0.000 OA
ATOM      7  C   UNL     1       0.608   8.471  21.724  0.00  0.00    +0.000 C 
ATOM      8  C   UNL     1       1.756   8.245  20.694  0.00  0.00    +0.000 C 
ATOM      9  N   UNL     1       1.443   8.696  19.331  0.00  0.00    +0.000 N 
ATOM     10  C   UNL     1       2.065   8.212  18.159  0.00  0.00    +0.000 C 
ATOM     11  O   UNL     1       1.826   8.726  17.040  0.00  0.00    +0.000 OA
ENDROOT
BRANCH   5  12
ATOM     12  C   UNL     1      -1.165  11.829  22.649  0.00  0.00    +0.000 A 
ATOM     13  C   UNL     1      -2.478  11.928  23.150  0.00  0.00    +0.000 A 
ATOM     14  C   UNL     1      -3.172  13.142  23.150  0.00  0.00    +0.000 A 
ATOM     15  C   UNL     1      -2.577  14.294  22.639  0.00  0.00    +0.000 A 
ATOM     16  C   UNL     1      -1.262  14.232  22.180  0.00  0.00    +0.000 A 
ATOM     17  C   UNL     1      -0.563  13.020  22.225  0.00  0.00    +0.000 A 
ENDBRANCH   5  12
BRANCH  10  18
ATOM     18  C   UNL     1       3.099   7.025  18.215  0.00  0.00    +0.000 C 
ATOM     19  O   UNL     1       4.303   7.253  18.194  0.00  0.00    +0.000 OA
BRANCH  18  20
ATOM     20  C   UNL     1       2.533   5.671  18.422  0.00  0.00    +0.000 A 
ATOM     21  C   UNL     1       2.229   4.875  17.326  0.00  0.00    +0.000 A 
ATOM     22  N   UNL     1       1.215   4.084  17.761  0.00  0.00    +0.000 N 
ATOM     23  C   UNL     1       1.470   3.750  19.054  0.00  0.00    +0.000 A 
ATOM     24  C   UNL     1       1.044   2.643  19.797  0.00  0.00    +0.000 A 
ATOM     25  C   UNL     1       1.399   2.599  21.141  0.00  0.00    +0.000 A 
ATOM     26  C   UNL     1       2.058   3.676  21.730  0.00  0.00    +0.000 A 
ATOM     27  C   UNL     1       2.421   4.825  20.972  0.00  0.00    +0.000 A 
ATOM     28  C   UNL     1       2.216   4.836  19.577  0.00  0.00    +0.000 A 
ATOM     29  H   UNL     1       0.449   3.732  17.196  0.00  0.00    +0.000 HD
ENDBRANCH  18  20
ENDBRANCH  10  18
TORSDOF 3
ENDMDL
MODEL 2
REMARK VINA RESULT:      -7.4      2.731      8.087
REMARK  Name = 
REMARK  4 active torsions:
REMARK  status: ('A' for Active; 'I' for Inactive)
REMARK    1  A    between atoms: C_1  and  C_2
REMARK    2  A    between atoms: C_5  and  C_7
REMARK    3  A    between atoms: C_16  and  C_18
REMARK    4  A    between atoms: C_18  and  C_20
REMARK                            x       y       z     vdW  Elec       q    Type
REMARK                         _______ _______ _______ _____ _____    ______ ____
ROOT
ATOM      1  C   UNL     1       1.194   7.731  17.484  0.00  0.00    +0.000 C 
ATOM      2  C   UNL     1       2.268   8.338  18.403  0.00  0.00    +0.000 C 
ATOM      3  C   UNL     1       3.014   7.228  19.205  0.00  0.00    +0.000 C 
ATOM      4  N   UNL     1       2.061   6.539  20.075  0.00  0.00    +0.000 N 
ATOM      5  C   UNL     1       1.873   5.168  20.217  0.00  0.00    +0.000 C 
ATOM      6  O   UNL     1       1.192   4.710  21.155  0.00  0.00    +0.000 OA
ATOM      7  C   UNL     1       1.439   7.472  21.047  0.00  0.00    +0.000 C 
ATOM      8  C   UNL     1       0.837   8.757  20.403  0.00  0.00    +0.000 C 
ATOM      9  N   UNL     1       1.656   9.335  19.330  0.00  0.00    +0.000 N 
ATOM     10  C   UNL     1       1.607  10.685  18.916  0.00  0.00    +0.000 C 
ATOM     11  O   UNL     1       2.254  11.080  17.916  0.00  0.00    +0.000 OA
ENDROOT
BRANCH   5  12
ATOM     12  C   UNL     1       2.449   4.140  19.270  0.00  0.00    +0.000 A 
ATOM     13  C   UNL     1       3.299   3.140  19.782  0.00  0.00    +0.000 A 
ATOM     14  C   UNL     1       3.842   2.148  18.959  0.00  0.00    +0.000 A 
ATOM     15  C   UNL     1       3.559   2.133  17.594  0.00  0.00    +0.000 A 
ATOM     16  C   UNL     1       2.683   3.084  17.071  0.00  0.00    +0.000 A 
ATOM     17  C   UNL     1       2.112   4.045  17.914  0.00  0.00    +0.000 A 
ENDBRANCH   5  12
BRANCH  10  18
ATOM     18  C   UNL     1       0.723  11.741  19.680  0.00  0.00    +0.000 C 
ATOM     19  O   UNL     1       1.213  12.432  20.566  0.00  0.00    +0.000 OA
BRANCH  18  20
ATOM     20  C   UNL     1      -0.659  11.926  19.178  0.00  0.00    +0.000 A 
ATOM     21  C   UNL     1      -1.375  13.063  19.531  0.00  0.00    +0.000 A 
ATOM     22  N   UNL     1      -2.672  12.662  19.497  0.00  0.00    +0.000 N 
ATOM     23  C   UNL     1      -2.820  11.813  18.445  0.00  0.00    +0.000 A 
ATOM     24  C   UNL     1      -3.961  11.500  17.699  0.00  0.00    +0.000 A 
ATOM     25  C   UNL     1      -3.835  10.523  16.716  0.00  0.00    +0.000 A 
ATOM     26  C   UNL     1      -2.641   9.822  16.571  0.00  0.00    +0.000 A 
ATOM     27  C   UNL     1      -1.510  10.108  17.390  0.00  0.00    +0.000 A 
ATOM     28  C   UNL     1      -1.555  11.194  18.287  0.00  0.00    +0.000 A 
ATOM     29  H   UNL     1      -3.416  13.004  20.096  0.00  0.00    +0.000 HD
ENDBRANCH  18  20
ENDBRANCH  10  18
TORSDOF 3
ENDMDL
MODEL 3
REMARK VINA RESULT:      -7.4      2.550      3.983
REMARK  Name = 
REMARK  4 active torsions:
REMARK  status: ('A' for Active; 'I' for Inactive)
REMARK    1  A    between atoms: C_1  and  C_2
REMARK    2  A    between atoms: C_5  and  C_7
REMARK    3  A    between atoms: C_16  and  C_18
REMARK    4  A    between atoms: C_18  and  C_20
REMARK                            x       y       z     vdW  Elec       q    Type
REMARK                         _______ _______ _______ _____ _____    ______ ____
ROOT
ATOM      1  C   UNL     1      -0.404   7.878  21.152  0.00  0.00    +0.000 C 
ATOM      2  C   UNL     1       1.132   7.962  21.195  0.00  0.00    +0.000 C 
ATOM      3  C   UNL     1       1.612   9.444  21.259  0.00  0.00    +0.000 C 
ATOM      4  N   UNL     1       1.189  10.141  20.043  0.00  0.00    +0.000 N 
ATOM      5  C   UNL     1       0.536  11.366  19.946  0.00  0.00    +0.000 C 
ATOM      6  O   UNL     1       0.439  11.952  18.851  0.00  0.00    +0.000 OA
ATOM      7  C   UNL     1       1.772   9.519  18.830  0.00  0.00    +0.000 C 
ATOM      8  C   UNL     1       1.561   7.978  18.737  0.00  0.00    +0.000 C 
ATOM      9  N   UNL     1       1.724   7.268  20.013  0.00  0.00    +0.000 N 
ATOM     10  C   UNL     1       2.047   5.899  20.138  0.00  0.00    +0.000 C 
ATOM     11  O   UNL     1       2.056   5.336  21.259  0.00  0.00    +0.000 OA
ENDROOT
BRANCH   5  12
ATOM     12  C   UNL     1      -0.105  12.070  21.120  0.00  0.00    +0.000 A 
ATOM     13  C   UNL     1       0.268  13.398  21.407  0.00  0.00    +0.000 A 
ATOM     14  C   UNL     1      -0.309  14.108  22.465  0.00  0.00    +0.000 A 
ATOM     15  C   UNL     1      -1.270  13.507  23.276  0.00  0.00    +0.000 A 
ATOM     16  C   UNL     1      -1.690  12.209  22.984  0.00  0.00    +0.000 A 
ATOM     17  C   UNL     1      -1.136  11.524  21.896  0.00  0.00    +0.000 A 
ENDBRANCH   5  12
BRANCH  10  18
ATOM     18  C   UNL     1       2.386   5.022  18.875  0.00  0.00    +0.000 C 
ATOM     19  O   UNL     1       1.494   4.663  18.114  0.00  0.00    +0.000 OA
BRANCH  18  20
ATOM     20  C   UNL     1       3.824   4.784  18.607  0.00  0.00    +0.000 A 
ATOM     21  C   UNL     1       4.350   3.506  18.749  0.00  0.00    +0.000 A 
ATOM     22  N   UNL     1       5.651   3.717  19.072  0.00  0.00    +0.000 N 
ATOM     23  C   UNL     1       6.094   4.783  18.354  0.00  0.00    +0.000 A 
ATOM     24  C   UNL     1       7.392   5.119  17.954  0.00  0.00    +0.000 A 
ATOM     25  C   UNL     1       7.564   6.327  17.285  0.00  0.00    +0.000 A 
ATOM     26  C   UNL     1       6.491   7.201  17.126  0.00  0.00    +0.000 A 
ATOM     27  C   UNL     1       5.190   6.870  17.603  0.00  0.00    +0.000 A 
ATOM     28  C   UNL     1       4.949   5.591  18.146  0.00  0.00    +0.000 A 
ATOM     29  H   UNL     1       6.217   3.130  19.677  0.00  0.00    +0.000 HD
ENDBRANCH  18  20
ENDBRANCH  10  18
TORSDOF 3
ENDMDL
MODEL 4
REMARK VINA RESULT:      -7.3      3.533      5.720
REMARK  Name = 
REMARK  4 active torsions:
REMARK  status: ('A' for Active; 'I' for Inactive)
REMARK    1  A    between atoms: C_1  and  C_2
REMARK    2  A    between atoms: C_5  and  C_7
REMARK    3  A    between atoms: C_16  and  C_18
REMARK    4  A    between atoms: C_18  and  C_20
REMARK                            x       y       z     vdW  Elec       q    Type
REMARK                         _______ _______ _______ _____ _____    ______ ____
ROOT
ATOM      1  C   UNL     1       1.474   5.385  20.242  0.00  0.00    +0.000 C 
ATOM      2  C   UNL     1       2.889   5.934  19.985  0.00  0.00    +0.000 C 
ATOM      3  C   UNL     1       2.908   7.492  20.055  0.00  0.00    +0.000 C 
ATOM      4  N   UNL     1       2.051   8.034  18.999  0.00  0.00    +0.000 N 
ATOM      5  C   UNL     1       1.059   9.001  19.120  0.00  0.00    +0.000 C 
ATOM      6  O   UNL     1       0.562   9.536  18.109  0.00  0.00    +0.000 OA
ATOM      7  C   UNL     1       2.523   7.626  17.654  0.00  0.00    +0.000 C 
ATOM      8  C   UNL     1       2.765   6.095  17.498  0.00  0.00    +0.000 C 
ATOM      9  N   UNL     1       3.396   5.462  18.663  0.00  0.00    +0.000 N 
ATOM     10  C   UNL     1       4.131   4.256  18.626  0.00  0.00    +0.000 C 
ATOM     11  O   UNL     1       4.543   3.716  19.681  0.00  0.00    +0.000 OA
ENDROOT
BRANCH   5  12
ATOM     12  C   UNL     1       0.499   9.469  20.444  0.00  0.00    +0.000 A 
ATOM     13  C   UNL     1       0.360  10.851  20.676  0.00  0.00    +0.000 A 
ATOM     14  C   UNL     1      -0.173  11.343  21.872  0.00  0.00    +0.000 A 
ATOM     15  C   UNL     1      -0.575  10.465  22.878  0.00  0.00    +0.000 A 
ATOM     16  C   UNL     1      -0.490   9.091  22.653  0.00  0.00    +0.000 A 
ATOM     17  C   UNL     1       0.005   8.612  21.435  0.00  0.00    +0.000 A 
ENDBRANCH   5  12
BRANCH  10  18
ATOM     18  C   UNL     1       4.441   3.531  17.263  0.00  0.00    +0.000 C 
ATOM     19  O   UNL     1       3.718   2.624  16.866  0.00  0.00    +0.000 OA
BRANCH  18  20
ATOM     20  C   UNL     1       5.550   4.094  16.457  0.00  0.00    +0.000 A 
ATOM     21  C   UNL     1       6.609   4.732  17.092  0.00  0.00    +0.000 A 
ATOM     22  N   UNL     1       7.052   5.631  16.176  0.00  0.00    +0.000 N 
ATOM     23  C   UNL     1       6.975   5.051  14.949  0.00  0.00    +0.000 A 
ATOM     24  C   UNL     1       7.698   5.319  13.782  0.00  0.00    +0.000 A 
ATOM     25  C   UNL     1       7.349   4.613  12.635  0.00  0.00    +0.000 A 
ATOM     26  C   UNL     1       6.250   3.758  12.643  0.00  0.00    +0.000 A 
ATOM     27  C   UNL     1       5.482   3.552  13.825  0.00  0.00    +0.000 A 
ATOM     28  C   UNL     1       5.901   4.130  15.040  0.00  0.00    +0.000 A 
ATOM     29  H   UNL     1       7.451   6.541  16.380  0.00  0.00    +0.000 HD
ENDBRANCH  18  20
ENDBRANCH  10  18
TORSDOF 3
ENDMDL
MODEL 5
REMARK VINA RESULT:      -7.3      1.953      2.732
REMARK  Name = 
REMARK  4 active torsions:
REMARK  status: ('A' for Active; 'I' for Inactive)
REMARK    1  A    between atoms: C_1  and  C_2
REMARK    2  A    between atoms: C_5  and  C_7
REMARK    3  A    between atoms: C_16  and  C_18
REMARK    4  A    between atoms: C_18  and  C_20
REMARK                            x       y       z     vdW  Elec       q    Type
REMARK                         _______ _______ _______ _____ _____    ______ ____
ROOT
ATOM      1  C   UNL     1      -0.836   9.248  20.755  0.00  0.00    +0.000 C 
ATOM      2  C   UNL     1       0.645   9.631  20.917  0.00  0.00    +0.000 C 
ATOM      3  C   UNL     1       0.795  11.114  21.376  0.00  0.00    +0.000 C 
ATOM      4  N   UNL     1       0.245  11.996  20.346  0.00  0.00    +0.000 N 
ATOM      5  C   UNL     1      -0.654  13.044  20.512  0.00  0.00    +0.000 C 
ATOM      6  O   UNL     1      -0.863  13.858  19.592  0.00  0.00    +0.000 OA
ATOM      7  C   UNL     1       0.961  11.838  19.056  0.00  0.00    +0.000 C 
ATOM      8  C   UNL     1       1.087  10.362  18.572  0.00  0.00    +0.000 C 
ATOM      9  N   UNL     1       1.384   9.399  19.641  0.00  0.00    +0.000 N 
ATOM     10  C   UNL     1       1.993   8.139  19.445  0.00  0.00    +0.000 C 
ATOM     11  O   UNL     1       2.111   7.323  20.390  0.00  0.00    +0.000 OA
ENDROOT
BRANCH   5  12
ATOM     12  C   UNL     1      -1.444  13.278  21.779  0.00  0.00    +0.000 A 
ATOM     13  C   UNL     1      -2.625  12.541  21.994  0.00  0.00    +0.000 A 
ATOM     14  C   UNL     1      -3.384  12.697  23.158  0.00  0.00    +0.000 A 
ATOM     15  C   UNL     1      -2.990  13.605  24.140  0.00  0.00    +0.000 A 
ATOM     16  C   UNL     1      -1.800  14.313  23.972  0.00  0.00    +0.000 A 
ATOM     17  C   UNL     1      -1.027  14.115  22.822  0.00  0.00    +0.000 A 
ENDBRANCH   5  12
BRANCH  10  18
ATOM     18  C   UNL     1       2.525   7.702  18.028  0.00  0.00    +0.000 C 
ATOM     19  O   UNL     1       2.522   8.496  17.094  0.00  0.00    +0.000 OA
BRANCH  18  20
ATOM     20  C   UNL     1       3.134   6.354  17.943  0.00  0.00    +0.000 A 
ATOM     21  C   UNL     1       4.513   6.225  17.838  0.00  0.00    +0.000 A 
ATOM     22  N   UNL     1       4.686   5.059  17.164  0.00  0.00    +0.000 N 
ATOM     23  C   UNL     1       3.745   4.179  17.599  0.00  0.00    +0.000 A 
ATOM     24  C   UNL     1       3.757   2.780  17.602  0.00  0.00    +0.000 A 
ATOM     25  C   UNL     1       2.608   2.131  18.042  0.00  0.00    +0.000 A 
ATOM     26  C   UNL     1       1.465   2.862  18.359  0.00  0.00    +0.000 A 
ATOM     27  C   UNL     1       1.452   4.284  18.281  0.00  0.00    +0.000 A 
ATOM     28  C   UNL     1       2.643   4.979  17.990  0.00  0.00    +0.000 A 
ATOM     29  H   UNL     1       5.439   4.852  16.515  0.00  0.00    +0.000 HD
ENDBRANCH  18  20
ENDBRANCH  10  18
TORSDOF 3
ENDMDL
MODEL 6
REMARK VINA RESULT:      -7.2      3.254      5.321
REMARK  Name = 
REMARK  4 active torsions:
REMARK  status: ('A' for Active; 'I' for Inactive)
REMARK    1  A    between atoms: C_1  and  C_2
REMARK    2  A    between atoms: C_5  and  C_7
REMARK    3  A    between atoms: C_16  and  C_18
REMARK    4  A    between atoms: C_18  and  C_20
REMARK                            x       y       z     vdW  Elec       q    Type
REMARK                         _______ _______ _______ _____ _____    ______ ____
ROOT
ATOM      1  C   UNL     1       0.819   5.530  20.378  0.00  0.00    +0.000 C 
ATOM      2  C   UNL     1       2.306   5.924  20.318  0.00  0.00    +0.000 C 
ATOM      3  C   UNL     1       2.485   7.466  20.469  0.00  0.00    +0.000 C 
ATOM      4  N   UNL     1       1.828   8.140  19.347  0.00  0.00    +0.000 N 
ATOM      5  C   UNL     1       0.939   9.208  19.397  0.00  0.00    +0.000 C 
ATOM      6  O   UNL     1       0.632   9.833  18.364  0.00  0.00    +0.000 OA
ATOM      7  C   UNL     1       2.416   7.732  18.048  0.00  0.00    +0.000 C 
ATOM      8  C   UNL     1       2.509   6.189  17.845  0.00  0.00    +0.000 C 
ATOM      9  N   UNL     1       2.919   5.446  19.044  0.00  0.00    +0.000 N 
ATOM     10  C   UNL     1       3.518   4.167  19.033  0.00  0.00    +0.000 C 
ATOM     11  O   UNL     1       3.736   3.545  20.101  0.00  0.00    +0.000 OA
ENDROOT
BRANCH   5  12
ATOM     12  C   UNL     1       0.274   9.687  20.667  0.00  0.00    +0.000 A 
ATOM     13  C   UNL     1       0.011   8.758  21.694  0.00  0.00    +0.000 A 
ATOM     14  C   UNL     1      -0.579   9.147  22.900  0.00  0.00    +0.000 A 
ATOM     15  C   UNL     1      -0.936  10.477  23.113  0.00  0.00    +0.000 A 
ATOM     16  C   UNL     1      -0.644  11.424  22.132  0.00  0.00    +0.000 A 
ATOM     17  C   UNL     1      -0.013  11.029  20.947  0.00  0.00    +0.000 A 
ENDBRANCH   5  12
BRANCH  10  18
ATOM     18  C   UNL     1       3.914   3.462  17.682  0.00  0.00    +0.000 C 
ATOM     19  O   UNL     1       3.198   2.587  17.207  0.00  0.00    +0.000 OA
BRANCH  18  20
ATOM     20  C   UNL     1       5.100   4.007  16.980  0.00  0.00    +0.000 A 
ATOM     21  C   UNL     1       6.136   4.574  17.714  0.00  0.00    +0.000 A 
ATOM     22  N   UNL     1       6.679   5.488  16.869  0.00  0.00    +0.000 N 
ATOM     23  C   UNL     1       6.667   4.960  15.617  0.00  0.00    +0.000 A 
ATOM     24  C   UNL     1       7.482   5.242  14.516  0.00  0.00    +0.000 A 
ATOM     25  C   UNL     1       7.188   4.597  13.318  0.00  0.00    +0.000 A 
ATOM     26  C   UNL     1       6.057   3.791  13.214  0.00  0.00    +0.000 A 
ATOM     27  C   UNL     1       5.199   3.572  14.329  0.00  0.00    +0.000 A 
ATOM     28  C   UNL     1       5.553   4.084  15.594  0.00  0.00    +0.000 A 
ATOM     29  H   UNL     1       7.099   6.371  17.139  0.00  0.00    +0.000 HD
ENDBRANCH  18  20
ENDBRANCH  10  18
TORSDOF 3
ENDMDL
MODEL 7
REMARK VINA RESULT:      -7.2      2.820      8.130
REMARK  Name = 
REMARK  4 active torsions:
REMARK  status: ('A' for Active; 'I' for Inactive)
REMARK    1  A    between atoms: C_1  and  C_2
REMARK    2  A    between atoms: C_5  and  C_7
REMARK    3  A    between atoms: C_16  and  C_18
REMARK    4  A    between atoms: C_18  and  C_20
REMARK                            x       y       z     vdW  Elec       q    Type
REMARK                         _______ _______ _______ _____ _____    ______ ____
ROOT
ATOM      1  C   UNL     1       1.070   8.425  17.616  0.00  0.00    +0.000 C 
ATOM      2  C   UNL     1       1.998   9.053  18.671  0.00  0.00    +0.000 C 
ATOM      3  C   UNL     1       2.856   7.963  19.384  0.00  0.00    +0.000 C 
ATOM      4  N   UNL     1       1.970   7.043  20.100  0.00  0.00    +0.000 N 
ATOM      5  C   UNL     1       1.977   5.653  20.065  0.00  0.00    +0.000 C 
ATOM      6  O   UNL     1       1.324   4.990  20.894  0.00  0.00    +0.000 OA
ATOM      7  C   UNL     1       1.172   7.750  21.132  0.00  0.00    +0.000 C 
ATOM      8  C   UNL     1       0.423   9.012  20.606  0.00  0.00    +0.000 C 
ATOM      9  N   UNL     1       1.202   9.829  19.667  0.00  0.00    +0.000 N 
ATOM     10  C   UNL     1       0.978  11.201  19.415  0.00  0.00    +0.000 C 
ATOM     11  O   UNL     1       1.609  11.805  18.515  0.00  0.00    +0.000 OA
ENDROOT
BRANCH   5  12
ATOM     12  C   UNL     1       2.743   4.843  19.044  0.00  0.00    +0.000 A 
ATOM     13  C   UNL     1       2.032   4.187  18.020  0.00  0.00    +0.000 A 
ATOM     14  C   UNL     1       2.687   3.444  17.033  0.00  0.00    +0.000 A 
ATOM     15  C   UNL     1       4.076   3.325  17.047  0.00  0.00    +0.000 A 
ATOM     16  C   UNL     1       4.806   4.003  18.023  0.00  0.00    +0.000 A 
ATOM     17  C   UNL     1       4.141   4.779  18.979  0.00  0.00    +0.000 A 
ENDBRANCH   5  12
BRANCH  10  18
ATOM     18  C   UNL     1      -0.088  12.018  20.237  0.00  0.00    +0.000 C 
ATOM     19  O   UNL     1       0.237  12.593  21.271  0.00  0.00    +0.000 OA
BRANCH  18  20
ATOM     20  C   UNL     1      -1.430  12.151  19.623  0.00  0.00    +0.000 A 
ATOM     21  C   UNL     1      -2.284  13.163  20.044  0.00  0.00    +0.000 A 
ATOM     22  N   UNL     1      -3.526  12.661  19.826  0.00  0.00    +0.000 N 
ATOM     23  C   UNL     1      -3.494  11.955  18.664  0.00  0.00    +0.000 A 
ATOM     24  C   UNL     1      -4.526  11.650  17.770  0.00  0.00    +0.000 A 
ATOM     25  C   UNL     1      -4.215  10.832  16.688  0.00  0.00    +0.000 A 
ATOM     26  C   UNL     1      -2.949  10.263  16.578  0.00  0.00    +0.000 A 
ATOM     27  C   UNL     1      -1.932  10.530  17.538  0.00  0.00    +0.000 A 
ATOM     28  C   UNL     1      -2.165  11.475  18.559  0.00  0.00    +0.000 A 
ATOM     29  H   UNL     1      -4.352  12.852  20.384  0.00  0.00    +0.000 HD
ENDBRANCH  18  20
ENDBRANCH  10  18
TORSDOF 3
ENDMDL
MODEL 8
REMARK VINA RESULT:      -7.1      3.266      9.338
REMARK  Name = 
REMARK  4 active torsions:
REMARK  status: ('A' for Active; 'I' for Inactive)
REMARK    1  A    between atoms: C_1  and  C_2
REMARK    2  A    between atoms: C_5  and  C_7
REMARK    3  A    between atoms: C_16  and  C_18
REMARK    4  A    between atoms: C_18  and  C_20
REMARK                            x       y       z     vdW  Elec       q    Type
REMARK                         _______ _______ _______ _____ _____    ______ ____
ROOT
ATOM      1  C   UNL     1      -1.753  12.448  20.101  0.00  0.00    +0.000 C 
ATOM      2  C   UNL     1      -0.860  12.887  21.275  0.00  0.00    +0.000 C 
ATOM      3  C   UNL     1       0.279  11.852  21.531  0.00  0.00    +0.000 C 
ATOM      4  N   UNL     1      -0.313  10.569  21.913  0.00  0.00    +0.000 N 
ATOM      5  C   UNL     1      -0.027   9.310  21.395  0.00  0.00    +0.000 C 
ATOM      6  O   UNL     1      -0.432   8.278  21.964  0.00  0.00    +0.000 OA
ATOM      7  C   UNL     1      -1.116  10.689  23.155  0.00  0.00    +0.000 C 
ATOM      8  C   UNL     1      -2.162  11.844  23.130  0.00  0.00    +0.000 C 
ATOM      9  N   UNL     1      -1.679  13.083  22.507  0.00  0.00    +0.000 N 
ATOM     10  C   UNL     1      -2.205  14.370  22.757  0.00  0.00    +0.000 C 
ATOM     11  O   UNL     1      -1.817  15.367  22.102  0.00  0.00    +0.000 OA
ENDROOT
BRANCH   5  12
ATOM     12  C   UNL     1       0.767   9.085  20.129  0.00  0.00    +0.000 A 
ATOM     13  C   UNL     1       1.669   8.004  20.070  0.00  0.00    +0.000 A 
ATOM     14  C   UNL     1       2.412   7.732  18.917  0.00  0.00    +0.000 A 
ATOM     15  C   UNL     1       2.283   8.541  17.789  0.00  0.00    +0.000 A 
ATOM     16  C   UNL     1       1.363   9.588  17.806  0.00  0.00    +0.000 A 
ATOM     17  C   UNL     1       0.594   9.824  18.951  0.00  0.00    +0.000 A 
ENDBRANCH   5  12
BRANCH  10  18
ATOM     18  C   UNL     1      -3.315  14.599  23.851  0.00  0.00    +0.000 C 
ATOM     19  O   UNL     1      -3.001  14.917  24.993  0.00  0.00    +0.000 OA
BRANCH  18  20
ATOM     20  C   UNL     1      -4.719  14.537  23.384  0.00  0.00    +0.000 A 
ATOM     21  C   UNL     1      -5.633  15.490  23.818  0.00  0.00    +0.000 A 
ATOM     22  N   UNL     1      -6.827  14.845  23.781  0.00  0.00    +0.000 N 
ATOM     23  C   UNL     1      -6.837  14.043  22.683  0.00  0.00    +0.000 A 
ATOM     24  C   UNL     1      -7.916  13.554  21.939  0.00  0.00    +0.000 A 
ATOM     25  C   UNL     1      -7.630  12.678  20.896  0.00  0.00    +0.000 A 
ATOM     26  C   UNL     1      -6.326  12.234  20.689  0.00  0.00    +0.000 A 
ATOM     27  C   UNL     1      -5.251  12.690  21.504  0.00  0.00    +0.000 A 
ATOM     28  C   UNL     1      -5.481  13.695  22.466  0.00  0.00    +0.000 A 
ATOM     29  H   UNL     1      -7.607  15.000  24.412  0.00  0.00    +0.000 HD
ENDBRANCH  18  20
ENDBRANCH  10  18
TORSDOF 3
ENDMDL
MODEL 9
REMARK VINA RESULT:      -7.1      3.577      4.983
REMARK  Name = 
REMARK  4 active torsions:
REMARK  status: ('A' for Active; 'I' for Inactive)
REMARK    1  A    between atoms: C_1  and  C_2
REMARK    2  A    between atoms: C_5  and  C_7
REMARK    3  A    between atoms: C_16  and  C_18
REMARK    4  A    between atoms: C_18  and  C_20
REMARK                            x       y       z     vdW  Elec       q    Type
REMARK                         _______ _______ _______ _____ _____    ______ ____
ROOT
ATOM      1  C   UNL     1       2.286  12.551  18.082  0.00  0.00    +0.000 C 
ATOM      2  C   UNL     1       0.837  12.166  18.427  0.00  0.00    +0.000 C 
ATOM      3  C   UNL     1      -0.024  13.431  18.730  0.00  0.00    +0.000 C 
ATOM      4  N   UNL     1       0.519  14.113  19.906  0.00  0.00    +0.000 N 
ATOM      5  C   UNL     1       0.816  15.464  20.046  0.00  0.00    +0.000 C 
ATOM      6  O   UNL     1       1.055  15.953  21.167  0.00  0.00    +0.000 OA
ATOM      7  C   UNL     1       0.490  13.238  21.103  0.00  0.00    +0.000 C 
ATOM      8  C   UNL     1       1.126  11.832  20.883  0.00  0.00    +0.000 C 
ATOM      9  N   UNL     1       0.811  11.223  19.584  0.00  0.00    +0.000 N 
ATOM     10  C   UNL     1       0.847   9.837  19.313  0.00  0.00    +0.000 C 
ATOM     11  O   UNL     1       0.676   9.400  18.150  0.00  0.00    +0.000 OA
ENDROOT
BRANCH   5  12
ATOM     12  C   UNL     1       0.888  16.432  18.887  0.00  0.00    +0.000 A 
ATOM     13  C   UNL     1       2.117  16.615  18.224  0.00  0.00    +0.000 A 
ATOM     14  C   UNL     1       2.239  17.478  17.131  0.00  0.00    +0.000 A 
ATOM     15  C   UNL     1       1.134  18.194  16.672  0.00  0.00    +0.000 A 
ATOM     16  C   UNL     1      -0.105  17.994  17.281  0.00  0.00    +0.000 A 
ATOM     17  C   UNL     1      -0.222  17.095  18.347  0.00  0.00    +0.000 A 
ENDBRANCH   5  12
BRANCH  10  18
ATOM     18  C   UNL     1       1.127   8.790  20.456  0.00  0.00    +0.000 C 
ATOM     19  O   UNL     1       0.676   8.969  21.582  0.00  0.00    +0.000 OA
BRANCH  18  20
ATOM     20  C   UNL     1       1.832   7.551  20.052  0.00  0.00    +0.000 A 
ATOM     21  C   UNL     1       1.552   6.355  20.702  0.00  0.00    +0.000 A 
ATOM     22  N   UNL     1       2.705   5.645  20.599  0.00  0.00    +0.000 N 
ATOM     23  C   UNL     1       3.236   5.882  19.370  0.00  0.00    +0.000 A 
ATOM     24  C   UNL     1       4.098   5.097  18.598  0.00  0.00    +0.000 A 
ATOM     25  C   UNL     1       4.549   5.633  17.396  0.00  0.00    +0.000 A 
ATOM     26  C   UNL     1       4.229   6.943  17.047  0.00  0.00    +0.000 A 
ATOM     27  C   UNL     1       3.406   7.751  17.882  0.00  0.00    +0.000 A 
ATOM     28  C   UNL     1       2.807   7.189  19.028  0.00  0.00    +0.000 A 
ATOM     29  H   UNL     1       3.061   4.986  21.284  0.00  0.00    +0.000 HD
ENDBRANCH  18  20
ENDBRANCH  10  18
TORSDOF 3
ENDMDL
