MODEL 1
REMARK VINA RESULT:      -6.8      0.000      0.000
REMARK  Name = 
REMARK  7 active torsions:
REMARK  status: ('A' for Active; 'I' for Inactive)
REMARK    1  A    between atoms: C_1  and  C_2
REMARK    2  A    between atoms: N_4  and  C_5
REMARK    3  A    between atoms: C_5  and  C_6
REMARK    4  A    between atoms: C_13  and  C_14
REMARK    5  A    between atoms: C_15  and  N_16
REMARK    6  A    between atoms: C_22  and  C_23
REMARK    7  A    between atoms: C_23  and  O_24
REMARK                            x       y       z     vdW  Elec       q    Type
REMARK                         _______ _______ _______ _____ _____    ______ ____
ROOT
ATOM      1  C   UNL     1       7.619   4.594  17.935  0.00  0.00    +0.000 C 
ATOM      2  C   UNL     1       6.473   5.592  17.709  0.00  0.00    +0.000 C 
ATOM      3  C   UNL     1       6.341   5.934  16.214  0.00  0.00    +0.000 C 
ATOM      4  N   UNL     1       5.904   4.784  15.405  0.00  0.00    +0.000 NA
ATOM      5  C   UNL     1       4.638   4.210  15.903  0.00  0.00    +0.000 C 
ATOM      6  C   UNL     1       4.658   3.859  17.403  0.00  0.00    +0.000 C 
ATOM      7  C   UNL     1       3.293   3.332  17.853  0.00  0.00    +0.000 C 
ATOM      8  C   UNL     1       5.129   5.058  18.252  0.00  0.00    +0.000 C 
ENDROOT
BRANCH   8   9
ATOM      9  N   UNL     1       4.109   6.113  18.266  0.00  0.00    +0.000 N 
ATOM     10  C   UNL     1       3.221   6.291  19.295  0.00  0.00    +0.000 C 
ATOM     11  O   UNL     1       3.187   5.558  20.274  0.00  0.00    +0.000 OA
ATOM     12  N   UNL     1       2.399   7.403  19.132  0.00  0.00    +0.000 N 
ATOM     13  C   UNL     1       1.524   7.785  20.237  0.00  0.00    +0.000 C 
ATOM     14  C   UNL     1       1.472   9.310  20.373  0.00  0.00    +0.000 C 
ATOM     15  C   UNL     1       1.096  10.009  19.057  0.00  0.00    +0.000 C 
ATOM     16  C   UNL     1       2.013   9.514  17.924  0.00  0.00    +0.000 C 
ATOM     17  C   UNL     1       2.049   7.991  17.835  0.00  0.00    +0.000 C 
ATOM     18  H   UNL     1       4.377   6.978  17.827  0.00  0.00    +0.000 HD
BRANCH  15  19
ATOM     19  C   UNL     1      -0.392   9.825  18.732  0.00  0.00    +0.000 C 
BRANCH  19  20
ATOM     20  O   UNL     1      -0.676  10.288  17.418  0.00  0.00    +0.000 OA
ATOM     21  H   UNL     1       0.145  10.665  17.058  0.00  0.00    +0.000 HD
ENDBRANCH  19  20
ENDBRANCH  15  19
ENDBRANCH   8   9
BRANCH   4  22
ATOM     22  C   UNL     1       5.741   5.165  13.985  0.00  0.00    +0.000 C 
BRANCH  22  23
ATOM     23  C   UNL     1       5.889   4.028  12.994  0.00  0.00    +0.000 A 
ATOM     24  C   UNL     1       4.765   3.414  12.425  0.00  0.00    +0.000 A 
ATOM     25  C   UNL     1       4.915   2.407  11.468  0.00  0.00    +0.000 A 
ATOM     26  C   UNL     1       6.188   2.008  11.065  0.00  0.00    +0.000 A 
ATOM     27  C   UNL     1       7.314   2.600  11.633  0.00  0.00    +0.000 A 
ATOM     28  C   UNL     1       7.166   3.600  12.595  0.00  0.00    +0.000 A 
ENDBRANCH  22  23
ENDBRANCH   4  22
TORSDOF 5
ENDMDL
MODEL 2
REMARK VINA RESULT:      -6.7      9.005     12.458
REMARK  Name = 
REMARK  7 active torsions:
REMARK  status: ('A' for Active; 'I' for Inactive)
REMARK    1  A    between atoms: C_1  and  C_2
REMARK    2  A    between atoms: N_4  and  C_5
REMARK    3  A    between atoms: C_5  and  C_6
REMARK    4  A    between atoms: C_13  and  C_14
REMARK    5  A    between atoms: C_15  and  N_16
REMARK    6  A    between atoms: C_22  and  C_23
REMARK    7  A    between atoms: C_23  and  O_24
REMARK                            x       y       z     vdW  Elec       q    Type
REMARK                         _______ _______ _______ _____ _____    ______ ____
ROOT
ATOM      1  C   UNL     1       4.120  15.825  22.236  0.00  0.00    +0.000 C 
ATOM      2  C   UNL     1       5.063  15.101  21.262  0.00  0.00    +0.000 C 
ATOM      3  C   UNL     1       4.422  14.997  19.867  0.00  0.00    +0.000 C 
ATOM      4  N   UNL     1       4.264  16.307  19.215  0.00  0.00    +0.000 NA
ATOM      5  C   UNL     1       5.544  17.037  19.127  0.00  0.00    +0.000 C 
ATOM      6  C   UNL     1       6.281  17.171  20.474  0.00  0.00    +0.000 C 
ATOM      7  C   UNL     1       7.625  17.881  20.287  0.00  0.00    +0.000 C 
ATOM      8  C   UNL     1       6.436  15.801  21.165  0.00  0.00    +0.000 C 
ENDROOT
BRANCH   8   9
ATOM      9  N   UNL     1       7.404  14.965  20.445  0.00  0.00    +0.000 N 
ATOM     10  C   UNL     1       8.125  13.962  21.039  0.00  0.00    +0.000 C 
ATOM     11  O   UNL     1       8.041  13.704  22.232  0.00  0.00    +0.000 OA
ATOM     12  N   UNL     1       8.921  13.248  20.147  0.00  0.00    +0.000 N 
ATOM     13  C   UNL     1       9.610  12.057  20.635  0.00  0.00    +0.000 C 
ATOM     14  C   UNL     1       9.586  10.954  19.572  0.00  0.00    +0.000 C 
ATOM     15  C   UNL     1      10.125  11.430  18.214  0.00  0.00    +0.000 C 
ATOM     16  C   UNL     1       9.403  12.722  17.790  0.00  0.00    +0.000 C 
ATOM     17  C   UNL     1       9.436  13.786  18.884  0.00  0.00    +0.000 C 
ATOM     18  H   UNL     1       7.172  14.766  19.487  0.00  0.00    +0.000 HD
BRANCH  15  19
ATOM     19  C   UNL     1      11.650  11.592  18.244  0.00  0.00    +0.000 C 
BRANCH  19  20
ATOM     20  O   UNL     1      12.118  12.144  17.020  0.00  0.00    +0.000 OA
ATOM     21  H   UNL     1      12.273  13.093  17.169  0.00  0.00    +0.000 HD
ENDBRANCH  19  20
ENDBRANCH  15  19
ENDBRANCH   8   9
BRANCH   4  22
ATOM     22  C   UNL     1       3.693  16.161  17.859  0.00  0.00    +0.000 C 
BRANCH  22  23
ATOM     23  C   UNL     1       2.329  16.792  17.663  0.00  0.00    +0.000 A 
ATOM     24  C   UNL     1       1.260  16.479  18.514  0.00  0.00    +0.000 A 
ATOM     25  C   UNL     1       0.024  17.111  18.361  0.00  0.00    +0.000 A 
ATOM     26  C   UNL     1      -0.156  18.066  17.363  0.00  0.00    +0.000 A 
ATOM     27  C   UNL     1       0.894  18.376  16.501  0.00  0.00    +0.000 A 
ATOM     28  C   UNL     1       2.128  17.740  16.647  0.00  0.00    +0.000 A 
ENDBRANCH  22  23
ENDBRANCH   4  22
TORSDOF 5
ENDMDL
MODEL 3
REMARK VINA RESULT:      -6.5      5.120      8.049
REMARK  Name = 
REMARK  7 active torsions:
REMARK  status: ('A' for Active; 'I' for Inactive)
REMARK    1  A    between atoms: C_1  and  C_2
REMARK    2  A    between atoms: N_4  and  C_5
REMARK    3  A    between atoms: C_5  and  C_6
REMARK    4  A    between atoms: C_13  and  C_14
REMARK    5  A    between atoms: C_15  and  N_16
REMARK    6  A    between atoms: C_22  and  C_23
REMARK    7  A    between atoms: C_23  and  O_24
REMARK                            x       y       z     vdW  Elec       q    Type
REMARK                         _______ _______ _______ _____ _____    ______ ____
ROOT
ATOM      1  C   UNL     1      -0.522   9.285  22.707  0.00  0.00    +0.000 C 
ATOM      2  C   UNL     1       0.511  10.175  21.999  0.00  0.00    +0.000 C 
ATOM      3  C   UNL     1       1.636   9.320  21.391  0.00  0.00    +0.000 C 
ATOM      4  N   UNL     1       1.167   8.467  20.287  0.00  0.00    +0.000 NA
ATOM      5  C   UNL     1       0.504   9.252  19.227  0.00  0.00    +0.000 C 
ATOM      6  C   UNL     1      -0.624  10.168  19.741  0.00  0.00    +0.000 C 
ATOM      7  C   UNL     1      -1.215  10.993  18.594  0.00  0.00    +0.000 C 
ATOM      8  C   UNL     1      -0.140  11.053  20.907  0.00  0.00    +0.000 C 
ENDROOT
BRANCH   8   9
ATOM      9  N   UNL     1       0.797  12.075  20.425  0.00  0.00    +0.000 N 
ATOM     10  C   UNL     1       1.075  13.228  21.111  0.00  0.00    +0.000 C 
ATOM     11  O   UNL     1       0.537  13.513  22.173  0.00  0.00    +0.000 OA
ATOM     12  N   UNL     1       2.054  14.012  20.506  0.00  0.00    +0.000 N 
ATOM     13  C   UNL     1       2.547  15.183  21.226  0.00  0.00    +0.000 C 
ATOM     14  C   UNL     1       4.059  15.332  21.028  0.00  0.00    +0.000 C 
ATOM     15  C   UNL     1       4.463  15.341  19.546  0.00  0.00    +0.000 C 
ATOM     16  C   UNL     1       3.858  14.118  18.833  0.00  0.00    +0.000 C 
ATOM     17  C   UNL     1       2.355  13.997  19.071  0.00  0.00    +0.000 C 
ATOM     18  H   UNL     1       1.587  11.727  19.909  0.00  0.00    +0.000 HD
BRANCH  15  19
ATOM     19  C   UNL     1       4.080  16.664  18.870  0.00  0.00    +0.000 C 
BRANCH  19  20
ATOM     20  O   UNL     1       4.459  17.768  19.682  0.00  0.00    +0.000 OA
ATOM     21  H   UNL     1       4.259  17.533  20.605  0.00  0.00    +0.000 HD
ENDBRANCH  19  20
ENDBRANCH  15  19
ENDBRANCH   8   9
BRANCH   4  22
ATOM     22  C   UNL     1       2.285   7.700  19.696  0.00  0.00    +0.000 C 
BRANCH  22  23
ATOM     23  C   UNL     1       2.033   6.213  19.539  0.00  0.00    +0.000 A 
ATOM     24  C   UNL     1       1.564   5.443  20.612  0.00  0.00    +0.000 A 
ATOM     25  C   UNL     1       1.278   4.087  20.440  0.00  0.00    +0.000 A 
ATOM     26  C   UNL     1       1.452   3.487  19.195  0.00  0.00    +0.000 A 
ATOM     27  C   UNL     1       1.931   4.237  18.124  0.00  0.00    +0.000 A 
ATOM     28  C   UNL     1       2.225   5.591  18.295  0.00  0.00    +0.000 A 
ENDBRANCH  22  23
ENDBRANCH   4  22
TORSDOF 5
ENDMDL
MODEL 4
REMARK VINA RESULT:      -6.5      4.146     10.630
REMARK  Name = 
REMARK  7 active torsions:
REMARK  status: ('A' for Active; 'I' for Inactive)
REMARK    1  A    between atoms: C_1  and  C_2
REMARK    2  A    between atoms: N_4  and  C_5
REMARK    3  A    between atoms: C_5  and  C_6
REMARK    4  A    between atoms: C_13  and  C_14
REMARK    5  A    between atoms: C_15  and  N_16
REMARK    6  A    between atoms: C_22  and  C_23
REMARK    7  A    between atoms: C_23  and  O_24
REMARK                            x       y       z     vdW  Elec       q    Type
REMARK                         _______ _______ _______ _____ _____    ______ ____
ROOT
ATOM      1  C   UNL     1       1.527  12.943  19.163  0.00  0.00    +0.000 C 
ATOM      2  C   UNL     1       1.696  11.470  19.565  0.00  0.00    +0.000 C 
ATOM      3  C   UNL     1       1.084  11.214  20.953  0.00  0.00    +0.000 C 
ATOM      4  N   UNL     1      -0.380  11.363  20.964  0.00  0.00    +0.000 NA
ATOM      5  C   UNL     1      -1.029  10.495  19.961  0.00  0.00    +0.000 C 
ATOM      6  C   UNL     1      -0.464  10.656  18.536  0.00  0.00    +0.000 C 
ATOM      7  C   UNL     1      -1.143   9.680  17.571  0.00  0.00    +0.000 C 
ATOM      8  C   UNL     1       1.071  10.515  18.524  0.00  0.00    +0.000 C 
ENDROOT
BRANCH   8   9
ATOM      9  N   UNL     1       1.464   9.125  18.782  0.00  0.00    +0.000 N 
ATOM     10  C   UNL     1       2.355   8.434  18.001  0.00  0.00    +0.000 C 
ATOM     11  O   UNL     1       2.872   8.916  17.002  0.00  0.00    +0.000 OA
ATOM     12  N   UNL     1       2.640   7.159  18.480  0.00  0.00    +0.000 N 
ATOM     13  C   UNL     1       3.694   6.391  17.822  0.00  0.00    +0.000 C 
ATOM     14  C   UNL     1       4.517   5.619  18.858  0.00  0.00    +0.000 C 
ATOM     15  C   UNL     1       3.645   4.750  19.778  0.00  0.00    +0.000 C 
ATOM     16  C   UNL     1       2.518   5.604  20.386  0.00  0.00    +0.000 C 
ATOM     17  C   UNL     1       1.735   6.369  19.322  0.00  0.00    +0.000 C 
ATOM     18  H   UNL     1       1.509   8.862  19.752  0.00  0.00    +0.000 HD
BRANCH  15  19
ATOM     19  C   UNL     1       3.113   3.515  19.040  0.00  0.00    +0.000 C 
BRANCH  19  20
ATOM     20  O   UNL     1       4.175   2.824  18.394  0.00  0.00    +0.000 OA
ATOM     21  H   UNL     1       3.784   2.293  17.679  0.00  0.00    +0.000 HD
ENDBRANCH  19  20
ENDBRANCH  15  19
ENDBRANCH   8   9
BRANCH   4  22
ATOM     22  C   UNL     1      -0.935  11.060  22.301  0.00  0.00    +0.000 C 
BRANCH  22  23
ATOM     23  C   UNL     1      -1.658  12.210  22.973  0.00  0.00    +0.000 A 
ATOM     24  C   UNL     1      -2.972  12.065  23.439  0.00  0.00    +0.000 A 
ATOM     25  C   UNL     1      -3.607  13.113  24.109  0.00  0.00    +0.000 A 
ATOM     26  C   UNL     1      -2.935  14.314  24.327  0.00  0.00    +0.000 A 
ATOM     27  C   UNL     1      -1.634  14.477  23.856  0.00  0.00    +0.000 A 
ATOM     28  C   UNL     1      -1.001  13.434  23.178  0.00  0.00    +0.000 A 
ENDBRANCH  22  23
ENDBRANCH   4  22
TORSDOF 5
ENDMDL
MODEL 5
REMARK VINA RESULT:      -6.5      4.222      7.552
REMARK  Name = 
REMARK  7 active torsions:
REMARK  status: ('A' for Active; 'I' for Inactive)
REMARK    1  A    between atoms: C_1  and  C_2
REMARK    2  A    between atoms: N_4  and  C_5
REMARK    3  A    between atoms: C_5  and  C_6
REMARK    4  A    between atoms: C_13  and  C_14
REMARK    5  A    between atoms: C_15  and  N_16
REMARK    6  A    between atoms: C_22  and  C_23
REMARK    7  A    between atoms: C_23  and  O_24
REMARK                            x       y       z     vdW  Elec       q    Type
REMARK                         _______ _______ _______ _____ _____    ______ ____
ROOT
ATOM      1  C   UNL     1      -0.272   8.469  21.435  0.00  0.00    +0.000 C 
ATOM      2  C   UNL     1       0.454   9.767  21.051  0.00  0.00    +0.000 C 
ATOM      3  C   UNL     1       1.649   9.466  20.129  0.00  0.00    +0.000 C 
ATOM      4  N   UNL     1       1.235   8.952  18.814  0.00  0.00    +0.000 NA
ATOM      5  C   UNL     1       0.295   9.866  18.135  0.00  0.00    +0.000 C 
ATOM      6  C   UNL     1      -0.927  10.253  18.991  0.00  0.00    +0.000 C 
ATOM      7  C   UNL     1      -1.816  11.251  18.243  0.00  0.00    +0.000 C 
ATOM      8  C   UNL     1      -0.497  10.780  20.375  0.00  0.00    +0.000 C 
ENDROOT
BRANCH   8   9
ATOM      9  N   UNL     1       0.137  12.098  20.253  0.00  0.00    +0.000 N 
ATOM     10  C   UNL     1       0.221  12.994  21.286  0.00  0.00    +0.000 C 
ATOM     11  O   UNL     1      -0.257  12.777  22.392  0.00  0.00    +0.000 OA
ATOM     12  N   UNL     1       0.936  14.145  20.966  0.00  0.00    +0.000 N 
ATOM     13  C   UNL     1       1.229  15.098  22.032  0.00  0.00    +0.000 C 
ATOM     14  C   UNL     1       2.642  15.666  21.867  0.00  0.00    +0.000 C 
ATOM     15  C   UNL     1       2.882  16.257  20.469  0.00  0.00    +0.000 C 
ATOM     16  C   UNL     1       2.494  15.226  19.394  0.00  0.00    +0.000 C 
ATOM     17  C   UNL     1       1.087  14.674  19.606  0.00  0.00    +0.000 C 
ATOM     18  H   UNL     1       0.928  12.140  19.633  0.00  0.00    +0.000 HD
BRANCH  15  19
ATOM     19  C   UNL     1       2.150  17.593  20.294  0.00  0.00    +0.000 C 
BRANCH  19  20
ATOM     20  O   UNL     1       2.194  18.012  18.936  0.00  0.00    +0.000 OA
ATOM     21  H   UNL     1       1.698  18.846  18.872  0.00  0.00    +0.000 HD
ENDBRANCH  19  20
ENDBRANCH  15  19
ENDBRANCH   8   9
BRANCH   4  22
ATOM     22  C   UNL     1       2.406   8.723  17.940  0.00  0.00    +0.000 C 
BRANCH  22  23
ATOM     23  C   UNL     1       2.901   7.291  17.890  0.00  0.00    +0.000 A 
ATOM     24  C   UNL     1       2.099   6.233  18.342  0.00  0.00    +0.000 A 
ATOM     25  C   UNL     1       2.542   4.913  18.236  0.00  0.00    +0.000 A 
ATOM     26  C   UNL     1       3.786   4.634  17.673  0.00  0.00    +0.000 A 
ATOM     27  C   UNL     1       4.599   5.676  17.234  0.00  0.00    +0.000 A 
ATOM     28  C   UNL     1       4.162   6.997  17.347  0.00  0.00    +0.000 A 
ENDBRANCH  22  23
ENDBRANCH   4  22
TORSDOF 5
ENDMDL
MODEL 6
REMARK VINA RESULT:      -6.4      5.036      7.999
REMARK  Name = 
REMARK  7 active torsions:
REMARK  status: ('A' for Active; 'I' for Inactive)
REMARK    1  A    between atoms: C_1  and  C_2
REMARK    2  A    between atoms: N_4  and  C_5
REMARK    3  A    between atoms: C_5  and  C_6
REMARK    4  A    between atoms: C_13  and  C_14
REMARK    5  A    between atoms: C_15  and  N_16
REMARK    6  A    between atoms: C_22  and  C_23
REMARK    7  A    between atoms: C_23  and  O_24
REMARK                            x       y       z     vdW  Elec       q    Type
REMARK                         _______ _______ _______ _____ _____    ______ ____
ROOT
ATOM      1  C   UNL     1      -0.433   9.403  22.383  0.00  0.00    +0.000 C 
ATOM      2  C   UNL     1       0.631  10.257  21.675  0.00  0.00    +0.000 C 
ATOM      3  C   UNL     1       1.720   9.361  21.058  0.00  0.00    +0.000 C 
ATOM      4  N   UNL     1       1.214   8.532  19.952  0.00  0.00    +0.000 NA
ATOM      5  C   UNL     1       0.577   9.348  18.898  0.00  0.00    +0.000 C 
ATOM      6  C   UNL     1      -0.513  10.303  19.421  0.00  0.00    +0.000 C 
ATOM      7  C   UNL     1      -1.077  11.157  18.281  0.00  0.00    +0.000 C 
ATOM      8  C   UNL     1       0.010  11.164  20.589  0.00  0.00    +0.000 C 
ENDROOT
BRANCH   8   9
ATOM      9  N   UNL     1       0.984  12.151  20.108  0.00  0.00    +0.000 N 
ATOM     10  C   UNL     1       1.333  13.273  20.814  0.00  0.00    +0.000 C 
ATOM     11  O   UNL     1       0.833  13.558  21.894  0.00  0.00    +0.000 OA
ATOM     12  N   UNL     1       2.333  14.024  20.203  0.00  0.00    +0.000 N 
ATOM     13  C   UNL     1       2.899  15.152  20.938  0.00  0.00    +0.000 C 
ATOM     14  C   UNL     1       4.411  15.235  20.707  0.00  0.00    +0.000 C 
ATOM     15  C   UNL     1       4.781  15.260  19.216  0.00  0.00    +0.000 C 
ATOM     16  C   UNL     1       4.102  14.084  18.490  0.00  0.00    +0.000 C 
ATOM     17  C   UNL     1       2.601  14.029  18.761  0.00  0.00    +0.000 C 
ATOM     18  H   UNL     1       1.744  11.778  19.566  0.00  0.00    +0.000 HD
BRANCH  15  19
ATOM     19  C   UNL     1       4.447  16.615  18.579  0.00  0.00    +0.000 C 
BRANCH  19  20
ATOM     20  O   UNL     1       5.552  17.503  18.687  0.00  0.00    +0.000 OA
ATOM     21  H   UNL     1       6.322  17.059  18.292  0.00  0.00    +0.000 HD
ENDBRANCH  19  20
ENDBRANCH  15  19
ENDBRANCH   8   9
BRANCH   4  22
ATOM     22  C   UNL     1       2.299   7.726  19.353  0.00  0.00    +0.000 C 
BRANCH  22  23
ATOM     23  C   UNL     1       2.052   6.230  19.332  0.00  0.00    +0.000 A 
ATOM     24  C   UNL     1       2.256   5.480  18.166  0.00  0.00    +0.000 A 
ATOM     25  C   UNL     1       2.083   4.094  18.175  0.00  0.00    +0.000 A 
ATOM     26  C   UNL     1       1.710   3.442  19.349  0.00  0.00    +0.000 A 
ATOM     27  C   UNL     1       1.490   4.178  20.512  0.00  0.00    +0.000 A 
ATOM     28  C   UNL     1       1.655   5.563  20.503  0.00  0.00    +0.000 A 
ENDBRANCH  22  23
ENDBRANCH   4  22
TORSDOF 5
ENDMDL
MODEL 7
REMARK VINA RESULT:      -6.4      4.277      7.725
REMARK  Name = 
REMARK  7 active torsions:
REMARK  status: ('A' for Active; 'I' for Inactive)
REMARK    1  A    between atoms: C_1  and  C_2
REMARK    2  A    between atoms: N_4  and  C_5
REMARK    3  A    between atoms: C_5  and  C_6
REMARK    4  A    between atoms: C_13  and  C_14
REMARK    5  A    between atoms: C_15  and  N_16
REMARK    6  A    between atoms: C_22  and  C_23
REMARK    7  A    between atoms: C_23  and  O_24
REMARK                            x       y       z     vdW  Elec       q    Type
REMARK                         _______ _______ _______ _____ _____    ______ ____
ROOT
ATOM      1  C   UNL     1      -0.366   8.706  21.328  0.00  0.00    +0.000 C 
ATOM      2  C   UNL     1       0.234  10.021  20.808  0.00  0.00    +0.000 C 
ATOM      3  C   UNL     1       1.488   9.744  19.959  0.00  0.00    +0.000 C 
ATOM      4  N   UNL     1       1.180   9.038  18.706  0.00  0.00    +0.000 NA
ATOM      5  C   UNL     1       0.176   9.759  17.899  0.00  0.00    +0.000 C 
ATOM      6  C   UNL     1      -1.111  10.109  18.670  0.00  0.00    +0.000 C 
ATOM      7  C   UNL     1      -2.071  10.910  17.786  0.00  0.00    +0.000 C 
ATOM      8  C   UNL     1      -0.791  10.838  19.991  0.00  0.00    +0.000 C 
ENDROOT
BRANCH   8   9
ATOM      9  N   UNL     1      -0.294  12.193  19.727  0.00  0.00    +0.000 N 
ATOM     10  C   UNL     1      -0.988  13.329  20.052  0.00  0.00    +0.000 C 
ATOM     11  O   UNL     1      -2.099  13.303  20.565  0.00  0.00    +0.000 OA
ATOM     12  N   UNL     1      -0.289  14.503  19.783  0.00  0.00    +0.000 N 
ATOM     13  C   UNL     1      -0.860  15.769  20.235  0.00  0.00    +0.000 C 
ATOM     14  C   UNL     1       0.242  16.694  20.759  0.00  0.00    +0.000 C 
ATOM     15  C   UNL     1       1.379  16.892  19.744  0.00  0.00    +0.000 C 
ATOM     16  C   UNL     1       1.891  15.523  19.261  0.00  0.00    +0.000 C 
ATOM     17  C   UNL     1       0.759  14.627  18.765  0.00  0.00    +0.000 C 
ATOM     18  H   UNL     1       0.703  12.309  19.800  0.00  0.00    +0.000 HD
BRANCH  15  19
ATOM     19  C   UNL     1       0.944  17.799  18.586  0.00  0.00    +0.000 C 
BRANCH  19  20
ATOM     20  O   UNL     1       2.019  18.000  17.678  0.00  0.00    +0.000 OA
ATOM     21  H   UNL     1       2.219  18.951  17.669  0.00  0.00    +0.000 HD
ENDBRANCH  19  20
ENDBRANCH  15  19
ENDBRANCH   8   9
BRANCH   4  22
ATOM     22  C   UNL     1       2.401   8.836  17.896  0.00  0.00    +0.000 C 
BRANCH  22  23
ATOM     23  C   UNL     1       2.908   7.408  17.842  0.00  0.00    +0.000 A 
ATOM     24  C   UNL     1       2.092   6.336  18.229  0.00  0.00    +0.000 A 
ATOM     25  C   UNL     1       2.549   5.021  18.119  0.00  0.00    +0.000 A 
ATOM     26  C   UNL     1       3.823   4.762  17.617  0.00  0.00    +0.000 A 
ATOM     27  C   UNL     1       4.650   5.819  17.242  0.00  0.00    +0.000 A 
ATOM     28  C   UNL     1       4.198   7.134  17.359  0.00  0.00    +0.000 A 
ENDBRANCH  22  23
ENDBRANCH   4  22
TORSDOF 5
ENDMDL
MODEL 8
REMARK VINA RESULT:      -6.4      4.168     10.674
REMARK  Name = 
REMARK  7 active torsions:
REMARK  status: ('A' for Active; 'I' for Inactive)
REMARK    1  A    between atoms: C_1  and  C_2
REMARK    2  A    between atoms: N_4  and  C_5
REMARK    3  A    between atoms: C_5  and  C_6
REMARK    4  A    between atoms: C_13  and  C_14
REMARK    5  A    between atoms: C_15  and  N_16
REMARK    6  A    between atoms: C_22  and  C_23
REMARK    7  A    between atoms: C_23  and  O_24
REMARK                            x       y       z     vdW  Elec       q    Type
REMARK                         _______ _______ _______ _____ _____    ______ ____
ROOT
ATOM      1  C   UNL     1       1.488  12.944  19.188  0.00  0.00    +0.000 C 
ATOM      2  C   UNL     1       1.643  11.469  19.590  0.00  0.00    +0.000 C 
ATOM      3  C   UNL     1       1.034  11.221  20.981  0.00  0.00    +0.000 C 
ATOM      4  N   UNL     1      -0.429  11.387  20.998  0.00  0.00    +0.000 NA
ATOM      5  C   UNL     1      -1.092  10.526  19.999  0.00  0.00    +0.000 C 
ATOM      6  C   UNL     1      -0.532  10.680  18.572  0.00  0.00    +0.000 C 
ATOM      7  C   UNL     1      -1.226   9.710  17.610  0.00  0.00    +0.000 C 
ATOM      8  C   UNL     1       1.002  10.521  18.553  0.00  0.00    +0.000 C 
ENDROOT
BRANCH   8   9
ATOM      9  N   UNL     1       1.380   9.126  18.810  0.00  0.00    +0.000 N 
ATOM     10  C   UNL     1       2.263   8.427  18.028  0.00  0.00    +0.000 C 
ATOM     11  O   UNL     1       2.784   8.904  17.029  0.00  0.00    +0.000 OA
ATOM     12  N   UNL     1       2.535   7.148  18.507  0.00  0.00    +0.000 N 
ATOM     13  C   UNL     1       3.580   6.370  17.848  0.00  0.00    +0.000 C 
ATOM     14  C   UNL     1       4.395   5.588  18.883  0.00  0.00    +0.000 C 
ATOM     15  C   UNL     1       3.515   4.729  19.803  0.00  0.00    +0.000 C 
ATOM     16  C   UNL     1       2.397   5.594  20.413  0.00  0.00    +0.000 C 
ATOM     17  C   UNL     1       1.622   6.368  19.349  0.00  0.00    +0.000 C 
ATOM     18  H   UNL     1       1.423   8.863  19.779  0.00  0.00    +0.000 HD
BRANCH  15  19
ATOM     19  C   UNL     1       2.969   3.499  19.065  0.00  0.00    +0.000 C 
BRANCH  19  20
ATOM     20  O   UNL     1       2.058   2.785  19.891  0.00  0.00    +0.000 OA
ATOM     21  H   UNL     1       1.247   3.317  19.957  0.00  0.00    +0.000 HD
ENDBRANCH  19  20
ENDBRANCH  15  19
ENDBRANCH   8   9
BRANCH   4  22
ATOM     22  C   UNL     1      -0.982  11.091  22.338  0.00  0.00    +0.000 C 
BRANCH  22  23
ATOM     23  C   UNL     1      -1.680  12.253  23.016  0.00  0.00    +0.000 A 
ATOM     24  C   UNL     1      -1.056  13.501  23.135  0.00  0.00    +0.000 A 
ATOM     25  C   UNL     1      -1.732  14.581  23.708  0.00  0.00    +0.000 A 
ATOM     26  C   UNL     1      -3.040  14.426  24.163  0.00  0.00    +0.000 A 
ATOM     27  C   UNL     1      -3.667  13.186  24.064  0.00  0.00    +0.000 A 
ATOM     28  C   UNL     1      -2.991  12.105  23.499  0.00  0.00    +0.000 A 
ENDBRANCH  22  23
ENDBRANCH   4  22
TORSDOF 5
ENDMDL
MODEL 9
REMARK VINA RESULT:      -6.4      5.362      9.195
REMARK  Name = 
REMARK  7 active torsions:
REMARK  status: ('A' for Active; 'I' for Inactive)
REMARK    1  A    between atoms: C_1  and  C_2
REMARK    2  A    between atoms: N_4  and  C_5
REMARK    3  A    between atoms: C_5  and  C_6
REMARK    4  A    between atoms: C_13  and  C_14
REMARK    5  A    between atoms: C_15  and  N_16
REMARK    6  A    between atoms: C_22  and  C_23
REMARK    7  A    between atoms: C_23  and  O_24
REMARK                            x       y       z     vdW  Elec       q    Type
REMARK                         _______ _______ _______ _____ _____    ______ ____
ROOT
ATOM      1  C   UNL     1      -1.650  10.172  17.349  0.00  0.00    +0.000 C 
ATOM      2  C   UNL     1      -1.701  10.790  18.755  0.00  0.00    +0.000 C 
ATOM      3  C   UNL     1      -0.885   9.942  19.747  0.00  0.00    +0.000 C 
ATOM      4  N   UNL     1       0.558   9.965  19.460  0.00  0.00    +0.000 NA
ATOM      5  C   UNL     1       1.090  11.342  19.419  0.00  0.00    +0.000 C 
ATOM      6  C   UNL     1       0.319  12.282  18.471  0.00  0.00    +0.000 C 
ATOM      7  C   UNL     1       0.890  13.701  18.535  0.00  0.00    +0.000 C 
ATOM      8  C   UNL     1      -1.195  12.249  18.760  0.00  0.00    +0.000 C 
ENDROOT
BRANCH   8   9
ATOM      9  N   UNL     1      -1.491  12.904  20.040  0.00  0.00    +0.000 N 
ATOM     10  C   UNL     1      -2.764  13.145  20.488  0.00  0.00    +0.000 C 
ATOM     11  O   UNL     1      -3.761  12.860  19.838  0.00  0.00    +0.000 OA
ATOM     12  N   UNL     1      -2.807  13.702  21.764  0.00  0.00    +0.000 N 
ATOM     13  C   UNL     1      -4.108  13.855  22.410  0.00  0.00    +0.000 C 
ATOM     14  C   UNL     1      -4.003  13.527  23.902  0.00  0.00    +0.000 C 
ATOM     15  C   UNL     1      -2.899  14.330  24.608  0.00  0.00    +0.000 C 
ATOM     16  C   UNL     1      -1.573  14.178  23.841  0.00  0.00    +0.000 C 
ATOM     17  C   UNL     1      -1.726  14.497  22.356  0.00  0.00    +0.000 C 
ATOM     18  H   UNL     1      -0.845  12.707  20.785  0.00  0.00    +0.000 HD
BRANCH  15  19
ATOM     19  C   UNL     1      -3.306  15.797  24.793  0.00  0.00    +0.000 C 
BRANCH  19  20
ATOM     20  O   UNL     1      -4.708  15.904  25.003  0.00  0.00    +0.000 OA
ATOM     21  H   UNL     1      -4.933  16.850  24.998  0.00  0.00    +0.000 HD
ENDBRANCH  19  20
ENDBRANCH  15  19
ENDBRANCH   8   9
BRANCH   4  22
ATOM     22  C   UNL     1       1.312   9.183  20.463  0.00  0.00    +0.000 C 
BRANCH  22  23
ATOM     23  C   UNL     1       1.788   7.823  19.992  0.00  0.00    +0.000 A 
ATOM     24  C   UNL     1       1.628   6.684  20.792  0.00  0.00    +0.000 A 
ATOM     25  C   UNL     1       2.017   5.427  20.323  0.00  0.00    +0.000 A 
ATOM     26  C   UNL     1       2.564   5.293  19.049  0.00  0.00    +0.000 A 
ATOM     27  C   UNL     1       2.743   6.420  18.249  0.00  0.00    +0.000 A 
ATOM     28  C   UNL     1       2.363   7.677  18.719  0.00  0.00    +0.000 A 
ENDBRANCH  22  23
ENDBRANCH   4  22
TORSDOF 5
ENDMDL
