MODEL 1
REMARK VINA RESULT:      -8.4      0.000      0.000
REMARK  Name = 
REMARK  3 active torsions:
REMARK  status: ('A' for Active; 'I' for Inactive)
REMARK    1  A    between atoms: C_1  and  N_2
REMARK    2  A    between atoms: N_5  and  C_6
REMARK    3  A    between atoms: C_25  and  N_26
REMARK                            x       y       z     vdW  Elec       q    Type
REMARK                         _______ _______ _______ _____ _____    ______ ____
ROOT
ATOM      1  C   UNL     1       3.234   6.823  18.266  0.00  0.00    +0.000 A 
ATOM      2  C   UNL     1       2.909   6.363  19.566  0.00  0.00    +0.000 A 
ATOM      3  C   UNL     1       2.059   7.089  20.437  0.00  0.00    +0.000 A 
ATOM      4  C   UNL     1       1.500   8.280  19.982  0.00  0.00    +0.000 A 
ATOM      5  C   UNL     1       1.769   8.757  18.694  0.00  0.00    +0.000 A 
ATOM      6  C   UNL     1       2.638   8.050  17.849  0.00  0.00    +0.000 A 
ATOM      7  N   UNL     1       0.974   9.949  18.487  0.00  0.00    +0.000 N 
ATOM      8  C   UNL     1       0.256  10.285  19.676  0.00  0.00    +0.000 C 
ATOM      9  C   UNL     1      -0.599  11.321  20.113  0.00  0.00    +0.000 C 
ATOM     10  C   UNL     1      -0.724  11.202  21.563  0.00  0.00    +0.000 C 
ATOM     11  O   UNL     1      -0.893  10.193  22.221  0.00  0.00    +0.000 OA
ATOM     12  N   UNL     1      -0.825  12.447  22.043  0.00  0.00    +0.000 NA
ATOM     13  C   UNL     1      -2.065  12.691  21.779  0.00  0.00    +0.000 A 
ATOM     14  C   UNL     1      -2.926  12.255  22.941  0.00  0.00    +0.000 A 
ATOM     15  C   UNL     1      -3.172  13.285  23.745  0.00  0.00    +0.000 A 
ATOM     16  C   UNL     1      -3.601  14.408  22.977  0.00  0.00    +0.000 A 
ATOM     17  C   UNL     1      -3.340  14.525  21.620  0.00  0.00    +0.000 A 
ATOM     18  F   UNL     1      -4.101  15.522  21.088  0.00  0.00    +0.000 F 
ATOM     19  C   UNL     1      -2.326  13.627  20.579  0.00  0.00    +0.000 A 
ATOM     20  C   UNL     1      -1.399  12.753  19.679  0.00  0.00    +0.000 C 
ATOM     21  N   UNL     1       0.612   9.194  20.563  0.00  0.00    +0.000 N 
ATOM     22  H   UNL     1       1.096  10.489  17.653  0.00  0.00    +0.000 HD
ATOM     23  H   UNL     1       0.249   9.141  21.509  0.00  0.00    +0.000 HD
ENDROOT
BRANCH   1  28
ATOM     24  C   UNL     1       6.012   3.909  14.312  0.00  0.00    +0.000 C 
ATOM     25  N   UNL     1       5.769   4.600  15.577  0.00  0.00    +0.000 NA
ATOM     26  C   UNL     1       4.650   3.974  16.321  0.00  0.00    +0.000 C 
ATOM     27  C   UNL     1       4.389   4.667  17.691  0.00  0.00    +0.000 C 
ATOM     28  N   UNL     1       4.140   6.105  17.489  0.00  0.00    +0.000 N 
ATOM     29  C   UNL     1       5.187   6.780  16.682  0.00  0.00    +0.000 C 
ATOM     30  C   UNL     1       5.413   6.021  15.347  0.00  0.00    +0.000 C 
ENDBRANCH   1  28
BRANCH  20  31
ATOM     31  N   UNL     1      -0.936  12.899  18.326  0.00  0.00    +0.000 N 
ATOM     32  H   UNL     1      -1.315  12.676  17.409  0.00  0.00    +0.000 HD
ATOM     33  H   UNL     1      -0.164  13.569  18.222  0.00  0.00    +0.000 HD
ENDBRANCH  20  31
TORSDOF 2
ENDMDL
MODEL 2
REMARK VINA RESULT:      -8.3      3.668     10.183
REMARK  Name = 
REMARK  3 active torsions:
REMARK  status: ('A' for Active; 'I' for Inactive)
REMARK    1  A    between atoms: C_1  and  N_2
REMARK    2  A    between atoms: N_5  and  C_6
REMARK    3  A    between atoms: C_25  and  N_26
REMARK                            x       y       z     vdW  Elec       q    Type
REMARK                         _______ _______ _______ _____ _____    ______ ____
ROOT
ATOM      1  C   UNL     1      -0.626  11.491  22.213  0.00  0.00    +0.000 A 
ATOM      2  C   UNL     1      -0.834  10.420  23.117  0.00  0.00    +0.000 A 
ATOM      3  C   UNL     1      -0.355   9.111  22.864  0.00  0.00    +0.000 A 
ATOM      4  C   UNL     1       0.374   8.881  21.700  0.00  0.00    +0.000 A 
ATOM      5  C   UNL     1       0.630   9.918  20.794  0.00  0.00    +0.000 A 
ATOM      6  C   UNL     1       0.124  11.204  21.034  0.00  0.00    +0.000 A 
ATOM      7  N   UNL     1       1.483   9.392  19.749  0.00  0.00    +0.000 N 
ATOM      8  C   UNL     1       1.707   7.994  19.941  0.00  0.00    +0.000 C 
ATOM      9  C   UNL     1       2.366   6.946  19.259  0.00  0.00    +0.000 C 
ATOM     10  C   UNL     1       1.928   5.690  19.861  0.00  0.00    +0.000 C 
ATOM     11  O   UNL     1       1.801   5.427  21.042  0.00  0.00    +0.000 OA
ATOM     12  N   UNL     1       1.880   4.788  18.874  0.00  0.00    +0.000 NA
ATOM     13  C   UNL     1       3.135   4.504  18.767  0.00  0.00    +0.000 A 
ATOM     14  C   UNL     1       3.475   3.359  19.692  0.00  0.00    +0.000 A 
ATOM     15  C   UNL     1       3.432   2.205  19.034  0.00  0.00    +0.000 A 
ATOM     16  C   UNL     1       4.156   2.316  17.811  0.00  0.00    +0.000 A 
ATOM     17  C   UNL     1       4.434   3.539  17.219  0.00  0.00    +0.000 A 
ATOM     18  F   UNL     1       5.373   3.378  16.244  0.00  0.00    +0.000 F 
ATOM     19  C   UNL     1       3.862   5.114  17.550  0.00  0.00    +0.000 A 
ATOM     20  C   UNL     1       3.317   6.529  17.918  0.00  0.00    +0.000 C 
ATOM     21  N   UNL     1       1.005   7.742  21.184  0.00  0.00    +0.000 N 
ATOM     22  H   UNL     1       1.705   9.961  18.956  0.00  0.00    +0.000 HD
ATOM     23  H   UNL     1       0.981   6.817  21.601  0.00  0.00    +0.000 HD
ENDROOT
BRANCH   1  28
ATOM     24  C   UNL     1      -2.639  16.273  24.432  0.00  0.00    +0.000 C 
ATOM     25  N   UNL     1      -2.284  15.288  23.413  0.00  0.00    +0.000 NA
ATOM     26  C   UNL     1      -2.981  14.001  23.649  0.00  0.00    +0.000 C 
ATOM     27  C   UNL     1      -2.650  12.939  22.559  0.00  0.00    +0.000 C 
ATOM     28  N   UNL     1      -1.193  12.736  22.479  0.00  0.00    +0.000 N 
ATOM     29  C   UNL     1      -0.426  13.996  22.320  0.00  0.00    +0.000 C 
ATOM     30  C   UNL     1      -0.827  15.015  23.422  0.00  0.00    +0.000 C 
ENDBRANCH   1  28
BRANCH  20  31
ATOM     31  N   UNL     1       3.408   7.807  17.267  0.00  0.00    +0.000 N 
ATOM     32  H   UNL     1       4.131   8.300  16.748  0.00  0.00    +0.000 HD
ATOM     33  H   UNL     1       2.495   8.240  17.075  0.00  0.00    +0.000 HD
ENDBRANCH  20  31
TORSDOF 2
ENDMDL
MODEL 3
REMARK VINA RESULT:      -8.3      3.669     10.128
REMARK  Name = 
REMARK  3 active torsions:
REMARK  status: ('A' for Active; 'I' for Inactive)
REMARK    1  A    between atoms: C_1  and  N_2
REMARK    2  A    between atoms: N_5  and  C_6
REMARK    3  A    between atoms: C_25  and  N_26
REMARK                            x       y       z     vdW  Elec       q    Type
REMARK                         _______ _______ _______ _____ _____    ______ ____
ROOT
ATOM      1  C   UNL     1      -0.594  11.544  22.245  0.00  0.00    +0.000 A 
ATOM      2  C   UNL     1      -0.834  10.473  23.141  0.00  0.00    +0.000 A 
ATOM      3  C   UNL     1      -0.377   9.156  22.888  0.00  0.00    +0.000 A 
ATOM      4  C   UNL     1       0.361   8.917  21.731  0.00  0.00    +0.000 A 
ATOM      5  C   UNL     1       0.647   9.952  20.832  0.00  0.00    +0.000 A 
ATOM      6  C   UNL     1       0.163  11.247  21.073  0.00  0.00    +0.000 A 
ATOM      7  N   UNL     1       1.501   9.414  19.795  0.00  0.00    +0.000 N 
ATOM      8  C   UNL     1       1.696   8.011  19.983  0.00  0.00    +0.000 C 
ATOM      9  C   UNL     1       2.342   6.954  19.304  0.00  0.00    +0.000 C 
ATOM     10  C   UNL     1       1.873   5.704  19.895  0.00  0.00    +0.000 C 
ATOM     11  O   UNL     1       1.728   5.438  21.073  0.00  0.00    +0.000 OA
ATOM     12  N   UNL     1       1.818   4.807  18.903  0.00  0.00    +0.000 NA
ATOM     13  C   UNL     1       3.069   4.499  18.809  0.00  0.00    +0.000 A 
ATOM     14  C   UNL     1       3.376   3.344  19.734  0.00  0.00    +0.000 A 
ATOM     15  C   UNL     1       3.318   2.193  19.070  0.00  0.00    +0.000 A 
ATOM     16  C   UNL     1       4.058   2.296  17.856  0.00  0.00    +0.000 A 
ATOM     17  C   UNL     1       4.366   3.515  17.272  0.00  0.00    +0.000 A 
ATOM     18  F   UNL     1       5.313   3.341  16.307  0.00  0.00    +0.000 F 
ATOM     19  C   UNL     1       3.822   5.100  17.603  0.00  0.00    +0.000 A 
ATOM     20  C   UNL     1       3.300   6.523  17.972  0.00  0.00    +0.000 C 
ATOM     21  N   UNL     1       0.975   7.768  21.217  0.00  0.00    +0.000 N 
ATOM     22  H   UNL     1       1.743   9.982  19.007  0.00  0.00    +0.000 HD
ATOM     23  H   UNL     1       0.928   6.842  21.630  0.00  0.00    +0.000 HD
ENDROOT
BRANCH   1  28
ATOM     24  C   UNL     1      -3.239  16.528  22.200  0.00  0.00    +0.000 C 
ATOM     25  N   UNL     1      -2.448  15.410  22.710  0.00  0.00    +0.000 NA
ATOM     26  C   UNL     1      -1.229  15.201  21.892  0.00  0.00    +0.000 C 
ATOM     27  C   UNL     1      -0.347  14.038  22.431  0.00  0.00    +0.000 C 
ATOM     28  N   UNL     1      -1.140  12.798  22.510  0.00  0.00    +0.000 N 
ATOM     29  C   UNL     1      -2.415  12.957  23.251  0.00  0.00    +0.000 C 
ATOM     30  C   UNL     1      -3.228  14.149  22.679  0.00  0.00    +0.000 C 
ENDBRANCH   1  28
BRANCH  20  31
ATOM     31  N   UNL     1       3.423   7.803  17.327  0.00  0.00    +0.000 N 
ATOM     32  H   UNL     1       3.713   8.731  17.623  0.00  0.00    +0.000 HD
ATOM     33  H   UNL     1       3.444   7.749  16.301  0.00  0.00    +0.000 HD
ENDBRANCH  20  31
TORSDOF 2
ENDMDL
MODEL 4
REMARK VINA RESULT:      -8.2      0.852      1.245
REMARK  Name = 
REMARK  3 active torsions:
REMARK  status: ('A' for Active; 'I' for Inactive)
REMARK    1  A    between atoms: C_1  and  N_2
REMARK    2  A    between atoms: N_5  and  C_6
REMARK    3  A    between atoms: C_25  and  N_26
REMARK                            x       y       z     vdW  Elec       q    Type
REMARK                         _______ _______ _______ _____ _____    ______ ____
ROOT
ATOM      1  C   UNL     1       2.780   7.128  18.584  0.00  0.00    +0.000 A 
ATOM      2  C   UNL     1       2.496   6.649  19.886  0.00  0.00    +0.000 A 
ATOM      3  C   UNL     1       1.682   7.368  20.797  0.00  0.00    +0.000 A 
ATOM      4  C   UNL     1       1.118   8.571  20.380  0.00  0.00    +0.000 A 
ATOM      5  C   UNL     1       1.349   9.067  19.092  0.00  0.00    +0.000 A 
ATOM      6  C   UNL     1       2.183   8.367  18.206  0.00  0.00    +0.000 A 
ATOM      7  N   UNL     1       0.559  10.269  18.931  0.00  0.00    +0.000 N 
ATOM      8  C   UNL     1      -0.116  10.591  20.149  0.00  0.00    +0.000 C 
ATOM      9  C   UNL     1      -0.947  11.628  20.631  0.00  0.00    +0.000 C 
ATOM     10  C   UNL     1      -1.025  11.485  22.083  0.00  0.00    +0.000 C 
ATOM     11  O   UNL     1      -1.181  10.467  22.730  0.00  0.00    +0.000 OA
ATOM     12  N   UNL     1      -1.098  12.722  22.587  0.00  0.00    +0.000 NA
ATOM     13  C   UNL     1      -2.344  12.982  22.368  0.00  0.00    +0.000 A 
ATOM     14  C   UNL     1      -3.169  12.534  23.551  0.00  0.00    +0.000 A 
ATOM     15  C   UNL     1      -3.379  13.553  24.380  0.00  0.00    +0.000 A 
ATOM     16  C   UNL     1      -3.822  14.691  23.646  0.00  0.00    +0.000 A 
ATOM     17  C   UNL     1      -3.606  14.830  22.283  0.00  0.00    +0.000 A 
ATOM     18  F   UNL     1      -4.375  15.842  21.792  0.00  0.00    +0.000 F 
ATOM     19  C   UNL     1      -2.636  13.940  21.194  0.00  0.00    +0.000 A 
ATOM     20  C   UNL     1      -1.747  13.073  20.249  0.00  0.00    +0.000 C 
ATOM     21  N   UNL     1       0.259   9.483  21.006  0.00  0.00    +0.000 N 
ATOM     22  H   UNL     1       0.657  10.822  18.103  0.00  0.00    +0.000 HD
ATOM     23  H   UNL     1      -0.073   9.417  21.962  0.00  0.00    +0.000 HD
ENDROOT
BRANCH   1  28
ATOM     24  C   UNL     1       7.032   4.254  16.236  0.00  0.00    +0.000 C 
ATOM     25  N   UNL     1       5.727   4.900  16.357  0.00  0.00    +0.000 NA
ATOM     26  C   UNL     1       5.872   6.346  16.650  0.00  0.00    +0.000 C 
ATOM     27  C   UNL     1       4.498   7.071  16.750  0.00  0.00    +0.000 C 
ATOM     28  N   UNL     1       3.654   6.415  17.765  0.00  0.00    +0.000 N 
ATOM     29  C   UNL     1       3.530   4.949  17.574  0.00  0.00    +0.000 C 
ATOM     30  C   UNL     1       4.934   4.298  17.456  0.00  0.00    +0.000 C 
ENDBRANCH   1  28
BRANCH  20  31
ATOM     31  N   UNL     1      -1.328  13.238  18.884  0.00  0.00    +0.000 N 
ATOM     32  H   UNL     1      -0.763  12.696  18.235  0.00  0.00    +0.000 HD
ATOM     33  H   UNL     1      -1.886  13.925  18.359  0.00  0.00    +0.000 HD
ENDBRANCH  20  31
TORSDOF 2
ENDMDL
MODEL 5
REMARK VINA RESULT:      -7.8      1.888      2.934
REMARK  Name = 
REMARK  3 active torsions:
REMARK  status: ('A' for Active; 'I' for Inactive)
REMARK    1  A    between atoms: C_1  and  N_2
REMARK    2  A    between atoms: N_5  and  C_6
REMARK    3  A    between atoms: C_25  and  N_26
REMARK                            x       y       z     vdW  Elec       q    Type
REMARK                         _______ _______ _______ _____ _____    ______ ____
ROOT
ATOM      1  C   UNL     1       2.598   6.926  18.898  0.00  0.00    +0.000 A 
ATOM      2  C   UNL     1       2.773   7.858  17.846  0.00  0.00    +0.000 A 
ATOM      3  C   UNL     1       2.187   9.148  17.872  0.00  0.00    +0.000 A 
ATOM      4  C   UNL     1       1.441   9.519  18.987  0.00  0.00    +0.000 A 
ATOM      5  C   UNL     1       1.268   8.640  20.063  0.00  0.00    +0.000 A 
ATOM      6  C   UNL     1       1.823   7.352  20.016  0.00  0.00    +0.000 A 
ATOM      7  N   UNL     1       0.537   9.343  21.096  0.00  0.00    +0.000 N 
ATOM      8  C   UNL     1       0.168  10.649  20.649  0.00  0.00    +0.000 C 
ATOM      9  C   UNL     1      -0.577  11.743  21.145  0.00  0.00    +0.000 C 
ATOM     10  C   UNL     1      -0.818  12.650  20.026  0.00  0.00    +0.000 C 
ATOM     11  O   UNL     1      -0.033  13.011  19.170  0.00  0.00    +0.000 OA
ATOM     12  N   UNL     1      -2.028  13.187  20.222  0.00  0.00    +0.000 NA
ATOM     13  C   UNL     1      -1.737  14.078  21.111  0.00  0.00    +0.000 A 
ATOM     14  C   UNL     1      -1.357  15.370  20.427  0.00  0.00    +0.000 A 
ATOM     15  C   UNL     1      -2.410  16.179  20.350  0.00  0.00    +0.000 A 
ATOM     16  C   UNL     1      -3.057  16.256  21.618  0.00  0.00    +0.000 A 
ATOM     17  C   UNL     1      -2.887  15.291  22.600  0.00  0.00    +0.000 A 
ATOM     18  F   UNL     1      -3.367  15.753  23.790  0.00  0.00    +0.000 F 
ATOM     19  C   UNL     1      -2.158  13.747  22.558  0.00  0.00    +0.000 A 
ATOM     20  C   UNL     1      -1.460  12.356  22.457  0.00  0.00    +0.000 C 
ATOM     21  N   UNL     1       0.779  10.703  19.335  0.00  0.00    +0.000 N 
ATOM     22  H   UNL     1       0.236   8.851  21.915  0.00  0.00    +0.000 HD
ATOM     23  H   UNL     1       0.699  11.526  18.747  0.00  0.00    +0.000 HD
ENDROOT
BRANCH   1  28
ATOM     24  C   UNL     1       3.609   1.411  18.253  0.00  0.00    +0.000 C 
ATOM     25  N   UNL     1       3.883   2.832  18.454  0.00  0.00    +0.000 NA
ATOM     26  C   UNL     1       3.226   3.335  19.684  0.00  0.00    +0.000 C 
ATOM     27  C   UNL     1       3.528   4.839  19.945  0.00  0.00    +0.000 C 
ATOM     28  N   UNL     1       3.132   5.644  18.777  0.00  0.00    +0.000 N 
ATOM     29  C   UNL     1       3.695   5.148  17.497  0.00  0.00    +0.000 C 
ATOM     30  C   UNL     1       3.379   3.638  17.316  0.00  0.00    +0.000 C 
ENDBRANCH   1  28
BRANCH  20  31
ATOM     31  N   UNL     1      -1.387  11.235  23.354  0.00  0.00    +0.000 N 
ATOM     32  H   UNL     1      -1.662  11.067  24.319  0.00  0.00    +0.000 HD
ATOM     33  H   UNL     1      -1.238  10.334  22.880  0.00  0.00    +0.000 HD
ENDBRANCH  20  31
TORSDOF 2
ENDMDL
MODEL 6
REMARK VINA RESULT:      -7.7      1.524      2.169
REMARK  Name = 
REMARK  3 active torsions:
REMARK  status: ('A' for Active; 'I' for Inactive)
REMARK    1  A    between atoms: C_1  and  N_2
REMARK    2  A    between atoms: N_5  and  C_6
REMARK    3  A    between atoms: C_25  and  N_26
REMARK                            x       y       z     vdW  Elec       q    Type
REMARK                         _______ _______ _______ _____ _____    ______ ____
ROOT
ATOM      1  C   UNL     1       2.072   7.798  19.134  0.00  0.00    +0.000 A 
ATOM      2  C   UNL     1       1.810   7.399  20.468  0.00  0.00    +0.000 A 
ATOM      3  C   UNL     1       1.157   8.245  21.398  0.00  0.00    +0.000 A 
ATOM      4  C   UNL     1       0.731   9.500  20.972  0.00  0.00    +0.000 A 
ATOM      5  C   UNL     1       0.941   9.924  19.654  0.00  0.00    +0.000 A 
ATOM      6  C   UNL     1       1.618   9.094  18.748  0.00  0.00    +0.000 A 
ATOM      7  N   UNL     1       0.306  11.215  19.497  0.00  0.00    +0.000 N 
ATOM      8  C   UNL     1      -0.242  11.658  20.740  0.00  0.00    +0.000 C 
ATOM      9  C   UNL     1      -0.897  12.810  21.232  0.00  0.00    +0.000 C 
ATOM     10  C   UNL     1      -0.900  12.720  22.690  0.00  0.00    +0.000 C 
ATOM     11  O   UNL     1      -1.147  11.751  23.382  0.00  0.00    +0.000 OA
ATOM     12  N   UNL     1      -0.779  13.970  23.151  0.00  0.00    +0.000 NA
ATOM     13  C   UNL     1      -1.992  14.386  22.998  0.00  0.00    +0.000 A 
ATOM     14  C   UNL     1      -2.791  14.086  24.244  0.00  0.00    +0.000 A 
ATOM     15  C   UNL     1      -2.813  15.147  25.045  0.00  0.00    +0.000 A 
ATOM     16  C   UNL     1      -3.149  16.313  24.297  0.00  0.00    +0.000 A 
ATOM     17  C   UNL     1      -3.004  16.382  22.920  0.00  0.00    +0.000 A 
ATOM     18  F   UNL     1      -3.664  17.473  22.439  0.00  0.00    +0.000 F 
ATOM     19  C   UNL     1      -2.230  15.341  21.808  0.00  0.00    +0.000 A 
ATOM     20  C   UNL     1      -1.524  14.337  20.845  0.00  0.00    +0.000 C 
ATOM     21  N   UNL     1       0.039  10.535  21.613  0.00  0.00    +0.000 N 
ATOM     22  H   UNL     1       0.423  11.726  18.644  0.00  0.00    +0.000 HD
ATOM     23  H   UNL     1      -0.237  10.541  22.589  0.00  0.00    +0.000 HD
ENDROOT
BRANCH   1  28
ATOM     24  C   UNL     1       5.672   4.202  16.693  0.00  0.00    +0.000 C 
ATOM     25  N   UNL     1       4.526   5.098  16.834  0.00  0.00    +0.000 NA
ATOM     26  C   UNL     1       4.960   6.471  17.184  0.00  0.00    +0.000 C 
ATOM     27  C   UNL     1       3.763   7.458  17.306  0.00  0.00    +0.000 C 
ATOM     28  N   UNL     1       2.791   6.952  18.291  0.00  0.00    +0.000 N 
ATOM     29  C   UNL     1       2.371   5.551  18.043  0.00  0.00    +0.000 C 
ATOM     30  C   UNL     1       3.613   4.631  17.905  0.00  0.00    +0.000 C 
ENDBRANCH   1  28
BRANCH  20  31
ATOM     31  N   UNL     1      -1.176  14.405  19.452  0.00  0.00    +0.000 N 
ATOM     32  H   UNL     1      -0.489  14.921  18.908  0.00  0.00    +0.000 HD
ATOM     33  H   UNL     1      -1.525  13.613  18.898  0.00  0.00    +0.000 HD
ENDBRANCH  20  31
TORSDOF 2
ENDMDL
MODEL 7
REMARK VINA RESULT:      -7.7      1.055      1.158
REMARK  Name = 
REMARK  3 active torsions:
REMARK  status: ('A' for Active; 'I' for Inactive)
REMARK    1  A    between atoms: C_1  and  N_2
REMARK    2  A    between atoms: N_5  and  C_6
REMARK    3  A    between atoms: C_25  and  N_26
REMARK                            x       y       z     vdW  Elec       q    Type
REMARK                         _______ _______ _______ _____ _____    ______ ____
ROOT
ATOM      1  C   UNL     1       3.903   6.157  17.786  0.00  0.00    +0.000 A 
ATOM      2  C   UNL     1       3.519   5.622  19.040  0.00  0.00    +0.000 A 
ATOM      3  C   UNL     1       2.687   6.330  19.943  0.00  0.00    +0.000 A 
ATOM      4  C   UNL     1       2.206   7.581  19.565  0.00  0.00    +0.000 A 
ATOM      5  C   UNL     1       2.536   8.134  18.322  0.00  0.00    +0.000 A 
ATOM      6  C   UNL     1       3.388   7.443  17.447  0.00  0.00    +0.000 A 
ATOM      7  N   UNL     1       1.813   9.381  18.186  0.00  0.00    +0.000 N 
ATOM      8  C   UNL     1       1.083   9.670  19.380  0.00  0.00    +0.000 C 
ATOM      9  C   UNL     1       0.275  10.719  19.873  0.00  0.00    +0.000 C 
ATOM     10  C   UNL     1       0.104  10.501  21.307  0.00  0.00    +0.000 C 
ATOM     11  O   UNL     1      -0.138   9.458  21.884  0.00  0.00    +0.000 OA
ATOM     12  N   UNL     1       0.059  11.712  21.875  0.00  0.00    +0.000 NA
ATOM     13  C   UNL     1      -1.159  12.044  21.601  0.00  0.00    +0.000 A 
ATOM     14  C   UNL     1      -2.073  11.574  22.708  0.00  0.00    +0.000 A 
ATOM     15  C   UNL     1      -2.284  12.556  23.581  0.00  0.00    +0.000 A 
ATOM     16  C   UNL     1      -2.629  13.754  22.889  0.00  0.00    +0.000 A 
ATOM     17  C   UNL     1      -2.325  13.955  21.551  0.00  0.00    +0.000 A 
ATOM     18  F   UNL     1      -3.016  15.030  21.076  0.00  0.00    +0.000 F 
ATOM     19  C   UNL     1      -1.335  13.079  20.469  0.00  0.00    +0.000 A 
ATOM     20  C   UNL     1      -0.433  12.221  19.529  0.00  0.00    +0.000 C 
ATOM     21  N   UNL     1       1.355   8.499  20.192  0.00  0.00    +0.000 N 
ATOM     22  H   UNL     1       1.987   9.973  17.397  0.00  0.00    +0.000 HD
ATOM     23  H   UNL     1       0.963   8.398  21.122  0.00  0.00    +0.000 HD
ENDROOT
BRANCH   1  28
ATOM     24  C   UNL     1       7.080   4.006  13.647  0.00  0.00    +0.000 C 
ATOM     25  N   UNL     1       6.539   4.195  14.991  0.00  0.00    +0.000 NA
ATOM     26  C   UNL     1       5.077   3.950  15.018  0.00  0.00    +0.000 C 
ATOM     27  C   UNL     1       4.476   4.109  16.445  0.00  0.00    +0.000 C 
ATOM     28  N   UNL     1       4.790   5.447  16.978  0.00  0.00    +0.000 N 
ATOM     29  C   UNL     1       6.232   5.789  16.909  0.00  0.00    +0.000 C 
ATOM     30  C   UNL     1       6.769   5.580  15.468  0.00  0.00    +0.000 C 
ENDBRANCH   1  28
BRANCH  20  31
ATOM     31  N   UNL     1       0.073  12.439  18.201  0.00  0.00    +0.000 N 
ATOM     32  H   UNL     1       0.318  11.838  17.418  0.00  0.00    +0.000 HD
ATOM     33  H   UNL     1      -0.039  13.405  17.867  0.00  0.00    +0.000 HD
ENDBRANCH  20  31
TORSDOF 2
ENDMDL
MODEL 8
REMARK VINA RESULT:      -7.6      2.439      3.481
REMARK  Name = 
REMARK  3 active torsions:
REMARK  status: ('A' for Active; 'I' for Inactive)
REMARK    1  A    between atoms: C_1  and  N_2
REMARK    2  A    between atoms: N_5  and  C_6
REMARK    3  A    between atoms: C_25  and  N_26
REMARK                            x       y       z     vdW  Elec       q    Type
REMARK                         _______ _______ _______ _____ _____    ______ ____
ROOT
ATOM      1  C   UNL     1       2.379   6.836  19.226  0.00  0.00    +0.000 A 
ATOM      2  C   UNL     1       2.679   7.527  18.025  0.00  0.00    +0.000 A 
ATOM      3  C   UNL     1       2.304   8.876  17.813  0.00  0.00    +0.000 A 
ATOM      4  C   UNL     1       1.645   9.554  18.837  0.00  0.00    +0.000 A 
ATOM      5  C   UNL     1       1.356   8.919  20.051  0.00  0.00    +0.000 A 
ATOM      6  C   UNL     1       1.700   7.573  20.241  0.00  0.00    +0.000 A 
ATOM      7  N   UNL     1       0.763   9.902  20.933  0.00  0.00    +0.000 N 
ATOM      8  C   UNL     1       0.596  11.149  20.256  0.00  0.00    +0.000 C 
ATOM      9  C   UNL     1       0.042  12.417  20.540  0.00  0.00    +0.000 C 
ATOM     10  C   UNL     1      -0.074  13.136  19.274  0.00  0.00    +0.000 C 
ATOM     11  O   UNL     1       0.742  13.210  18.375  0.00  0.00    +0.000 OA
ATOM     12  N   UNL     1      -1.180  13.884  19.358  0.00  0.00    +0.000 NA
ATOM     13  C   UNL     1      -0.737  14.862  20.076  0.00  0.00    +0.000 A 
ATOM     14  C   UNL     1      -0.171  15.935  19.176  0.00  0.00    +0.000 A 
ATOM     15  C   UNL     1      -1.086  16.873  18.944  0.00  0.00    +0.000 A 
ATOM     16  C   UNL     1      -1.689  17.276  20.171  0.00  0.00    +0.000 A 
ATOM     17  C   UNL     1      -1.655  16.488  21.312  0.00  0.00    +0.000 A 
ATOM     18  F   UNL     1      -2.035  17.224  22.394  0.00  0.00    +0.000 F 
ATOM     19  C   UNL     1      -1.179  14.866  21.555  0.00  0.00    +0.000 A 
ATOM     20  C   UNL     1      -0.710  13.386  21.711  0.00  0.00    +0.000 C 
ATOM     21  N   UNL     1       1.184  10.870  18.960  0.00  0.00    +0.000 N 
ATOM     22  H   UNL     1       0.404   9.617  21.823  0.00  0.00    +0.000 HD
ATOM     23  H   UNL     1       1.224  11.577  18.233  0.00  0.00    +0.000 HD
ENDROOT
BRANCH   1  28
ATOM     24  C   UNL     1       3.601   1.376  18.494  0.00  0.00    +0.000 C 
ATOM     25  N   UNL     1       3.371   2.639  19.191  0.00  0.00    +0.000 NA
ATOM     26  C   UNL     1       1.995   3.137  18.956  0.00  0.00    +0.000 C 
ATOM     27  C   UNL     1       1.707   4.465  19.716  0.00  0.00    +0.000 C 
ATOM     28  N   UNL     1       2.702   5.486  19.341  0.00  0.00    +0.000 N 
ATOM     29  C   UNL     1       4.105   5.024  19.479  0.00  0.00    +0.000 C 
ATOM     30  C   UNL     1       4.311   3.685  18.722  0.00  0.00    +0.000 C 
ENDBRANCH   1  28
BRANCH  20  31
ATOM     31  N   UNL     1      -0.799  12.446  22.795  0.00  0.00    +0.000 N 
ATOM     32  H   UNL     1      -1.164  12.475  23.744  0.00  0.00    +0.000 HD
ATOM     33  H   UNL     1      -0.680  11.467  22.505  0.00  0.00    +0.000 HD
ENDBRANCH  20  31
TORSDOF 2
ENDMDL
MODEL 9
REMARK VINA RESULT:      -7.4      2.274      3.493
REMARK  Name = 
REMARK  3 active torsions:
REMARK  status: ('A' for Active; 'I' for Inactive)
REMARK    1  A    between atoms: C_1  and  N_2
REMARK    2  A    between atoms: N_5  and  C_6
REMARK    3  A    between atoms: C_25  and  N_26
REMARK                            x       y       z     vdW  Elec       q    Type
REMARK                         _______ _______ _______ _____ _____    ______ ____
ROOT
ATOM      1  C   UNL     1       2.411   7.049  19.130  0.00  0.00    +0.000 A 
ATOM      2  C   UNL     1       2.651   7.829  17.972  0.00  0.00    +0.000 A 
ATOM      3  C   UNL     1       2.193   9.164  17.848  0.00  0.00    +0.000 A 
ATOM      4  C   UNL     1       1.511   9.736  18.918  0.00  0.00    +0.000 A 
ATOM      5  C   UNL     1       1.278   9.013  20.094  0.00  0.00    +0.000 A 
ATOM      6  C   UNL     1       1.705   7.680  20.197  0.00  0.00    +0.000 A 
ATOM      7  N   UNL     1       0.641   9.902  21.042  0.00  0.00    +0.000 N 
ATOM      8  C   UNL     1       0.390  11.175  20.445  0.00  0.00    +0.000 C 
ATOM      9  C   UNL     1      -0.236  12.388  20.813  0.00  0.00    +0.000 C 
ATOM     10  C   UNL     1      -0.413  13.175  19.595  0.00  0.00    +0.000 C 
ATOM     11  O   UNL     1       0.384  13.353  18.694  0.00  0.00    +0.000 OA
ATOM     12  N   UNL     1      -1.560  13.848  19.737  0.00  0.00    +0.000 NA
ATOM     13  C   UNL     1      -1.166  14.805  20.509  0.00  0.00    +0.000 A 
ATOM     14  C   UNL     1      -0.678  15.963  19.671  0.00  0.00    +0.000 A 
ATOM     15  C   UNL     1      -1.651  16.856  19.508  0.00  0.00    +0.000 A 
ATOM     16  C   UNL     1      -2.258  17.147  20.764  0.00  0.00    +0.000 A 
ATOM     17  C   UNL     1      -2.161  16.294  21.854  0.00  0.00    +0.000 A 
ATOM     18  F   UNL     1      -2.568  16.939  22.984  0.00  0.00    +0.000 F 
ATOM     19  C   UNL     1      -1.585  14.692  21.991  0.00  0.00    +0.000 A 
ATOM     20  C   UNL     1      -1.026  13.237  22.050  0.00  0.00    +0.000 C 
ATOM     21  N   UNL     1       0.973  11.012  19.127  0.00  0.00    +0.000 N 
ATOM     22  H   UNL     1       0.312   9.542  21.917  0.00  0.00    +0.000 HD
ATOM     23  H   UNL     1       0.960  11.764  18.446  0.00  0.00    +0.000 HD
ENDROOT
BRANCH   1  28
ATOM     24  C   UNL     1       4.559   1.962  20.290  0.00  0.00    +0.000 C 
ATOM     25  N   UNL     1       3.824   2.998  19.569  0.00  0.00    +0.000 NA
ATOM     26  C   UNL     1       4.716   4.118  19.186  0.00  0.00    +0.000 C 
ATOM     27  C   UNL     1       3.969   5.224  18.385  0.00  0.00    +0.000 C 
ATOM     28  N   UNL     1       2.816   5.716  19.159  0.00  0.00    +0.000 N 
ATOM     29  C   UNL     1       1.920   4.636  19.640  0.00  0.00    +0.000 C 
ATOM     30  C   UNL     1       2.735   3.558  20.405  0.00  0.00    +0.000 C 
ENDBRANCH   1  28
BRANCH  20  31
ATOM     31  N   UNL     1      -1.042  12.228  23.075  0.00  0.00    +0.000 N 
ATOM     32  H   UNL     1      -0.387  11.520  23.396  0.00  0.00    +0.000 HD
ATOM     33  H   UNL     1      -1.761  12.380  23.794  0.00  0.00    +0.000 HD
ENDBRANCH  20  31
TORSDOF 2
ENDMDL
