MODEL 1
REMARK VINA RESULT:      -8.8      0.000      0.000
REMARK  Name = 
REMARK  8 active torsions:
REMARK  status: ('A' for Active; 'I' for Inactive)
REMARK    1  A    between atoms: C_2  and  C_3
REMARK    2  A    between atoms: C_6  and  C_7
REMARK    3  A    between atoms: C_7  and  C_8
REMARK    4  A    between atoms: C_8  and  N_9
REMARK    5  A    between atoms: C_12  and  N_13
REMARK    6  A    between atoms: N_22  and  C_23
REMARK    7  A    between atoms: C_23  and  C_24
REMARK    8  A    between atoms: C_27  and  C_28
REMARK                            x       y       z     vdW  Elec       q    Type
REMARK                         _______ _______ _______ _____ _____    ______ ____
ROOT
ATOM      1  N   UNL     1       5.385   5.637  18.494  0.00  0.00    +0.000 N 
ATOM      2  C   UNL     1       4.370   4.743  18.671  0.00  0.00    +0.000 A 
ATOM      3  N   UNL     1       4.168   3.597  18.059  0.00  0.00    +0.000 NA
ATOM      4  C   UNL     1       2.909   3.176  18.432  0.00  0.00    +0.000 A 
ATOM      5  C   UNL     1       2.168   2.061  18.001  0.00  0.00    +0.000 A 
ATOM      6  C   UNL     1       0.883   1.847  18.524  0.00  0.00    +0.000 A 
ATOM      7  C   UNL     1       0.329   2.744  19.437  0.00  0.00    +0.000 A 
ATOM      8  C   UNL     1       1.042   3.873  19.862  0.00  0.00    +0.000 A 
ATOM      9  C   UNL     1       2.341   4.054  19.351  0.00  0.00    +0.000 A 
ATOM     10  N   UNL     1       3.318   5.016  19.536  0.00  0.00    +0.000 N 
ATOM     11  H   UNL     1       5.061   6.455  17.979  0.00  0.00    +0.000 HD
ENDROOT
BRANCH   1  15
ATOM     12  N   UNL     1       8.162   7.799  17.684  0.00  0.00    +0.000 NA
ATOM     13  C   UNL     1       7.932   7.097  18.961  0.00  0.00    +0.000 C 
ATOM     14  C   UNL     1       7.880   5.581  18.768  0.00  0.00    +0.000 C 
ATOM     15  C   UNL     1       6.678   5.202  17.908  0.00  0.00    +0.000 C 
ATOM     16  C   UNL     1       6.910   5.896  16.549  0.00  0.00    +0.000 C 
ATOM     17  C   UNL     1       7.131   7.412  16.691  0.00  0.00    +0.000 C 
BRANCH  12  18
ATOM     18  C   UNL     1       8.139   9.277  17.854  0.00  0.00    +0.000 C 
BRANCH  18  19
ATOM     19  C   UNL     1       9.151   9.862  18.863  0.00  0.00    +0.000 C 
BRANCH  19  23
ATOM     20  C   UNL     1      10.816  13.684  17.663  0.00  0.00    +0.000 A 
ATOM     21  C   UNL     1       9.436  13.477  17.635  0.00  0.00    +0.000 A 
ATOM     22  C   UNL     1       8.905  12.234  18.005  0.00  0.00    +0.000 A 
ATOM     23  C   UNL     1       9.745  11.186  18.413  0.00  0.00    +0.000 A 
ATOM     24  C   UNL     1      11.130  11.398  18.415  0.00  0.00    +0.000 A 
ATOM     25  C   UNL     1      11.662  12.641  18.042  0.00  0.00    +0.000 A 
BRANCH  20  27
ATOM     26  N   UNL     1      11.811  15.993  16.989  0.00  0.00    +0.000 NA
ATOM     27  C   UNL     1      11.363  14.960  17.294  0.00  0.00    +0.000 C 
ENDBRANCH  20  27
ENDBRANCH  19  23
ENDBRANCH  18  19
ENDBRANCH  12  18
ENDBRANCH   1  15
BRANCH  10  28
ATOM     28  C   UNL     1       3.178   6.204  20.367  0.00  0.00    +0.000 C 
BRANCH  28  29
ATOM     29  C   UNL     1       2.340   7.346  19.818  0.00  0.00    +0.000 A 
ATOM     30  C   UNL     1       2.384   7.823  18.501  0.00  0.00    +0.000 A 
ATOM     31  C   UNL     1       1.640   8.954  18.125  0.00  0.00    +0.000 A 
ATOM     32  C   UNL     1       0.828   9.614  19.056  0.00  0.00    +0.000 A 
ATOM     33  C   UNL     1       0.733   9.107  20.345  0.00  0.00    +0.000 A 
ATOM     34  F   UNL     1      -0.060   9.693  21.255  0.00  0.00    +0.000 F 
ATOM     35  C   UNL     1       1.476   7.992  20.727  0.00  0.00    +0.000 A 
BRANCH  32  36
ATOM     36  C   UNL     1       0.132  10.811  18.699  0.00  0.00    +0.000 C 
ATOM     37  N   UNL     1      -0.403  11.799  18.407  0.00  0.00    +0.000 NA
ENDBRANCH  32  36
ENDBRANCH  28  29
ENDBRANCH  10  28
TORSDOF 8
ENDMDL
MODEL 2
REMARK VINA RESULT:      -8.4      1.491      1.815
REMARK  Name = 
REMARK  8 active torsions:
REMARK  status: ('A' for Active; 'I' for Inactive)
REMARK    1  A    between atoms: C_2  and  C_3
REMARK    2  A    between atoms: C_6  and  C_7
REMARK    3  A    between atoms: C_7  and  C_8
REMARK    4  A    between atoms: C_8  and  N_9
REMARK    5  A    between atoms: C_12  and  N_13
REMARK    6  A    between atoms: N_22  and  C_23
REMARK    7  A    between atoms: C_23  and  C_24
REMARK    8  A    between atoms: C_27  and  C_28
REMARK                            x       y       z     vdW  Elec       q    Type
REMARK                         _______ _______ _______ _____ _____    ______ ____
ROOT
ATOM      1  N   UNL     1       4.962   4.764  17.060  0.00  0.00    +0.000 N 
ATOM      2  C   UNL     1       4.304   4.350  18.181  0.00  0.00    +0.000 A 
ATOM      3  N   UNL     1       4.576   3.329  18.963  0.00  0.00    +0.000 NA
ATOM      4  C   UNL     1       3.506   3.208  19.825  0.00  0.00    +0.000 A 
ATOM      5  C   UNL     1       3.244   2.232  20.804  0.00  0.00    +0.000 A 
ATOM      6  C   UNL     1       2.064   2.315  21.559  0.00  0.00    +0.000 A 
ATOM      7  C   UNL     1       1.140   3.333  21.323  0.00  0.00    +0.000 A 
ATOM      8  C   UNL     1       1.372   4.302  20.337  0.00  0.00    +0.000 A 
ATOM      9  C   UNL     1       2.575   4.221  19.613  0.00  0.00    +0.000 A 
ATOM     10  N   UNL     1       3.136   4.976  18.598  0.00  0.00    +0.000 N 
ATOM     11  H   UNL     1       4.434   4.525  16.222  0.00  0.00    +0.000 HD
ENDROOT
BRANCH   1  15
ATOM     12  N   UNL     1       7.799   6.981  17.337  0.00  0.00    +0.000 NA
ATOM     13  C   UNL     1       7.223   6.145  18.407  0.00  0.00    +0.000 C 
ATOM     14  C   UNL     1       7.268   4.660  18.048  0.00  0.00    +0.000 C 
ATOM     15  C   UNL     1       6.381   4.386  16.837  0.00  0.00    +0.000 C 
ATOM     16  C   UNL     1       6.984   5.223  15.689  0.00  0.00    +0.000 C 
ATOM     17  C   UNL     1       7.115   6.713  16.050  0.00  0.00    +0.000 C 
BRANCH  12  18
ATOM     18  C   UNL     1       7.690   8.432  17.650  0.00  0.00    +0.000 C 
BRANCH  18  19
ATOM     19  C   UNL     1       8.682   8.979  18.699  0.00  0.00    +0.000 C 
BRANCH  19  23
ATOM     20  C   UNL     1       9.581  13.189  18.158  0.00  0.00    +0.000 A 
ATOM     21  C   UNL     1       8.503  12.606  17.489  0.00  0.00    +0.000 A 
ATOM     22  C   UNL     1       8.228  11.242  17.652  0.00  0.00    +0.000 A 
ATOM     23  C   UNL     1       9.024  10.444  18.490  0.00  0.00    +0.000 A 
ATOM     24  C   UNL     1      10.118  11.034  19.138  0.00  0.00    +0.000 A 
ATOM     25  C   UNL     1      10.394  12.399  18.973  0.00  0.00    +0.000 A 
BRANCH  20  27
ATOM     26  N   UNL     1      10.076  15.728  17.873  0.00  0.00    +0.000 NA
ATOM     27  C   UNL     1       9.858  14.589  18.001  0.00  0.00    +0.000 C 
ENDBRANCH  20  27
ENDBRANCH  19  23
ENDBRANCH  18  19
ENDBRANCH  12  18
ENDBRANCH   1  15
BRANCH  10  28
ATOM     28  C   UNL     1       2.508   6.127  17.964  0.00  0.00    +0.000 C 
BRANCH  28  29
ATOM     29  C   UNL     1       2.121   7.293  18.859  0.00  0.00    +0.000 A 
ATOM     30  C   UNL     1       2.005   7.238  20.255  0.00  0.00    +0.000 A 
ATOM     31  C   UNL     1       1.538   8.349  20.977  0.00  0.00    +0.000 A 
ATOM     32  C   UNL     1       1.199   9.537  20.316  0.00  0.00    +0.000 A 
ATOM     33  C   UNL     1       1.372   9.615  18.941  0.00  0.00    +0.000 A 
ATOM     34  F   UNL     1       1.089  10.746  18.279  0.00  0.00    +0.000 F 
ATOM     35  C   UNL     1       1.825   8.513  18.218  0.00  0.00    +0.000 A 
BRANCH  32  36
ATOM     36  C   UNL     1       0.649  10.642  21.037  0.00  0.00    +0.000 C 
ATOM     37  N   UNL     1       0.230  11.559  21.614  0.00  0.00    +0.000 NA
ENDBRANCH  32  36
ENDBRANCH  28  29
ENDBRANCH  10  28
TORSDOF 8
ENDMDL
MODEL 3
REMARK VINA RESULT:      -8.3      1.472      1.677
REMARK  Name = 
REMARK  8 active torsions:
REMARK  status: ('A' for Active; 'I' for Inactive)
REMARK    1  A    between atoms: C_2  and  C_3
REMARK    2  A    between atoms: C_6  and  C_7
REMARK    3  A    between atoms: C_7  and  C_8
REMARK    4  A    between atoms: C_8  and  N_9
REMARK    5  A    between atoms: C_12  and  N_13
REMARK    6  A    between atoms: N_22  and  C_23
REMARK    7  A    between atoms: C_23  and  C_24
REMARK    8  A    between atoms: C_27  and  C_28
REMARK                            x       y       z     vdW  Elec       q    Type
REMARK                         _______ _______ _______ _____ _____    ______ ____
ROOT
ATOM      1  N   UNL     1       5.217   5.898  18.082  0.00  0.00    +0.000 N 
ATOM      2  C   UNL     1       4.259   4.972  18.375  0.00  0.00    +0.000 A 
ATOM      3  N   UNL     1       4.039   3.809  17.802  0.00  0.00    +0.000 NA
ATOM      4  C   UNL     1       2.841   3.351  18.308  0.00  0.00    +0.000 A 
ATOM      5  C   UNL     1       2.101   2.203  17.970  0.00  0.00    +0.000 A 
ATOM      6  C   UNL     1       0.884   1.953  18.624  0.00  0.00    +0.000 A 
ATOM      7  C   UNL     1       0.393   2.846  19.576  0.00  0.00    +0.000 A 
ATOM      8  C   UNL     1       1.104   4.007  19.911  0.00  0.00    +0.000 A 
ATOM      9  C   UNL     1       2.336   4.225  19.267  0.00  0.00    +0.000 A 
ATOM     10  N   UNL     1       3.291   5.223  19.338  0.00  0.00    +0.000 N 
ATOM     11  H   UNL     1       4.813   6.694  17.591  0.00  0.00    +0.000 HD
ENDROOT
BRANCH   1  15
ATOM     12  N   UNL     1       8.392   7.609  18.271  0.00  0.00    +0.000 NA
ATOM     13  C   UNL     1       7.932   6.504  19.132  0.00  0.00    +0.000 C 
ATOM     14  C   UNL     1       7.630   5.244  18.319  0.00  0.00    +0.000 C 
ATOM     15  C   UNL     1       6.460   5.499  17.373  0.00  0.00    +0.000 C 
ATOM     16  C   UNL     1       6.928   6.631  16.434  0.00  0.00    +0.000 C 
ATOM     17  C   UNL     1       7.400   7.877  17.203  0.00  0.00    +0.000 C 
BRANCH  12  18
ATOM     18  C   UNL     1       8.615   8.859  19.048  0.00  0.00    +0.000 C 
BRANCH  18  19
ATOM     19  C   UNL     1       9.051  10.097  18.235  0.00  0.00    +0.000 C 
BRANCH  19  23
ATOM     20  C   UNL     1       9.862  13.578  20.695  0.00  0.00    +0.000 A 
ATOM     21  C   UNL     1      10.048  12.293  21.208  0.00  0.00    +0.000 A 
ATOM     22  C   UNL     1       9.767  11.172  20.416  0.00  0.00    +0.000 A 
ATOM     23  C   UNL     1       9.301  11.321  19.100  0.00  0.00    +0.000 A 
ATOM     24  C   UNL     1       9.094  12.615  18.603  0.00  0.00    +0.000 A 
ATOM     25  C   UNL     1       9.375  13.737  19.396  0.00  0.00    +0.000 A 
BRANCH  20  27
ATOM     26  N   UNL     1      10.399  15.667  22.150  0.00  0.00    +0.000 NA
ATOM     27  C   UNL     1      10.160  14.729  21.501  0.00  0.00    +0.000 C 
ENDBRANCH  20  27
ENDBRANCH  19  23
ENDBRANCH  18  19
ENDBRANCH  12  18
ENDBRANCH   1  15
BRANCH  10  28
ATOM     28  C   UNL     1       3.193   6.420  20.163  0.00  0.00    +0.000 C 
BRANCH  28  29
ATOM     29  C   UNL     1       2.294   7.539  19.665  0.00  0.00    +0.000 A 
ATOM     30  C   UNL     1       2.239   8.007  18.345  0.00  0.00    +0.000 A 
ATOM     31  C   UNL     1       1.446   9.119  18.014  0.00  0.00    +0.000 A 
ATOM     32  C   UNL     1       0.683   9.767  18.994  0.00  0.00    +0.000 A 
ATOM     33  C   UNL     1       0.687   9.268  20.289  0.00  0.00    +0.000 A 
ATOM     34  F   UNL     1      -0.055   9.844  21.247  0.00  0.00    +0.000 F 
ATOM     35  C   UNL     1       1.479   8.173  20.626  0.00  0.00    +0.000 A 
BRANCH  32  36
ATOM     36  C   UNL     1      -0.062  10.946  18.678  0.00  0.00    +0.000 C 
ATOM     37  N   UNL     1      -0.649  11.921  18.445  0.00  0.00    +0.000 NA
ENDBRANCH  32  36
ENDBRANCH  28  29
ENDBRANCH  10  28
TORSDOF 8
ENDMDL
MODEL 4
REMARK VINA RESULT:      -8.1      0.993      1.276
REMARK  Name = 
REMARK  8 active torsions:
REMARK  status: ('A' for Active; 'I' for Inactive)
REMARK    1  A    between atoms: C_2  and  C_3
REMARK    2  A    between atoms: C_6  and  C_7
REMARK    3  A    between atoms: C_7  and  C_8
REMARK    4  A    between atoms: C_8  and  N_9
REMARK    5  A    between atoms: C_12  and  N_13
REMARK    6  A    between atoms: N_22  and  C_23
REMARK    7  A    between atoms: C_23  and  C_24
REMARK    8  A    between atoms: C_27  and  C_28
REMARK                            x       y       z     vdW  Elec       q    Type
REMARK                         _______ _______ _______ _____ _____    ______ ____
ROOT
ATOM      1  N   UNL     1       5.304   5.608  18.503  0.00  0.00    +0.000 N 
ATOM      2  C   UNL     1       4.264   4.748  18.702  0.00  0.00    +0.000 A 
ATOM      3  N   UNL     1       3.977   3.643  18.050  0.00  0.00    +0.000 NA
ATOM      4  C   UNL     1       2.726   3.255  18.481  0.00  0.00    +0.000 A 
ATOM      5  C   UNL     1       1.912   2.193  18.047  0.00  0.00    +0.000 A 
ATOM      6  C   UNL     1       0.653   2.004  18.638  0.00  0.00    +0.000 A 
ATOM      7  C   UNL     1       0.194   2.877  19.625  0.00  0.00    +0.000 A 
ATOM      8  C   UNL     1       0.981   3.955  20.056  0.00  0.00    +0.000 A 
ATOM      9  C   UNL     1       2.252   4.108  19.474  0.00  0.00    +0.000 A 
ATOM     10  N   UNL     1       3.279   5.020  19.642  0.00  0.00    +0.000 N 
ATOM     11  H   UNL     1       4.985   6.462  18.047  0.00  0.00    +0.000 HD
ENDROOT
BRANCH   1  15
ATOM     12  N   UNL     1       8.132   7.687  17.654  0.00  0.00    +0.000 NA
ATOM     13  C   UNL     1       7.941   6.921  18.899  0.00  0.00    +0.000 C 
ATOM     14  C   UNL     1       7.805   5.423  18.625  0.00  0.00    +0.000 C 
ATOM     15  C   UNL     1       6.540   5.151  17.817  0.00  0.00    +0.000 C 
ATOM     16  C   UNL     1       6.728   5.913  16.489  0.00  0.00    +0.000 C 
ATOM     17  C   UNL     1       7.030   7.407  16.703  0.00  0.00    +0.000 C 
BRANCH  12  18
ATOM     18  C   UNL     1       8.191   9.152  17.908  0.00  0.00    +0.000 C 
BRANCH  18  19
ATOM     19  C   UNL     1       8.989   9.595  19.154  0.00  0.00    +0.000 C 
BRANCH  19  23
ATOM     20  C   UNL     1      10.815  13.504  18.696  0.00  0.00    +0.000 A 
ATOM     21  C   UNL     1       9.884  13.047  17.762  0.00  0.00    +0.000 A 
ATOM     22  C   UNL     1       9.311  11.777  17.904  0.00  0.00    +0.000 A 
ATOM     23  C   UNL     1       9.658  10.948  18.984  0.00  0.00    +0.000 A 
ATOM     24  C   UNL     1      10.612  11.407  19.902  0.00  0.00    +0.000 A 
ATOM     25  C   UNL     1      11.187  12.678  19.759  0.00  0.00    +0.000 A 
BRANCH  20  27
ATOM     26  N   UNL     1      11.861  15.874  18.449  0.00  0.00    +0.000 NA
ATOM     27  C   UNL     1      11.396  14.810  18.559  0.00  0.00    +0.000 C 
ENDBRANCH  20  27
ENDBRANCH  19  23
ENDBRANCH  18  19
ENDBRANCH  12  18
ENDBRANCH   1  15
BRANCH  10  28
ATOM     28  C   UNL     1       3.242   6.170  20.535  0.00  0.00    +0.000 C 
BRANCH  28  29
ATOM     29  C   UNL     1       2.337   7.327  20.145  0.00  0.00    +0.000 A 
ATOM     30  C   UNL     1       1.379   7.922  20.978  0.00  0.00    +0.000 A 
ATOM     31  C   UNL     1       0.522   8.919  20.482  0.00  0.00    +0.000 A 
ATOM     32  C   UNL     1       0.622   9.348  19.152  0.00  0.00    +0.000 A 
ATOM     33  C   UNL     1       1.611   8.805  18.343  0.00  0.00    +0.000 A 
ATOM     34  F   UNL     1       1.757   9.214  17.073  0.00  0.00    +0.000 F 
ATOM     35  C   UNL     1       2.457   7.809  18.825  0.00  0.00    +0.000 A 
BRANCH  32  36
ATOM     36  C   UNL     1      -0.299  10.304  18.622  0.00  0.00    +0.000 C 
ATOM     37  N   UNL     1      -1.040  11.102  18.217  0.00  0.00    +0.000 NA
ENDBRANCH  32  36
ENDBRANCH  28  29
ENDBRANCH  10  28
TORSDOF 8
ENDMDL
MODEL 5
REMARK VINA RESULT:      -7.9      1.810      2.179
REMARK  Name = 
REMARK  8 active torsions:
REMARK  status: ('A' for Active; 'I' for Inactive)
REMARK    1  A    between atoms: C_2  and  C_3
REMARK    2  A    between atoms: C_6  and  C_7
REMARK    3  A    between atoms: C_7  and  C_8
REMARK    4  A    between atoms: C_8  and  N_9
REMARK    5  A    between atoms: C_12  and  N_13
REMARK    6  A    between atoms: N_22  and  C_23
REMARK    7  A    between atoms: C_23  and  C_24
REMARK    8  A    between atoms: C_27  and  C_28
REMARK                            x       y       z     vdW  Elec       q    Type
REMARK                         _______ _______ _______ _____ _____    ______ ____
ROOT
ATOM      1  N   UNL     1       4.981   4.820  17.036  0.00  0.00    +0.000 N 
ATOM      2  C   UNL     1       4.337   4.398  18.163  0.00  0.00    +0.000 A 
ATOM      3  N   UNL     1       4.643   3.398  18.958  0.00  0.00    +0.000 NA
ATOM      4  C   UNL     1       3.578   3.251  19.821  0.00  0.00    +0.000 A 
ATOM      5  C   UNL     1       3.349   2.280  20.813  0.00  0.00    +0.000 A 
ATOM      6  C   UNL     1       2.165   2.331  21.566  0.00  0.00    +0.000 A 
ATOM      7  C   UNL     1       1.207   3.313  21.316  0.00  0.00    +0.000 A 
ATOM      8  C   UNL     1       1.406   4.277  20.317  0.00  0.00    +0.000 A 
ATOM      9  C   UNL     1       2.612   4.228  19.595  0.00  0.00    +0.000 A 
ATOM     10  N   UNL     1       3.147   4.988  18.571  0.00  0.00    +0.000 N 
ATOM     11  H   UNL     1       4.462   4.552  16.201  0.00  0.00    +0.000 HD
ENDROOT
BRANCH   1  15
ATOM     12  N   UNL     1       7.771   7.019  17.682  0.00  0.00    +0.000 NA
ATOM     13  C   UNL     1       7.173   6.052  18.621  0.00  0.00    +0.000 C 
ATOM     14  C   UNL     1       7.253   4.623  18.085  0.00  0.00    +0.000 C 
ATOM     15  C   UNL     1       6.412   4.489  16.819  0.00  0.00    +0.000 C 
ATOM     16  C   UNL     1       7.040   5.467  15.803  0.00  0.00    +0.000 C 
ATOM     17  C   UNL     1       7.135   6.903  16.348  0.00  0.00    +0.000 C 
BRANCH  12  18
ATOM     18  C   UNL     1       7.628   8.420  18.165  0.00  0.00    +0.000 C 
BRANCH  18  19
ATOM     19  C   UNL     1       8.475   9.483  17.432  0.00  0.00    +0.000 C 
BRANCH  19  23
ATOM     20  C   UNL     1       9.743  12.702  20.051  0.00  0.00    +0.000 A 
ATOM     21  C   UNL     1       9.343  12.974  18.741  0.00  0.00    +0.000 A 
ATOM     22  C   UNL     1       8.953  11.929  17.894  0.00  0.00    +0.000 A 
ATOM     23  C   UNL     1       8.952  10.599  18.345  0.00  0.00    +0.000 A 
ATOM     24  C   UNL     1       9.378  10.335  19.654  0.00  0.00    +0.000 A 
ATOM     25  C   UNL     1       9.770  11.381  20.503  0.00  0.00    +0.000 A 
BRANCH  20  27
ATOM     26  N   UNL     1      10.442  14.642  21.638  0.00  0.00    +0.000 NA
ATOM     27  C   UNL     1      10.133  13.772  20.926  0.00  0.00    +0.000 C 
ENDBRANCH  20  27
ENDBRANCH  19  23
ENDBRANCH  18  19
ENDBRANCH  12  18
ENDBRANCH   1  15
BRANCH  10  28
ATOM     28  C   UNL     1       2.480   6.109  17.921  0.00  0.00    +0.000 C 
BRANCH  28  29
ATOM     29  C   UNL     1       2.106   7.298  18.790  0.00  0.00    +0.000 A 
ATOM     30  C   UNL     1       1.972   7.271  20.185  0.00  0.00    +0.000 A 
ATOM     31  C   UNL     1       1.519   8.405  20.881  0.00  0.00    +0.000 A 
ATOM     32  C   UNL     1       1.212   9.587  20.194  0.00  0.00    +0.000 A 
ATOM     33  C   UNL     1       1.404   9.636  18.820  0.00  0.00    +0.000 A 
ATOM     34  F   UNL     1       1.151  10.760  18.133  0.00  0.00    +0.000 F 
ATOM     35  C   UNL     1       1.842   8.512  18.123  0.00  0.00    +0.000 A 
BRANCH  32  36
ATOM     36  C   UNL     1       0.676  10.716  20.888  0.00  0.00    +0.000 C 
ATOM     37  N   UNL     1       0.272  11.648  21.452  0.00  0.00    +0.000 NA
ENDBRANCH  32  36
ENDBRANCH  28  29
ENDBRANCH  10  28
TORSDOF 8
ENDMDL
MODEL 6
REMARK VINA RESULT:      -7.8      1.657      1.932
REMARK  Name = 
REMARK  8 active torsions:
REMARK  status: ('A' for Active; 'I' for Inactive)
REMARK    1  A    between atoms: C_2  and  C_3
REMARK    2  A    between atoms: C_6  and  C_7
REMARK    3  A    between atoms: C_7  and  C_8
REMARK    4  A    between atoms: C_8  and  N_9
REMARK    5  A    between atoms: C_12  and  N_13
REMARK    6  A    between atoms: N_22  and  C_23
REMARK    7  A    between atoms: C_23  and  C_24
REMARK    8  A    between atoms: C_27  and  C_28
REMARK                            x       y       z     vdW  Elec       q    Type
REMARK                         _______ _______ _______ _____ _____    ______ ____
ROOT
ATOM      1  N   UNL     1       5.034   5.856  18.118  0.00  0.00    +0.000 N 
ATOM      2  C   UNL     1       4.066   4.948  18.435  0.00  0.00    +0.000 A 
ATOM      3  N   UNL     1       3.748   3.834  17.813  0.00  0.00    +0.000 NA
ATOM      4  C   UNL     1       2.580   3.388  18.393  0.00  0.00    +0.000 A 
ATOM      5  C   UNL     1       1.766   2.293  18.052  0.00  0.00    +0.000 A 
ATOM      6  C   UNL     1       0.601   2.045  18.795  0.00  0.00    +0.000 A 
ATOM      7  C   UNL     1       0.231   2.890  19.840  0.00  0.00    +0.000 A 
ATOM      8  C   UNL     1       1.017   4.000  20.182  0.00  0.00    +0.000 A 
ATOM      9  C   UNL     1       2.197   4.214  19.447  0.00  0.00    +0.000 A 
ATOM     10  N   UNL     1       3.196   5.170  19.495  0.00  0.00    +0.000 N 
ATOM     11  H   UNL     1       4.623   6.697  17.715  0.00  0.00    +0.000 HD
ENDROOT
BRANCH   1  15
ATOM     12  N   UNL     1       8.265   7.468  18.090  0.00  0.00    +0.000 NA
ATOM     13  C   UNL     1       7.851   6.334  18.937  0.00  0.00    +0.000 C 
ATOM     14  C   UNL     1       7.436   5.125  18.096  0.00  0.00    +0.000 C 
ATOM     15  C   UNL     1       6.193   5.458  17.277  0.00  0.00    +0.000 C 
ATOM     16  C   UNL     1       6.608   6.623  16.354  0.00  0.00    +0.000 C 
ATOM     17  C   UNL     1       7.188   7.816  17.133  0.00  0.00    +0.000 C 
BRANCH  12  18
ATOM     18  C   UNL     1       8.598   8.671  18.900  0.00  0.00    +0.000 C 
BRANCH  18  19
ATOM     19  C   UNL     1       8.814   9.983  18.115  0.00  0.00    +0.000 C 
BRANCH  19  23
ATOM     20  C   UNL     1       9.875  13.342  20.648  0.00  0.00    +0.000 A 
ATOM     21  C   UNL     1       9.572  13.543  19.300  0.00  0.00    +0.000 A 
ATOM     22  C   UNL     1       9.248  12.453  18.482  0.00  0.00    +0.000 A 
ATOM     23  C   UNL     1       9.218  11.149  19.001  0.00  0.00    +0.000 A 
ATOM     24  C   UNL     1       9.548  10.955  20.350  0.00  0.00    +0.000 A 
ATOM     25  C   UNL     1       9.873  12.047  21.169  0.00  0.00    +0.000 A 
BRANCH  20  27
ATOM     26  N   UNL     1      10.451  15.370  22.174  0.00  0.00    +0.000 NA
ATOM     27  C   UNL     1      10.196  14.459  21.492  0.00  0.00    +0.000 C 
ENDBRANCH  20  27
ENDBRANCH  19  23
ENDBRANCH  18  19
ENDBRANCH  12  18
ENDBRANCH   1  15
BRANCH  10  28
ATOM     28  C   UNL     1       3.220   6.313  20.398  0.00  0.00    +0.000 C 
BRANCH  28  29
ATOM     29  C   UNL     1       2.273   7.462  20.095  0.00  0.00    +0.000 A 
ATOM     30  C   UNL     1       1.319   7.981  20.982  0.00  0.00    +0.000 A 
ATOM     31  C   UNL     1       0.421   8.977  20.563  0.00  0.00    +0.000 A 
ATOM     32  C   UNL     1       0.477   9.482  19.257  0.00  0.00    +0.000 A 
ATOM     33  C   UNL     1       1.460   9.015  18.396  0.00  0.00    +0.000 A 
ATOM     34  F   UNL     1       1.563   9.499  17.149  0.00  0.00    +0.000 F 
ATOM     35  C   UNL     1       2.346   8.020  18.802  0.00  0.00    +0.000 A 
BRANCH  32  36
ATOM     36  C   UNL     1      -0.485  10.438  18.803  0.00  0.00    +0.000 C 
ATOM     37  N   UNL     1      -1.249  11.239  18.451  0.00  0.00    +0.000 NA
ENDBRANCH  32  36
ENDBRANCH  28  29
ENDBRANCH  10  28
TORSDOF 8
ENDMDL
MODEL 7
REMARK VINA RESULT:      -7.7      5.368     10.646
REMARK  Name = 
REMARK  8 active torsions:
REMARK  status: ('A' for Active; 'I' for Inactive)
REMARK    1  A    between atoms: C_2  and  C_3
REMARK    2  A    between atoms: C_6  and  C_7
REMARK    3  A    between atoms: C_7  and  C_8
REMARK    4  A    between atoms: C_8  and  N_9
REMARK    5  A    between atoms: C_12  and  N_13
REMARK    6  A    between atoms: N_22  and  C_23
REMARK    7  A    between atoms: C_23  and  C_24
REMARK    8  A    between atoms: C_27  and  C_28
REMARK                            x       y       z     vdW  Elec       q    Type
REMARK                         _______ _______ _______ _____ _____    ______ ____
ROOT
ATOM      1  N   UNL     1      -2.551  12.271  22.118  0.00  0.00    +0.000 N 
ATOM      2  C   UNL     1      -3.101  13.444  21.690  0.00  0.00    +0.000 A 
ATOM      3  N   UNL     1      -2.796  14.672  22.046  0.00  0.00    +0.000 NA
ATOM      4  C   UNL     1      -3.768  15.485  21.501  0.00  0.00    +0.000 A 
ATOM      5  C   UNL     1      -3.969  16.869  21.643  0.00  0.00    +0.000 A 
ATOM      6  C   UNL     1      -5.053  17.477  20.991  0.00  0.00    +0.000 A 
ATOM      7  C   UNL     1      -5.945  16.717  20.234  0.00  0.00    +0.000 A 
ATOM      8  C   UNL     1      -5.774  15.332  20.098  0.00  0.00    +0.000 A 
ATOM      9  C   UNL     1      -4.665  14.745  20.733  0.00  0.00    +0.000 A 
ATOM     10  N   UNL     1      -4.182  13.452  20.818  0.00  0.00    +0.000 N 
ATOM     11  H   UNL     1      -3.180  11.790  22.759  0.00  0.00    +0.000 HD
ENDROOT
BRANCH   1  15
ATOM     12  N   UNL     1       0.290  10.498  20.769  0.00  0.00    +0.000 NA
ATOM     13  C   UNL     1      -0.103  11.889  20.476  0.00  0.00    +0.000 C 
ATOM     14  C   UNL     1      -0.116  12.749  21.740  0.00  0.00    +0.000 C 
ATOM     15  C   UNL     1      -1.187  12.249  22.704  0.00  0.00    +0.000 C 
ATOM     16  C   UNL     1      -0.779  10.803  23.058  0.00  0.00    +0.000 C 
ATOM     17  C   UNL     1      -0.593   9.921  21.810  0.00  0.00    +0.000 C 
BRANCH  12  18
ATOM     18  C   UNL     1       0.232   9.639  19.555  0.00  0.00    +0.000 C 
BRANCH  18  19
ATOM     19  C   UNL     1       1.518   9.576  18.703  0.00  0.00    +0.000 C 
BRANCH  19  23
ATOM     20  C   UNL     1       3.412   5.676  18.873  0.00  0.00    +0.000 A 
ATOM     21  C   UNL     1       2.621   6.123  19.933  0.00  0.00    +0.000 A 
ATOM     22  C   UNL     1       2.027   7.391  19.882  0.00  0.00    +0.000 A 
ATOM     23  C   UNL     1       2.212   8.226  18.768  0.00  0.00    +0.000 A 
ATOM     24  C   UNL     1       3.027   7.778  17.720  0.00  0.00    +0.000 A 
ATOM     25  C   UNL     1       3.623   6.509  17.772  0.00  0.00    +0.000 A 
BRANCH  20  27
ATOM     26  N   UNL     1       4.500   3.314  18.962  0.00  0.00    +0.000 NA
ATOM     27  C   UNL     1       4.013   4.373  18.918  0.00  0.00    +0.000 C 
ENDBRANCH  20  27
ENDBRANCH  19  23
ENDBRANCH  18  19
ENDBRANCH  12  18
ENDBRANCH   1  15
BRANCH  10  28
ATOM     28  C   UNL     1      -4.817  12.280  20.231  0.00  0.00    +0.000 C 
BRANCH  28  29
ATOM     29  C   UNL     1      -4.434  11.919  18.805  0.00  0.00    +0.000 A 
ATOM     30  C   UNL     1      -5.292  11.973  17.698  0.00  0.00    +0.000 A 
ATOM     31  C   UNL     1      -4.864  11.516  16.439  0.00  0.00    +0.000 A 
ATOM     32  C   UNL     1      -3.567  11.016  16.267  0.00  0.00    +0.000 A 
ATOM     33  C   UNL     1      -2.695  11.019  17.347  0.00  0.00    +0.000 A 
ATOM     34  F   UNL     1      -1.436  10.577  17.211  0.00  0.00    +0.000 F 
ATOM     35  C   UNL     1      -3.117  11.461  18.599  0.00  0.00    +0.000 A 
BRANCH  32  36
ATOM     36  C   UNL     1      -3.154  10.477  15.008  0.00  0.00    +0.000 C 
ATOM     37  N   UNL     1      -2.795  10.064  13.984  0.00  0.00    +0.000 NA
ENDBRANCH  32  36
ENDBRANCH  28  29
ENDBRANCH  10  28
TORSDOF 8
ENDMDL
MODEL 8
REMARK VINA RESULT:      -7.7      3.174      7.231
REMARK  Name = 
REMARK  8 active torsions:
REMARK  status: ('A' for Active; 'I' for Inactive)
REMARK    1  A    between atoms: C_2  and  C_3
REMARK    2  A    between atoms: C_6  and  C_7
REMARK    3  A    between atoms: C_7  and  C_8
REMARK    4  A    between atoms: C_8  and  N_9
REMARK    5  A    between atoms: C_12  and  N_13
REMARK    6  A    between atoms: N_22  and  C_23
REMARK    7  A    between atoms: C_23  and  C_24
REMARK    8  A    between atoms: C_27  and  C_28
REMARK                            x       y       z     vdW  Elec       q    Type
REMARK                         _______ _______ _______ _____ _____    ______ ____
ROOT
ATOM      1  N   UNL     1       1.244  12.730  20.214  0.00  0.00    +0.000 N 
ATOM      2  C   UNL     1       0.157  12.295  19.514  0.00  0.00    +0.000 A 
ATOM      3  N   UNL     1      -1.089  12.707  19.592  0.00  0.00    +0.000 NA
ATOM      4  C   UNL     1      -1.836  11.820  18.846  0.00  0.00    +0.000 A 
ATOM      5  C   UNL     1      -3.229  11.745  18.665  0.00  0.00    +0.000 A 
ATOM      6  C   UNL     1      -3.764  10.729  17.858  0.00  0.00    +0.000 A 
ATOM      7  C   UNL     1      -2.931   9.781  17.265  0.00  0.00    +0.000 A 
ATOM      8  C   UNL     1      -1.542   9.825  17.451  0.00  0.00    +0.000 A 
ATOM      9  C   UNL     1      -1.022  10.869  18.238  0.00  0.00    +0.000 A 
ATOM     10  N   UNL     1       0.255  11.229  18.628  0.00  0.00    +0.000 N 
ATOM     11  H   UNL     1       1.510  12.052  20.927  0.00  0.00    +0.000 HD
ENDROOT
BRANCH   1  15
ATOM     12  N   UNL     1       3.411  15.464  19.283  0.00  0.00    +0.000 NA
ATOM     13  C   UNL     1       2.073  15.172  18.737  0.00  0.00    +0.000 C 
ATOM     14  C   UNL     1       1.001  15.199  19.827  0.00  0.00    +0.000 C 
ATOM     15  C   UNL     1       1.250  14.080  20.834  0.00  0.00    +0.000 C 
ATOM     16  C   UNL     1       2.633  14.380  21.449  0.00  0.00    +0.000 C 
ATOM     17  C   UNL     1       3.734  14.526  20.384  0.00  0.00    +0.000 C 
BRANCH  12  18
ATOM     18  C   UNL     1       4.468  15.366  18.239  0.00  0.00    +0.000 C 
BRANCH  18  19
ATOM     19  C   UNL     1       5.833  15.998  18.590  0.00  0.00    +0.000 C 
BRANCH  19  23
ATOM     20  C   UNL     1       8.953  13.015  19.027  0.00  0.00    +0.000 A 
ATOM     21  C   UNL     1       8.571  13.800  20.116  0.00  0.00    +0.000 A 
ATOM     22  C   UNL     1       7.576  14.775  19.965  0.00  0.00    +0.000 A 
ATOM     23  C   UNL     1       6.947  14.974  18.726  0.00  0.00    +0.000 A 
ATOM     24  C   UNL     1       7.355  14.197  17.633  0.00  0.00    +0.000 A 
ATOM     25  C   UNL     1       8.352  13.221  17.784  0.00  0.00    +0.000 A 
BRANCH  20  27
ATOM     26  N   UNL     1      10.790  11.194  19.310  0.00  0.00    +0.000 NA
ATOM     27  C   UNL     1       9.965  12.007  19.181  0.00  0.00    +0.000 C 
ENDBRANCH  20  27
ENDBRANCH  19  23
ENDBRANCH  18  19
ENDBRANCH  12  18
ENDBRANCH   1  15
BRANCH  10  28
ATOM     28  C   UNL     1       1.471  10.497  18.302  0.00  0.00    +0.000 C 
BRANCH  28  29
ATOM     29  C   UNL     1       1.622   9.101  18.883  0.00  0.00    +0.000 A 
ATOM     30  C   UNL     1       1.283   8.726  20.190  0.00  0.00    +0.000 A 
ATOM     31  C   UNL     1       1.562   7.430  20.657  0.00  0.00    +0.000 A 
ATOM     32  C   UNL     1       2.166   6.486  19.818  0.00  0.00    +0.000 A 
ATOM     33  C   UNL     1       2.446   6.834  18.504  0.00  0.00    +0.000 A 
ATOM     34  F   UNL     1       2.995   5.945  17.662  0.00  0.00    +0.000 F 
ATOM     35  C   UNL     1       2.182   8.120  18.038  0.00  0.00    +0.000 A 
BRANCH  32  36
ATOM     36  C   UNL     1       2.524   5.193  20.313  0.00  0.00    +0.000 C 
ATOM     37  N   UNL     1       2.824   4.133  20.683  0.00  0.00    +0.000 NA
ENDBRANCH  32  36
ENDBRANCH  28  29
ENDBRANCH  10  28
TORSDOF 8
ENDMDL
MODEL 9
REMARK VINA RESULT:      -7.6      3.094      7.155
REMARK  Name = 
REMARK  8 active torsions:
REMARK  status: ('A' for Active; 'I' for Inactive)
REMARK    1  A    between atoms: C_2  and  C_3
REMARK    2  A    between atoms: C_6  and  C_7
REMARK    3  A    between atoms: C_7  and  C_8
REMARK    4  A    between atoms: C_8  and  N_9
REMARK    5  A    between atoms: C_12  and  N_13
REMARK    6  A    between atoms: N_22  and  C_23
REMARK    7  A    between atoms: C_23  and  C_24
REMARK    8  A    between atoms: C_27  and  C_28
REMARK                            x       y       z     vdW  Elec       q    Type
REMARK                         _______ _______ _______ _____ _____    ______ ____
ROOT
ATOM      1  N   UNL     1       1.076  12.802  20.073  0.00  0.00    +0.000 N 
ATOM      2  C   UNL     1      -0.026  12.347  19.408  0.00  0.00    +0.000 A 
ATOM      3  N   UNL     1      -1.286  12.677  19.585  0.00  0.00    +0.000 NA
ATOM      4  C   UNL     1      -2.026  11.795  18.826  0.00  0.00    +0.000 A 
ATOM      5  C   UNL     1      -3.421  11.647  18.720  0.00  0.00    +0.000 A 
ATOM      6  C   UNL     1      -3.945  10.654  17.879  0.00  0.00    +0.000 A 
ATOM      7  C   UNL     1      -3.098   9.797  17.177  0.00  0.00    +0.000 A 
ATOM      8  C   UNL     1      -1.705   9.914  17.285  0.00  0.00    +0.000 A 
ATOM      9  C   UNL     1      -1.198  10.935  18.109  0.00  0.00    +0.000 A 
ATOM     10  N   UNL     1       0.078  11.347  18.449  0.00  0.00    +0.000 N 
ATOM     11  H   UNL     1       1.423  12.097  20.722  0.00  0.00    +0.000 HD
ENDROOT
BRANCH   1  15
ATOM     12  N   UNL     1       3.238  15.614  19.400  0.00  0.00    +0.000 NA
ATOM     13  C   UNL     1       1.923  15.345  18.789  0.00  0.00    +0.000 C 
ATOM     14  C   UNL     1       0.814  15.288  19.841  0.00  0.00    +0.000 C 
ATOM     15  C   UNL     1       1.043  14.108  20.780  0.00  0.00    +0.000 C 
ATOM     16  C   UNL     1       2.400  14.381  21.462  0.00  0.00    +0.000 C 
ATOM     17  C   UNL     1       3.534  14.609  20.448  0.00  0.00    +0.000 C 
BRANCH  12  18
ATOM     18  C   UNL     1       4.331  15.597  18.390  0.00  0.00    +0.000 C 
BRANCH  18  19
ATOM     19  C   UNL     1       5.715  16.079  18.877  0.00  0.00    +0.000 C 
BRANCH  19  23
ATOM     20  C   UNL     1       8.883  13.196  18.189  0.00  0.00    +0.000 A 
ATOM     21  C   UNL     1       7.764  13.226  17.355  0.00  0.00    +0.000 A 
ATOM     22  C   UNL     1       6.735  14.146  17.593  0.00  0.00    +0.000 A 
ATOM     23  C   UNL     1       6.813  15.051  18.663  0.00  0.00    +0.000 A 
ATOM     24  C   UNL     1       7.930  14.996  19.509  0.00  0.00    +0.000 A 
ATOM     25  C   UNL     1       8.960  14.074  19.271  0.00  0.00    +0.000 A 
BRANCH  20  27
ATOM     26  N   UNL     1      10.811  11.505  17.746  0.00  0.00    +0.000 NA
ATOM     27  C   UNL     1       9.945  12.261  17.941  0.00  0.00    +0.000 C 
ENDBRANCH  20  27
ENDBRANCH  19  23
ENDBRANCH  18  19
ENDBRANCH  12  18
ENDBRANCH   1  15
BRANCH  10  28
ATOM     28  C   UNL     1       1.311  10.712  18.005  0.00  0.00    +0.000 C 
BRANCH  28  29
ATOM     29  C   UNL     1       1.657   9.361  18.609  0.00  0.00    +0.000 A 
ATOM     30  C   UNL     1       2.230   8.287  17.914  0.00  0.00    +0.000 A 
ATOM     31  C   UNL     1       2.413   7.044  18.545  0.00  0.00    +0.000 A 
ATOM     32  C   UNL     1       2.042   6.864  19.883  0.00  0.00    +0.000 A 
ATOM     33  C   UNL     1       1.532   7.943  20.592  0.00  0.00    +0.000 A 
ATOM     34  F   UNL     1       1.195   7.816  21.884  0.00  0.00    +0.000 F 
ATOM     35  C   UNL     1       1.338   9.174  19.969  0.00  0.00    +0.000 A 
BRANCH  32  36
ATOM     36  C   UNL     1       2.152   5.580  20.505  0.00  0.00    +0.000 C 
ATOM     37  N   UNL     1       2.224   4.551  21.037  0.00  0.00    +0.000 NA
ENDBRANCH  32  36
ENDBRANCH  28  29
ENDBRANCH  10  28
TORSDOF 8
ENDMDL
