MODEL 1
REMARK VINA RESULT:     -10.5      0.000      0.000
REMARK  Name = 
REMARK  7 active torsions:
REMARK  status: ('A' for Active; 'I' for Inactive)
REMARK    1  A    between atoms: C_2  and  O_3
REMARK    2  A    between atoms: C_2  and  C_4
REMARK    3  A    between atoms: C_8  and  C_9
REMARK    4  A    between atoms: C_12  and  O_13
REMARK    5  A    between atoms: O_13  and  C_14
REMARK    6  A    between atoms: C_14  and  C_15
REMARK    7  A    between atoms: C_17  and  C_18
REMARK                            x       y       z     vdW  Elec       q    Type
REMARK                         _______ _______ _______ _____ _____    ______ ____
ROOT
ATOM      1  C   UNL     1       5.932   5.399  18.124  0.00  0.00    +0.000 A 
ATOM      2  C   UNL     1       5.576   6.471  17.276  0.00  0.00    +0.000 A 
ATOM      3  C   UNL     1       6.412   7.635  17.118  0.00  0.00    +0.000 A 
ATOM      4  C   UNL     1       7.639   7.797  17.805  0.00  0.00    +0.000 A 
ATOM      5  C   UNL     1       7.981   6.734  18.632  0.00  0.00    +0.000 A 
ATOM      6  C   UNL     1       7.154   5.578  18.802  0.00  0.00    +0.000 A 
ENDROOT
BRANCH   1  11
ATOM      7  C   UNL     1       1.813   2.775  19.990  0.00  0.00    +0.000 C 
ATOM      8  C   UNL     1       1.456   4.163  19.541  0.00  0.00    +0.000 C 
ATOM      9  C   UNL     1       2.775   3.554  19.080  0.00  0.00    +0.000 C 
ATOM     10  C   UNL     1       4.094   4.154  19.585  0.00  0.00    +0.000 C 
ATOM     11  C   UNL     1       5.007   4.173  18.323  0.00  0.00    +0.000 C 
ATOM     12  N   UNL     1       4.096   3.839  17.218  0.00  0.00    +0.000 N 
ATOM     13  C   UNL     1       2.944   3.235  17.622  0.00  0.00    +0.000 C 
ATOM     14  O   UNL     1       2.124   2.620  16.956  0.00  0.00    +0.000 OA
ATOM     15  H   UNL     1       4.445   3.583  16.306  0.00  0.00    +0.000 HD
BRANCH   7  17
ATOM     16  O   UNL     1       3.170   2.301  21.892  0.00  0.00    +0.000 OA
ATOM     17  C   UNL     1       2.068   2.560  21.440  0.00  0.00    +0.000 C 
BRANCH  17  18
ATOM     18  O   UNL     1       0.996   2.799  22.231  0.00  0.00    +0.000 OA
ATOM     19  H   UNL     1       1.074   3.567  22.828  0.00  0.00    +0.000 HD
ENDBRANCH  17  18
ENDBRANCH   7  17
ENDBRANCH   1  11
BRANCH   4  20
ATOM     20  O   UNL     1       8.383   8.967  17.621  0.00  0.00    +0.000 OA
BRANCH  20  21
ATOM     21  C   UNL     1       8.875   9.940  18.729  0.00  0.00    +0.000 C 
BRANCH  21  22
ATOM     22  C   UNL     1       9.324  11.314  18.176  0.00  0.00    +0.000 A 
ATOM     23  C   UNL     1      10.686  11.248  18.163  0.00  0.00    +0.000 A 
ATOM     24  C   UNL     1      11.223  12.258  18.865  0.00  0.00    +0.000 A 
ATOM     25  N   UNL     1      11.159  13.295  18.060  0.00  0.00    +0.000 NA
ATOM     26  C   UNL     1       9.901  13.652  17.823  0.00  0.00    +0.000 A 
ATOM     27  C   UNL     1       9.808  15.028  17.729  0.00  0.00    +0.000 A 
ATOM     28  C   UNL     1       8.592  15.672  17.737  0.00  0.00    +0.000 A 
ATOM     29  C   UNL     1       7.454  14.885  17.741  0.00  0.00    +0.000 A 
ATOM     30  C   UNL     1       7.534  13.450  17.833  0.00  0.00    +0.000 A 
ATOM     31  C   UNL     1       8.807  12.722  17.930  0.00  0.00    +0.000 A 
BRANCH  24  32
ATOM     32  C   UNL     1      10.827  12.694  20.294  0.00  0.00    +0.000 A 
ATOM     33  C   UNL     1       9.893  12.060  21.151  0.00  0.00    +0.000 A 
ATOM     34  C   UNL     1       9.109  12.805  22.050  0.00  0.00    +0.000 A 
ATOM     35  C   UNL     1       9.284  14.181  22.145  0.00  0.00    +0.000 A 
ATOM     36  C   UNL     1      10.308  14.789  21.433  0.00  0.00    +0.000 A 
ATOM     37  C   UNL     1      11.108  14.038  20.572  0.00  0.00    +0.000 A 
ENDBRANCH  24  32
ENDBRANCH  21  22
ENDBRANCH  20  21
ENDBRANCH   4  20
TORSDOF 7
ENDMDL
MODEL 2
REMARK VINA RESULT:      -9.9      0.555      1.100
REMARK  Name = 
REMARK  7 active torsions:
REMARK  status: ('A' for Active; 'I' for Inactive)
REMARK    1  A    between atoms: C_2  and  O_3
REMARK    2  A    between atoms: C_2  and  C_4
REMARK    3  A    between atoms: C_8  and  C_9
REMARK    4  A    between atoms: C_12  and  O_13
REMARK    5  A    between atoms: O_13  and  C_14
REMARK    6  A    between atoms: C_14  and  C_15
REMARK    7  A    between atoms: C_17  and  C_18
REMARK                            x       y       z     vdW  Elec       q    Type
REMARK                         _______ _______ _______ _____ _____    ______ ____
ROOT
ATOM      1  C   UNL     1       6.236   5.632  18.368  0.00  0.00    +0.000 A 
ATOM      2  C   UNL     1       7.469   5.973  18.968  0.00  0.00    +0.000 A 
ATOM      3  C   UNL     1       8.149   7.211  18.675  0.00  0.00    +0.000 A 
ATOM      4  C   UNL     1       7.644   8.165  17.760  0.00  0.00    +0.000 A 
ATOM      5  C   UNL     1       6.429   7.820  17.179  0.00  0.00    +0.000 A 
ATOM      6  C   UNL     1       5.750   6.591  17.457  0.00  0.00    +0.000 A 
ENDROOT
BRANCH   1  11
ATOM      7  C   UNL     1       2.287   2.498  19.751  0.00  0.00    +0.000 C 
ATOM      8  C   UNL     1       1.845   3.620  18.854  0.00  0.00    +0.000 C 
ATOM      9  C   UNL     1       3.330   3.286  18.943  0.00  0.00    +0.000 C 
ATOM     10  C   UNL     1       4.286   4.298  19.586  0.00  0.00    +0.000 C 
ATOM     11  C   UNL     1       5.535   4.282  18.653  0.00  0.00    +0.000 C 
ATOM     12  N   UNL     1       5.099   3.497  17.488  0.00  0.00    +0.000 N 
ATOM     13  C   UNL     1       4.008   2.718  17.730  0.00  0.00    +0.000 C 
ATOM     14  O   UNL     1       3.568   1.785  17.073  0.00  0.00    +0.000 OA
ATOM     15  H   UNL     1       5.760   3.152  16.809  0.00  0.00    +0.000 HD
BRANCH   7  17
ATOM     16  O   UNL     1       1.113   3.191  21.707  0.00  0.00    +0.000 OA
ATOM     17  C   UNL     1       2.101   2.671  21.217  0.00  0.00    +0.000 C 
BRANCH  17  18
ATOM     18  O   UNL     1       3.064   2.090  21.969  0.00  0.00    +0.000 OA
ATOM     19  H   UNL     1       3.282   1.167  21.738  0.00  0.00    +0.000 HD
ENDBRANCH  17  18
ENDBRANCH   7  17
ENDBRANCH   1  11
BRANCH   4  20
ATOM     20  O   UNL     1       8.374   9.330  17.507  0.00  0.00    +0.000 OA
BRANCH  20  21
ATOM     21  C   UNL     1       9.228  10.133  18.529  0.00  0.00    +0.000 C 
BRANCH  21  22
ATOM     22  C   UNL     1       9.559  11.568  18.051  0.00  0.00    +0.000 A 
ATOM     23  C   UNL     1      10.922  11.625  18.068  0.00  0.00    +0.000 A 
ATOM     24  C   UNL     1      11.349  12.646  18.828  0.00  0.00    +0.000 A 
ATOM     25  N   UNL     1      11.207  13.710  18.070  0.00  0.00    +0.000 NA
ATOM     26  C   UNL     1       9.926  13.962  17.820  0.00  0.00    +0.000 A 
ATOM     27  C   UNL     1       9.710  15.327  17.787  0.00  0.00    +0.000 A 
ATOM     28  C   UNL     1       8.440  15.857  17.795  0.00  0.00    +0.000 A 
ATOM     29  C   UNL     1       7.379  14.971  17.735  0.00  0.00    +0.000 A 
ATOM     30  C   UNL     1       7.588  13.546  17.764  0.00  0.00    +0.000 A 
ATOM     31  C   UNL     1       8.921  12.933  17.858  0.00  0.00    +0.000 A 
BRANCH  24  32
ATOM     32  C   UNL     1      10.887  12.974  20.266  0.00  0.00    +0.000 A 
ATOM     33  C   UNL     1      10.004  12.214  21.073  0.00  0.00    +0.000 A 
ATOM     34  C   UNL     1       9.135  12.837  21.986  0.00  0.00    +0.000 A 
ATOM     35  C   UNL     1       9.173  14.217  22.146  0.00  0.00    +0.000 A 
ATOM     36  C   UNL     1      10.144  14.955  21.484  0.00  0.00    +0.000 A 
ATOM     37  C   UNL     1      11.030  14.325  20.610  0.00  0.00    +0.000 A 
ENDBRANCH  24  32
ENDBRANCH  21  22
ENDBRANCH  20  21
ENDBRANCH   4  20
TORSDOF 7
ENDMDL
MODEL 3
REMARK VINA RESULT:      -9.9      0.745      1.381
REMARK  Name = 
REMARK  7 active torsions:
REMARK  status: ('A' for Active; 'I' for Inactive)
REMARK    1  A    between atoms: C_2  and  O_3
REMARK    2  A    between atoms: C_2  and  C_4
REMARK    3  A    between atoms: C_8  and  C_9
REMARK    4  A    between atoms: C_12  and  O_13
REMARK    5  A    between atoms: O_13  and  C_14
REMARK    6  A    between atoms: C_14  and  C_15
REMARK    7  A    between atoms: C_17  and  C_18
REMARK                            x       y       z     vdW  Elec       q    Type
REMARK                         _______ _______ _______ _____ _____    ______ ____
ROOT
ATOM      1  C   UNL     1       6.068   5.647  18.115  0.00  0.00    +0.000 A 
ATOM      2  C   UNL     1       5.699   6.788  17.368  0.00  0.00    +0.000 A 
ATOM      3  C   UNL     1       6.545   7.951  17.275  0.00  0.00    +0.000 A 
ATOM      4  C   UNL     1       7.796   8.045  17.931  0.00  0.00    +0.000 A 
ATOM      5  C   UNL     1       8.150   6.915  18.659  0.00  0.00    +0.000 A 
ATOM      6  C   UNL     1       7.314   5.759  18.765  0.00  0.00    +0.000 A 
ENDROOT
BRANCH   1  11
ATOM      7  C   UNL     1       1.976   2.927  19.902  0.00  0.00    +0.000 C 
ATOM      8  C   UNL     1       1.623   4.351  19.576  0.00  0.00    +0.000 C 
ATOM      9  C   UNL     1       2.919   3.766  19.026  0.00  0.00    +0.000 C 
ATOM     10  C   UNL     1       4.261   4.310  19.533  0.00  0.00    +0.000 C 
ATOM     11  C   UNL     1       5.134   4.419  18.247  0.00  0.00    +0.000 C 
ATOM     12  N   UNL     1       4.184   4.183  17.150  0.00  0.00    +0.000 N 
ATOM     13  C   UNL     1       3.037   3.561  17.543  0.00  0.00    +0.000 C 
ATOM     14  O   UNL     1       2.188   3.009  16.858  0.00  0.00    +0.000 OA
ATOM     15  H   UNL     1       4.500   3.997  16.210  0.00  0.00    +0.000 HD
BRANCH   7  17
ATOM     16  O   UNL     1       1.462   2.730  22.222  0.00  0.00    +0.000 OA
ATOM     17  C   UNL     1       2.274   2.596  21.322  0.00  0.00    +0.000 C 
BRANCH  17  18
ATOM     18  O   UNL     1       3.482   2.017  21.514  0.00  0.00    +0.000 OA
ATOM     19  H   UNL     1       4.148   2.568  21.966  0.00  0.00    +0.000 HD
ENDBRANCH  17  18
ENDBRANCH   7  17
ENDBRANCH   1  11
BRANCH   4  20
ATOM     20  O   UNL     1       8.548   9.217  17.816  0.00  0.00    +0.000 OA
BRANCH  20  21
ATOM     21  C   UNL     1       9.287   9.965  18.961  0.00  0.00    +0.000 C 
BRANCH  21  22
ATOM     22  C   UNL     1       9.519  11.465  18.659  0.00  0.00    +0.000 A 
ATOM     23  C   UNL     1      10.687  11.764  19.296  0.00  0.00    +0.000 A 
ATOM     24  C   UNL     1      10.522  12.789  20.146  0.00  0.00    +0.000 A 
ATOM     25  N   UNL     1      10.538  13.861  19.385  0.00  0.00    +0.000 NA
ATOM     26  C   UNL     1       9.489  13.897  18.571  0.00  0.00    +0.000 A 
ATOM     27  C   UNL     1       9.056  15.201  18.414  0.00  0.00    +0.000 A 
ATOM     28  C   UNL     1       7.845  15.493  17.829  0.00  0.00    +0.000 A 
ATOM     29  C   UNL     1       7.117  14.438  17.309  0.00  0.00    +0.000 A 
ATOM     30  C   UNL     1       7.557  13.075  17.460  0.00  0.00    +0.000 A 
ATOM     31  C   UNL     1       8.791  12.705  18.166  0.00  0.00    +0.000 A 
BRANCH  24  32
ATOM     32  C   UNL     1       9.405  12.930  21.206  0.00  0.00    +0.000 A 
ATOM     33  C   UNL     1       9.080  14.090  21.953  0.00  0.00    +0.000 A 
ATOM     34  C   UNL     1       8.599  13.994  23.272  0.00  0.00    +0.000 A 
ATOM     35  C   UNL     1       8.386  12.744  23.841  0.00  0.00    +0.000 A 
ATOM     36  C   UNL     1       8.543  11.604  23.065  0.00  0.00    +0.000 A 
ATOM     37  C   UNL     1       8.981  11.708  21.745  0.00  0.00    +0.000 A 
ENDBRANCH  24  32
ENDBRANCH  21  22
ENDBRANCH  20  21
ENDBRANCH   4  20
TORSDOF 7
ENDMDL
MODEL 4
REMARK VINA RESULT:      -9.6      2.587     10.613
REMARK  Name = 
REMARK  7 active torsions:
REMARK  status: ('A' for Active; 'I' for Inactive)
REMARK    1  A    between atoms: C_2  and  O_3
REMARK    2  A    between atoms: C_2  and  C_4
REMARK    3  A    between atoms: C_8  and  C_9
REMARK    4  A    between atoms: C_12  and  O_13
REMARK    5  A    between atoms: O_13  and  C_14
REMARK    6  A    between atoms: C_14  and  C_15
REMARK    7  A    between atoms: C_17  and  C_18
REMARK                            x       y       z     vdW  Elec       q    Type
REMARK                         _______ _______ _______ _____ _____    ______ ____
ROOT
ATOM      1  C   UNL     1       8.465   8.731  18.541  0.00  0.00    +0.000 A 
ATOM      2  C   UNL     1       8.525   7.417  19.058  0.00  0.00    +0.000 A 
ATOM      3  C   UNL     1       7.653   6.368  18.590  0.00  0.00    +0.000 A 
ATOM      4  C   UNL     1       6.667   6.576  17.596  0.00  0.00    +0.000 A 
ATOM      5  C   UNL     1       6.621   7.871  17.094  0.00  0.00    +0.000 A 
ATOM      6  C   UNL     1       7.476   8.921  17.556  0.00  0.00    +0.000 A 
ENDROOT
BRANCH   1  11
ATOM      7  C   UNL     1      10.083  13.660  19.189  0.00  0.00    +0.000 C 
ATOM      8  C   UNL     1       8.589  13.528  19.278  0.00  0.00    +0.000 C 
ATOM      9  C   UNL     1       9.450  12.276  19.403  0.00  0.00    +0.000 C 
ATOM     10  C   UNL     1       9.388  11.212  18.301  0.00  0.00    +0.000 C 
ATOM     11  C   UNL     1       9.375   9.862  19.079  0.00  0.00    +0.000 C 
ATOM     12  N   UNL     1       9.183  10.262  20.482  0.00  0.00    +0.000 N 
ATOM     13  C   UNL     1       9.490  11.567  20.726  0.00  0.00    +0.000 C 
ATOM     14  O   UNL     1       9.679  12.124  21.797  0.00  0.00    +0.000 OA
ATOM     15  H   UNL     1       9.332   9.613  21.239  0.00  0.00    +0.000 HD
BRANCH   7  17
ATOM     16  O   UNL     1      11.734  14.668  17.796  0.00  0.00    +0.000 OA
ATOM     17  C   UNL     1      10.664  14.091  17.889  0.00  0.00    +0.000 C 
BRANCH  17  18
ATOM     18  O   UNL     1       9.964  13.679  16.807  0.00  0.00    +0.000 OA
ATOM     19  H   UNL     1       9.289  14.302  16.478  0.00  0.00    +0.000 HD
ENDBRANCH  17  18
ENDBRANCH   7  17
ENDBRANCH   1  11
BRANCH   4  20
ATOM     20  O   UNL     1       5.839   5.516  17.215  0.00  0.00    +0.000 OA
BRANCH  20  21
ATOM     21  C   UNL     1       5.766   4.109  17.873  0.00  0.00    +0.000 C 
BRANCH  21  22
ATOM     22  C   UNL     1       4.323   3.675  18.223  0.00  0.00    +0.000 A 
ATOM     23  C   UNL     1       3.575   4.095  17.163  0.00  0.00    +0.000 A 
ATOM     24  C   UNL     1       2.573   4.891  17.568  0.00  0.00    +0.000 A 
ATOM     25  N   UNL     1       1.656   4.069  18.027  0.00  0.00    +0.000 NA
ATOM     26  C   UNL     1       2.072   3.434  19.117  0.00  0.00    +0.000 A 
ATOM     27  C   UNL     1       1.019   3.263  19.997  0.00  0.00    +0.000 A 
ATOM     28  C   UNL     1       1.224   2.863  21.297  0.00  0.00    +0.000 A 
ATOM     29  C   UNL     1       2.516   2.537  21.669  0.00  0.00    +0.000 A 
ATOM     30  C   UNL     1       3.623   2.705  20.763  0.00  0.00    +0.000 A 
ATOM     31  C   UNL     1       3.469   3.226  19.397  0.00  0.00    +0.000 A 
BRANCH  24  32
ATOM     32  C   UNL     1       2.693   6.106  18.517  0.00  0.00    +0.000 A 
ATOM     33  C   UNL     1       2.238   6.189  19.857  0.00  0.00    +0.000 A 
ATOM     34  C   UNL     1       1.764   7.402  20.389  0.00  0.00    +0.000 A 
ATOM     35  C   UNL     1       1.788   8.555  19.613  0.00  0.00    +0.000 A 
ATOM     36  C   UNL     1       2.383   8.521  18.359  0.00  0.00    +0.000 A 
ATOM     37  C   UNL     1       2.888   7.324  17.853  0.00  0.00    +0.000 A 
ENDBRANCH  24  32
ENDBRANCH  21  22
ENDBRANCH  20  21
ENDBRANCH   4  20
TORSDOF 7
ENDMDL
MODEL 5
REMARK VINA RESULT:      -9.6      7.134     11.223
REMARK  Name = 
REMARK  7 active torsions:
REMARK  status: ('A' for Active; 'I' for Inactive)
REMARK    1  A    between atoms: C_2  and  O_3
REMARK    2  A    between atoms: C_2  and  C_4
REMARK    3  A    between atoms: C_8  and  C_9
REMARK    4  A    between atoms: C_12  and  O_13
REMARK    5  A    between atoms: O_13  and  C_14
REMARK    6  A    between atoms: C_14  and  C_15
REMARK    7  A    between atoms: C_17  and  C_18
REMARK                            x       y       z     vdW  Elec       q    Type
REMARK                         _______ _______ _______ _____ _____    ______ ____
ROOT
ATOM      1  C   UNL     1      -1.049  11.350  19.507  0.00  0.00    +0.000 A 
ATOM      2  C   UNL     1      -0.840  10.539  20.645  0.00  0.00    +0.000 A 
ATOM      3  C   UNL     1       0.199   9.539  20.693  0.00  0.00    +0.000 A 
ATOM      4  C   UNL     1       1.072   9.287  19.608  0.00  0.00    +0.000 A 
ATOM      5  C   UNL     1       0.858  10.093  18.497  0.00  0.00    +0.000 A 
ATOM      6  C   UNL     1      -0.175  11.083  18.435  0.00  0.00    +0.000 A 
ENDROOT
BRANCH   1  11
ATOM      7  C   UNL     1      -6.007  12.986  19.229  0.00  0.00    +0.000 C 
ATOM      8  C   UNL     1      -5.836  11.825  20.168  0.00  0.00    +0.000 C 
ATOM      9  C   UNL     1      -4.604  12.613  19.733  0.00  0.00    +0.000 C 
ATOM     10  C   UNL     1      -3.557  11.931  18.844  0.00  0.00    +0.000 C 
ATOM     11  C   UNL     1      -2.195  12.390  19.446  0.00  0.00    +0.000 C 
ATOM     12  N   UNL     1      -2.567  13.048  20.708  0.00  0.00    +0.000 N 
ATOM     13  C   UNL     1      -3.875  13.424  20.764  0.00  0.00    +0.000 C 
ATOM     14  O   UNL     1      -4.419  14.197  21.539  0.00  0.00    +0.000 OA
ATOM     15  H   UNL     1      -1.909  13.618  21.217  0.00  0.00    +0.000 HD
BRANCH   7  17
ATOM     16  O   UNL     1      -6.321  13.466  16.915  0.00  0.00    +0.000 OA
ATOM     17  C   UNL     1      -6.474  12.694  17.847  0.00  0.00    +0.000 C 
BRANCH  17  18
ATOM     18  O   UNL     1      -6.973  11.447  17.683  0.00  0.00    +0.000 OA
ATOM     19  H   UNL     1      -7.782  11.384  17.142  0.00  0.00    +0.000 HD
ENDBRANCH  17  18
ENDBRANCH   7  17
ENDBRANCH   1  11
BRANCH   4  20
ATOM     20  O   UNL     1       2.037   8.281  19.720  0.00  0.00    +0.000 OA
BRANCH  20  21
ATOM     21  C   UNL     1       2.572   7.374  18.577  0.00  0.00    +0.000 C 
BRANCH  21  22
ATOM     22  C   UNL     1       2.918   5.941  19.048  0.00  0.00    +0.000 A 
ATOM     23  C   UNL     1       4.237   6.005  19.391  0.00  0.00    +0.000 A 
ATOM     24  C   UNL     1       4.952   5.089  18.720  0.00  0.00    +0.000 A 
ATOM     25  N   UNL     1       4.731   3.960  19.355  0.00  0.00    +0.000 NA
ATOM     26  C   UNL     1       3.464   3.577  19.242  0.00  0.00    +0.000 A 
ATOM     27  C   UNL     1       3.392   2.200  19.143  0.00  0.00    +0.000 A 
ATOM     28  C   UNL     1       2.231   1.563  18.770  0.00  0.00    +0.000 A 
ATOM     29  C   UNL     1       1.103   2.345  18.592  0.00  0.00    +0.000 A 
ATOM     30  C   UNL     1       1.161   3.780  18.696  0.00  0.00    +0.000 A 
ATOM     31  C   UNL     1       2.399   4.514  18.992  0.00  0.00    +0.000 A 
BRANCH  24  32
ATOM     32  C   UNL     1       4.916   4.836  17.195  0.00  0.00    +0.000 A 
ATOM     33  C   UNL     1       5.274   3.642  16.520  0.00  0.00    +0.000 A 
ATOM     34  C   UNL     1       5.858   3.678  15.241  0.00  0.00    +0.000 A 
ATOM     35  C   UNL     1       6.042   4.897  14.598  0.00  0.00    +0.000 A 
ATOM     36  C   UNL     1       5.546   6.056  15.177  0.00  0.00    +0.000 A 
ATOM     37  C   UNL     1       4.932   6.009  16.428  0.00  0.00    +0.000 A 
ENDBRANCH  24  32
ENDBRANCH  21  22
ENDBRANCH  20  21
ENDBRANCH   4  20
TORSDOF 7
ENDMDL
MODEL 6
REMARK VINA RESULT:      -9.6      6.453      9.074
REMARK  Name = 
REMARK  7 active torsions:
REMARK  status: ('A' for Active; 'I' for Inactive)
REMARK    1  A    between atoms: C_2  and  O_3
REMARK    2  A    between atoms: C_2  and  C_4
REMARK    3  A    between atoms: C_8  and  C_9
REMARK    4  A    between atoms: C_12  and  O_13
REMARK    5  A    between atoms: O_13  and  C_14
REMARK    6  A    between atoms: C_14  and  C_15
REMARK    7  A    between atoms: C_17  and  C_18
REMARK                            x       y       z     vdW  Elec       q    Type
REMARK                         _______ _______ _______ _____ _____    ______ ____
ROOT
ATOM      1  C   UNL     1       3.697   5.364  18.994  0.00  0.00    +0.000 A 
ATOM      2  C   UNL     1       3.356   6.684  18.625  0.00  0.00    +0.000 A 
ATOM      3  C   UNL     1       2.365   7.449  19.341  0.00  0.00    +0.000 A 
ATOM      4  C   UNL     1       1.653   6.934  20.451  0.00  0.00    +0.000 A 
ATOM      5  C   UNL     1       2.000   5.636  20.806  0.00  0.00    +0.000 A 
ATOM      6  C   UNL     1       2.977   4.866  20.098  0.00  0.00    +0.000 A 
ENDROOT
BRANCH   1  11
ATOM      7  C   UNL     1       6.854   4.256  14.977  0.00  0.00    +0.000 C 
ATOM      8  C   UNL     1       6.910   5.705  15.370  0.00  0.00    +0.000 C 
ATOM      9  C   UNL     1       6.307   4.697  16.343  0.00  0.00    +0.000 C 
ATOM     10  C   UNL     1       4.806   4.764  16.655  0.00  0.00    +0.000 C 
ATOM     11  C   UNL     1       4.730   4.533  18.194  0.00  0.00    +0.000 C 
ATOM     12  N   UNL     1       6.131   4.606  18.635  0.00  0.00    +0.000 N 
ATOM     13  C   UNL     1       7.032   4.424  17.629  0.00  0.00    +0.000 C 
ATOM     14  O   UNL     1       8.227   4.177  17.703  0.00  0.00    +0.000 OA
ATOM     15  H   UNL     1       6.410   4.297  19.554  0.00  0.00    +0.000 HD
BRANCH   7  17
ATOM     16  O   UNL     1       4.926   4.453  13.588  0.00  0.00    +0.000 OA
ATOM     17  C   UNL     1       5.975   3.882  13.837  0.00  0.00    +0.000 C 
BRANCH  17  18
ATOM     18  O   UNL     1       6.497   2.935  13.023  0.00  0.00    +0.000 OA
ATOM     19  H   UNL     1       6.199   2.022  13.192  0.00  0.00    +0.000 HD
ENDBRANCH  17  18
ENDBRANCH   7  17
ENDBRANCH   1  11
BRANCH   4  20
ATOM     20  O   UNL     1       0.687   7.727  21.077  0.00  0.00    +0.000 OA
BRANCH  20  21
ATOM     21  C   UNL     1       0.843   9.210  21.519  0.00  0.00    +0.000 C 
BRANCH  21  22
ATOM     22  C   UNL     1       0.492  10.219  20.400  0.00  0.00    +0.000 A 
ATOM     23  C   UNL     1       0.893  11.426  20.892  0.00  0.00    +0.000 A 
ATOM     24  C   UNL     1      -0.122  12.305  20.893  0.00  0.00    +0.000 A 
ATOM     25  N   UNL     1      -0.207  12.719  19.648  0.00  0.00    +0.000 NA
ATOM     26  C   UNL     1      -0.582  11.740  18.832  0.00  0.00    +0.000 A 
ATOM     27  C   UNL     1      -1.408  12.238  17.842  0.00  0.00    +0.000 A 
ATOM     28  C   UNL     1      -2.133  11.406  17.021  0.00  0.00    +0.000 A 
ATOM     29  C   UNL     1      -1.930  10.044  17.153  0.00  0.00    +0.000 A 
ATOM     30  C   UNL     1      -1.069   9.509  18.176  0.00  0.00    +0.000 A 
ATOM     31  C   UNL     1      -0.352  10.353  19.143  0.00  0.00    +0.000 A 
BRANCH  24  32
ATOM     32  C   UNL     1      -1.543  12.063  21.451  0.00  0.00    +0.000 A 
ATOM     33  C   UNL     1      -2.761  12.572  20.933  0.00  0.00    +0.000 A 
ATOM     34  C   UNL     1      -3.833  12.896  21.784  0.00  0.00    +0.000 A 
ATOM     35  C   UNL     1      -3.725  12.668  23.151  0.00  0.00    +0.000 A 
ATOM     36  C   UNL     1      -2.604  12.019  23.648  0.00  0.00    +0.000 A 
ATOM     37  C   UNL     1      -1.561  11.663  22.794  0.00  0.00    +0.000 A 
ENDBRANCH  24  32
ENDBRANCH  21  22
ENDBRANCH  20  21
ENDBRANCH   4  20
TORSDOF 7
ENDMDL
MODEL 7
REMARK VINA RESULT:      -9.5      7.255     11.414
REMARK  Name = 
REMARK  7 active torsions:
REMARK  status: ('A' for Active; 'I' for Inactive)
REMARK    1  A    between atoms: C_2  and  O_3
REMARK    2  A    between atoms: C_2  and  C_4
REMARK    3  A    between atoms: C_8  and  C_9
REMARK    4  A    between atoms: C_12  and  O_13
REMARK    5  A    between atoms: O_13  and  C_14
REMARK    6  A    between atoms: C_14  and  C_15
REMARK    7  A    between atoms: C_17  and  C_18
REMARK                            x       y       z     vdW  Elec       q    Type
REMARK                         _______ _______ _______ _____ _____    ______ ____
ROOT
ATOM      1  C   UNL     1      -0.651  11.228  21.835  0.00  0.00    +0.000 A 
ATOM      2  C   UNL     1      -0.103  11.032  20.548  0.00  0.00    +0.000 A 
ATOM      3  C   UNL     1       0.788   9.937  20.251  0.00  0.00    +0.000 A 
ATOM      4  C   UNL     1       1.190   8.991  21.224  0.00  0.00    +0.000 A 
ATOM      5  C   UNL     1       0.642   9.193  22.485  0.00  0.00    +0.000 A 
ATOM      6  C   UNL     1      -0.237  10.280  22.792  0.00  0.00    +0.000 A 
ENDROOT
BRANCH   1  11
ATOM      7  C   UNL     1      -4.887  13.628  23.740  0.00  0.00    +0.000 C 
ATOM      8  C   UNL     1      -4.358  12.571  24.668  0.00  0.00    +0.000 C 
ATOM      9  C   UNL     1      -3.462  13.086  23.547  0.00  0.00    +0.000 C 
ATOM     10  C   UNL     1      -3.082  12.141  22.399  0.00  0.00    +0.000 C 
ATOM     11  C   UNL     1      -1.571  12.431  22.156  0.00  0.00    +0.000 C 
ATOM     12  N   UNL     1      -1.184  13.282  23.292  0.00  0.00    +0.000 N 
ATOM     13  C   UNL     1      -2.240  13.876  23.915  0.00  0.00    +0.000 C 
ATOM     14  O   UNL     1      -2.242  14.813  24.701  0.00  0.00    +0.000 OA
ATOM     15  H   UNL     1      -0.313  13.789  23.297  0.00  0.00    +0.000 HD
BRANCH   7  17
ATOM     16  O   UNL     1      -6.564  12.172  22.874  0.00  0.00    +0.000 OA
ATOM     17  C   UNL     1      -6.019  13.263  22.848  0.00  0.00    +0.000 C 
BRANCH  17  18
ATOM     18  O   UNL     1      -6.478  14.285  22.089  0.00  0.00    +0.000 OA
ATOM     19  H   UNL     1      -7.221  14.069  21.494  0.00  0.00    +0.000 HD
ENDBRANCH  17  18
ENDBRANCH   7  17
ENDBRANCH   1  11
BRANCH   4  20
ATOM     20  O   UNL     1       2.080   7.973  20.868  0.00  0.00    +0.000 OA
BRANCH  20  21
ATOM     21  C   UNL     1       2.111   7.194  19.523  0.00  0.00    +0.000 C 
BRANCH  21  22
ATOM     22  C   UNL     1       2.543   5.717  19.684  0.00  0.00    +0.000 A 
ATOM     23  C   UNL     1       3.875   5.781  19.970  0.00  0.00    +0.000 A 
ATOM     24  C   UNL     1       4.588   5.053  19.096  0.00  0.00    +0.000 A 
ATOM     25  N   UNL     1       4.452   3.811  19.505  0.00  0.00    +0.000 NA
ATOM     26  C   UNL     1       3.197   3.392  19.380  0.00  0.00    +0.000 A 
ATOM     27  C   UNL     1       3.177   2.059  19.015  0.00  0.00    +0.000 A 
ATOM     28  C   UNL     1       2.024   1.448  18.579  0.00  0.00    +0.000 A 
ATOM     29  C   UNL     1       0.856   2.189  18.613  0.00  0.00    +0.000 A 
ATOM     30  C   UNL     1       0.860   3.577  18.996  0.00  0.00    +0.000 A 
ATOM     31  C   UNL     1       2.082   4.303  19.372  0.00  0.00    +0.000 A 
BRANCH  24  32
ATOM     32  C   UNL     1       4.476   5.101  17.555  0.00  0.00    +0.000 A 
ATOM     33  C   UNL     1       4.709   4.036  16.649  0.00  0.00    +0.000 A 
ATOM     34  C   UNL     1       5.246   4.274  15.372  0.00  0.00    +0.000 A 
ATOM     35  C   UNL     1       5.506   5.576  14.961  0.00  0.00    +0.000 A 
ATOM     36  C   UNL     1       5.129   6.636  15.774  0.00  0.00    +0.000 A 
ATOM     37  C   UNL     1       4.559   6.395  17.024  0.00  0.00    +0.000 A 
ENDBRANCH  24  32
ENDBRANCH  21  22
ENDBRANCH  20  21
ENDBRANCH   4  20
TORSDOF 7
ENDMDL
MODEL 8
REMARK VINA RESULT:      -9.4      7.205     11.166
REMARK  Name = 
REMARK  7 active torsions:
REMARK  status: ('A' for Active; 'I' for Inactive)
REMARK    1  A    between atoms: C_2  and  O_3
REMARK    2  A    between atoms: C_2  and  C_4
REMARK    3  A    between atoms: C_8  and  C_9
REMARK    4  A    between atoms: C_12  and  O_13
REMARK    5  A    between atoms: O_13  and  C_14
REMARK    6  A    between atoms: C_14  and  C_15
REMARK    7  A    between atoms: C_17  and  C_18
REMARK                            x       y       z     vdW  Elec       q    Type
REMARK                         _______ _______ _______ _____ _____    ______ ____
ROOT
ATOM      1  C   UNL     1      -1.189  11.376  19.917  0.00  0.00    +0.000 A 
ATOM      2  C   UNL     1      -0.339  10.783  20.878  0.00  0.00    +0.000 A 
ATOM      3  C   UNL     1       0.748   9.911  20.507  0.00  0.00    +0.000 A 
ATOM      4  C   UNL     1       1.036   9.574  19.163  0.00  0.00    +0.000 A 
ATOM      5  C   UNL     1       0.197  10.166  18.228  0.00  0.00    +0.000 A 
ATOM      6  C   UNL     1      -0.890  11.026  18.586  0.00  0.00    +0.000 A 
ENDROOT
BRANCH   1  11
ATOM      7  C   UNL     1      -4.333  13.931  23.221  0.00  0.00    +0.000 C 
ATOM      8  C   UNL     1      -2.882  14.064  23.588  0.00  0.00    +0.000 C 
ATOM      9  C   UNL     1      -3.250  13.584  22.188  0.00  0.00    +0.000 C 
ATOM     10  C   UNL     1      -2.921  12.142  21.781  0.00  0.00    +0.000 C 
ATOM     11  C   UNL     1      -2.381  12.275  20.326  0.00  0.00    +0.000 C 
ATOM     12  N   UNL     1      -2.219  13.724  20.137  0.00  0.00    +0.000 N 
ATOM     13  C   UNL     1      -2.932  14.475  21.022  0.00  0.00    +0.000 C 
ATOM     14  O   UNL     1      -3.209  15.665  20.973  0.00  0.00    +0.000 OA
ATOM     15  H   UNL     1      -2.073  14.122  19.221  0.00  0.00    +0.000 HD
BRANCH   7  17
ATOM     16  O   UNL     1      -4.655  12.121  24.739  0.00  0.00    +0.000 OA
ATOM     17  C   UNL     1      -5.135  12.897  23.930  0.00  0.00    +0.000 C 
BRANCH  17  18
ATOM     18  O   UNL     1      -6.465  12.970  23.694  0.00  0.00    +0.000 OA
ATOM     19  H   UNL     1      -6.921  12.116  23.576  0.00  0.00    +0.000 HD
ENDBRANCH  17  18
ENDBRANCH   7  17
ENDBRANCH   1  11
BRANCH   4  20
ATOM     20  O   UNL     1       2.091   8.699  18.884  0.00  0.00    +0.000 OA
BRANCH  20  21
ATOM     21  C   UNL     1       2.045   7.453  17.955  0.00  0.00    +0.000 C 
BRANCH  21  22
ATOM     22  C   UNL     1       2.530   6.158  18.650  0.00  0.00    +0.000 A 
ATOM     23  C   UNL     1       3.793   6.451  19.071  0.00  0.00    +0.000 A 
ATOM     24  C   UNL     1       4.678   5.564  18.589  0.00  0.00    +0.000 A 
ATOM     25  N   UNL     1       4.550   4.509  19.362  0.00  0.00    +0.000 NA
ATOM     26  C   UNL     1       3.357   3.940  19.217  0.00  0.00    +0.000 A 
ATOM     27  C   UNL     1       3.473   2.566  19.311  0.00  0.00    +0.000 A 
ATOM     28  C   UNL     1       2.442   1.729  18.952  0.00  0.00    +0.000 A 
ATOM     29  C   UNL     1       1.243   2.314  18.586  0.00  0.00    +0.000 A 
ATOM     30  C   UNL     1       1.105   3.744  18.488  0.00  0.00    +0.000 A 
ATOM     31  C   UNL     1       2.208   4.677  18.762  0.00  0.00    +0.000 A 
BRANCH  24  32
ATOM     32  C   UNL     1       4.811   5.109  17.117  0.00  0.00    +0.000 A 
ATOM     33  C   UNL     1       5.188   3.824  16.652  0.00  0.00    +0.000 A 
ATOM     34  C   UNL     1       5.920   3.668  15.462  0.00  0.00    +0.000 A 
ATOM     35  C   UNL     1       6.237   4.783  14.693  0.00  0.00    +0.000 A 
ATOM     36  C   UNL     1       5.733   6.025  15.052  0.00  0.00    +0.000 A 
ATOM     37  C   UNL     1       4.974   6.167  16.213  0.00  0.00    +0.000 A 
ENDBRANCH  24  32
ENDBRANCH  21  22
ENDBRANCH  20  21
ENDBRANCH   4  20
TORSDOF 7
ENDMDL
MODEL 9
REMARK VINA RESULT:      -9.4      6.806      8.570
REMARK  Name = 
REMARK  7 active torsions:
REMARK  status: ('A' for Active; 'I' for Inactive)
REMARK    1  A    between atoms: C_2  and  O_3
REMARK    2  A    between atoms: C_2  and  C_4
REMARK    3  A    between atoms: C_8  and  C_9
REMARK    4  A    between atoms: C_12  and  O_13
REMARK    5  A    between atoms: O_13  and  C_14
REMARK    6  A    between atoms: C_14  and  C_15
REMARK    7  A    between atoms: C_17  and  C_18
REMARK                            x       y       z     vdW  Elec       q    Type
REMARK                         _______ _______ _______ _____ _____    ______ ____
ROOT
ATOM      1  C   UNL     1       2.578   7.233  18.733  0.00  0.00    +0.000 A 
ATOM      2  C   UNL     1       2.294   8.290  17.839  0.00  0.00    +0.000 A 
ATOM      3  C   UNL     1       1.544   9.454  18.242  0.00  0.00    +0.000 A 
ATOM      4  C   UNL     1       1.026   9.619  19.549  0.00  0.00    +0.000 A 
ATOM      5  C   UNL     1       1.316   8.575  20.419  0.00  0.00    +0.000 A 
ATOM      6  C   UNL     1       2.053   7.412  20.028  0.00  0.00    +0.000 A 
ENDROOT
BRANCH   1  11
ATOM      7  C   UNL     1       6.713   4.479  17.104  0.00  0.00    +0.000 C 
ATOM      8  C   UNL     1       7.065   5.459  18.186  0.00  0.00    +0.000 C 
ATOM      9  C   UNL     1       5.600   5.097  17.964  0.00  0.00    +0.000 C 
ATOM     10  C   UNL     1       4.637   6.167  17.434  0.00  0.00    +0.000 C 
ATOM     11  C   UNL     1       3.346   5.966  18.282  0.00  0.00    +0.000 C 
ATOM     12  N   UNL     1       3.754   5.023  19.334  0.00  0.00    +0.000 N 
ATOM     13  C   UNL     1       4.885   4.326  19.036  0.00  0.00    +0.000 C 
ATOM     14  O   UNL     1       5.328   3.316  19.564  0.00  0.00    +0.000 OA
ATOM     15  H   UNL     1       3.074   4.555  19.914  0.00  0.00    +0.000 HD
BRANCH   7  17
ATOM     16  O   UNL     1       7.604   5.877  15.390  0.00  0.00    +0.000 OA
ATOM     17  C   UNL     1       6.964   4.884  15.695  0.00  0.00    +0.000 C 
BRANCH  17  18
ATOM     18  O   UNL     1       6.529   3.991  14.776  0.00  0.00    +0.000 OA
ATOM     19  H   UNL     1       7.197   3.688  14.132  0.00  0.00    +0.000 HD
ENDBRANCH  17  18
ENDBRANCH   7  17
ENDBRANCH   1  11
BRANCH   4  20
ATOM     20  O   UNL     1       0.284  10.764  19.856  0.00  0.00    +0.000 OA
BRANCH  20  21
ATOM     21  C   UNL     1       0.030  11.985  18.927  0.00  0.00    +0.000 C 
BRANCH  21  22
ATOM     22  C   UNL     1       0.470  13.329  19.555  0.00  0.00    +0.000 A 
ATOM     23  C   UNL     1       1.099  12.975  20.712  0.00  0.00    +0.000 A 
ATOM     24  C   UNL     1       0.541  13.589  21.768  0.00  0.00    +0.000 A 
ATOM     25  N   UNL     1       1.036  14.806  21.746  0.00  0.00    +0.000 NA
ATOM     26  C   UNL     1       0.622  15.482  20.679  0.00  0.00    +0.000 A 
ATOM     27  C   UNL     1       0.419  16.809  21.009  0.00  0.00    +0.000 A 
ATOM     28  C   UNL     1      -0.243  17.669  20.163  0.00  0.00    +0.000 A 
ATOM     29  C   UNL     1      -0.612  17.184  18.921  0.00  0.00    +0.000 A 
ATOM     30  C   UNL     1      -0.403  15.805  18.561  0.00  0.00    +0.000 A 
ATOM     31  C   UNL     1       0.207  14.823  19.469  0.00  0.00    +0.000 A 
BRANCH  24  32
ATOM     32  C   UNL     1      -0.967  13.653  22.100  0.00  0.00    +0.000 A 
ATOM     33  C   UNL     1      -1.660  14.728  22.711  0.00  0.00    +0.000 A 
ATOM     34  C   UNL     1      -2.756  14.495  23.562  0.00  0.00    +0.000 A 
ATOM     35  C   UNL     1      -3.207  13.197  23.770  0.00  0.00    +0.000 A 
ATOM     36  C   UNL     1      -2.642  12.154  23.050  0.00  0.00    +0.000 A 
ATOM     37  C   UNL     1      -1.582  12.397  22.177  0.00  0.00    +0.000 A 
ENDBRANCH  24  32
ENDBRANCH  21  22
ENDBRANCH  20  21
ENDBRANCH   4  20
TORSDOF 7
ENDMDL
