MODEL 1
REMARK VINA RESULT:      -9.5      0.000      0.000
REMARK  Name = 
REMARK  5 active torsions:
REMARK  status: ('A' for Active; 'I' for Inactive)
REMARK    1  A    between atoms: N_3  and  C_4
REMARK    2  A    between atoms: C_4  and  C_5
REMARK    3  A    between atoms: C_9  and  C_10
REMARK    4  A    between atoms: C_14  and  C_15
REMARK    5  A    between atoms: C_24  and  O_25
REMARK                            x       y       z     vdW  Elec       q    Type
REMARK                         _______ _______ _______ _____ _____    ______ ____
ROOT
ATOM      1  C   UNL     1      -0.740  11.472  21.943  0.00  0.00    +0.000 A 
ATOM      2  C   UNL     1      -0.740  10.854  23.195  0.00  0.00    +0.000 A 
ATOM      3  C   UNL     1      -0.113   9.622  23.360  0.00  0.00    +0.000 A 
ATOM      4  C   UNL     1       0.539   9.014  22.281  0.00  0.00    +0.000 A 
ATOM      5  C   UNL     1       0.546   9.594  20.998  0.00  0.00    +0.000 A 
ATOM      6  C   UNL     1      -0.161  10.802  20.853  0.00  0.00    +0.000 A 
ENDROOT
BRANCH   5   7
ATOM      7  C   UNL     1       1.331   8.993  19.880  0.00  0.00    +0.000 A 
ATOM      8  C   UNL     1       1.695   9.774  18.765  0.00  0.00    +0.000 A 
ATOM      9  C   UNL     1       2.320   9.216  17.646  0.00  0.00    +0.000 A 
ATOM     10  C   UNL     1       2.639   7.861  17.624  0.00  0.00    +0.000 A 
ATOM     11  C   UNL     1       2.351   7.042  18.722  0.00  0.00    +0.000 A 
ATOM     12  C   UNL     1       1.679   7.620  19.828  0.00  0.00    +0.000 A 
BRANCH  11  13
ATOM     13  C   UNL     1       2.694   5.603  18.696  0.00  0.00    +0.000 A 
ATOM     14  C   UNL     1       2.200   4.690  17.831  0.00  0.00    +0.000 A 
ATOM     15  C   UNL     1       2.842   3.467  18.178  0.00  0.00    +0.000 A 
ATOM     16  C   UNL     1       2.829   2.204  17.749  0.00  0.00    +0.000 A 
ATOM     17  N   UNL     1       3.619   1.248  18.347  0.00  0.00    +0.000 N 
ATOM     18  C   UNL     1       4.447   1.551  19.402  0.00  0.00    +0.000 A 
ATOM     19  C   UNL     1       4.564   2.782  19.931  0.00  0.00    +0.000 A 
ATOM     20  C   UNL     1       3.731   3.826  19.305  0.00  0.00    +0.000 A 
ATOM     21  N   UNL     1       3.646   5.094  19.597  0.00  0.00    +0.000 NA
ATOM     22  H   UNL     1       3.589   0.296  17.998  0.00  0.00    +0.000 HD
ENDBRANCH  11  13
BRANCH  12  23
ATOM     23  O   UNL     1       1.319   6.812  20.888  0.00  0.00    +0.000 OA
ATOM     24  H   UNL     1       1.968   6.966  21.608  0.00  0.00    +0.000 HD
ENDBRANCH  12  23
ENDBRANCH   5   7
BRANCH   1  25
ATOM     25  C   UNL     1      -1.341  12.839  21.742  0.00  0.00    +0.000 C 
BRANCH  25  28
ATOM     26  O   UNL     1      -3.477  12.950  23.607  0.00  0.00    +0.000 OA
ATOM     27  C   UNL     1      -3.708  12.815  22.407  0.00  0.00    +0.000 C 
ATOM     28  N   UNL     1      -2.742  12.747  21.462  0.00  0.00    +0.000 N 
ATOM     29  N   UNL     1      -4.998  12.716  21.973  0.00  0.00    +0.000 N 
ATOM     30  C   UNL     1      -5.455  12.427  20.682  0.00  0.00    +0.000 A 
ATOM     31  C   UNL     1      -6.822  12.267  20.491  0.00  0.00    +0.000 A 
ATOM     32  C   UNL     1      -7.283  11.891  19.230  0.00  0.00    +0.000 A 
ATOM     33  C   UNL     1      -6.373  11.692  18.199  0.00  0.00    +0.000 A 
ATOM     34  C   UNL     1      -5.035  11.904  18.465  0.00  0.00    +0.000 A 
ATOM     35  N   UNL     1      -4.567  12.273  19.676  0.00  0.00    +0.000 NA
ATOM     36  H   UNL     1      -3.059  12.746  20.496  0.00  0.00    +0.000 HD
ATOM     37  H   UNL     1      -5.673  12.784  22.720  0.00  0.00    +0.000 HD
ENDBRANCH  25  28
ENDBRANCH   1  25
TORSDOF 5
ENDMDL
MODEL 2
REMARK VINA RESULT:      -9.4      3.228     10.534
REMARK  Name = 
REMARK  5 active torsions:
REMARK  status: ('A' for Active; 'I' for Inactive)
REMARK    1  A    between atoms: N_3  and  C_4
REMARK    2  A    between atoms: C_4  and  C_5
REMARK    3  A    between atoms: C_9  and  C_10
REMARK    4  A    between atoms: C_14  and  C_15
REMARK    5  A    between atoms: C_24  and  O_25
REMARK                            x       y       z     vdW  Elec       q    Type
REMARK                         _______ _______ _______ _____ _____    ______ ____
ROOT
ATOM      1  C   UNL     1       4.019   4.120  19.919  0.00  0.00    +0.000 A 
ATOM      2  C   UNL     1       2.983   3.237  20.227  0.00  0.00    +0.000 A 
ATOM      3  C   UNL     1       1.666   3.687  20.229  0.00  0.00    +0.000 A 
ATOM      4  C   UNL     1       1.376   5.015  19.897  0.00  0.00    +0.000 A 
ATOM      5  C   UNL     1       2.392   5.943  19.599  0.00  0.00    +0.000 A 
ATOM      6  C   UNL     1       3.715   5.470  19.680  0.00  0.00    +0.000 A 
ENDROOT
BRANCH   5   7
ATOM      7  C   UNL     1       2.069   7.327  19.144  0.00  0.00    +0.000 A 
ATOM      8  C   UNL     1       2.419   7.751  17.847  0.00  0.00    +0.000 A 
ATOM      9  C   UNL     1       2.245   9.074  17.430  0.00  0.00    +0.000 A 
ATOM     10  C   UNL     1       1.676  10.010  18.289  0.00  0.00    +0.000 A 
ATOM     11  C   UNL     1       1.260   9.639  19.574  0.00  0.00    +0.000 A 
ATOM     12  C   UNL     1       1.484   8.304  19.989  0.00  0.00    +0.000 A 
BRANCH  11  13
ATOM     13  C   UNL     1       0.652  10.637  20.482  0.00  0.00    +0.000 A 
ATOM     14  C   UNL     1       1.001  11.940  20.570  0.00  0.00    +0.000 A 
ATOM     15  C   UNL     1       0.126  12.491  21.549  0.00  0.00    +0.000 A 
ATOM     16  C   UNL     1      -0.082  13.684  22.108  0.00  0.00    +0.000 A 
ATOM     17  N   UNL     1      -1.062  13.856  23.059  0.00  0.00    +0.000 N 
ATOM     18  C   UNL     1      -1.861  12.815  23.470  0.00  0.00    +0.000 A 
ATOM     19  C   UNL     1      -1.765  11.564  22.986  0.00  0.00    +0.000 A 
ATOM     20  C   UNL     1      -0.726  11.354  21.962  0.00  0.00    +0.000 A 
ATOM     21  N   UNL     1      -0.415  10.264  21.318  0.00  0.00    +0.000 NA
ATOM     22  H   UNL     1      -1.197  14.775  23.465  0.00  0.00    +0.000 HD
ENDBRANCH  11  13
BRANCH  12  23
ATOM     23  O   UNL     1       1.149   7.939  21.277  0.00  0.00    +0.000 OA
ATOM     24  H   UNL     1       0.752   7.042  21.235  0.00  0.00    +0.000 HD
ENDBRANCH  12  23
ENDBRANCH   5   7
BRANCH   1  25
ATOM     25  C   UNL     1       5.449   3.653  19.833  0.00  0.00    +0.000 C 
BRANCH  25  28
ATOM     26  O   UNL     1       7.694   5.328  19.375  0.00  0.00    +0.000 OA
ATOM     27  C   UNL     1       7.107   4.804  18.428  0.00  0.00    +0.000 C 
ATOM     28  N   UNL     1       6.028   4.001  18.570  0.00  0.00    +0.000 N 
ATOM     29  N   UNL     1       7.538   5.034  17.154  0.00  0.00    +0.000 N 
ATOM     30  C   UNL     1       6.932   4.644  15.955  0.00  0.00    +0.000 A 
ATOM     31  C   UNL     1       7.494   5.085  14.763  0.00  0.00    +0.000 A 
ATOM     32  C   UNL     1       6.849   4.779  13.564  0.00  0.00    +0.000 A 
ATOM     33  C   UNL     1       5.672   4.042  13.588  0.00  0.00    +0.000 A 
ATOM     34  C   UNL     1       5.199   3.615  14.813  0.00  0.00    +0.000 A 
ATOM     35  N   UNL     1       5.808   3.895  15.984  0.00  0.00    +0.000 NA
ATOM     36  H   UNL     1       5.697   3.541  17.726  0.00  0.00    +0.000 HD
ATOM     37  H   UNL     1       8.351   5.630  17.113  0.00  0.00    +0.000 HD
ENDBRANCH  25  28
ENDBRANCH   1  25
TORSDOF 5
ENDMDL
MODEL 3
REMARK VINA RESULT:      -9.2      2.966      4.397
REMARK  Name = 
REMARK  5 active torsions:
REMARK  status: ('A' for Active; 'I' for Inactive)
REMARK    1  A    between atoms: N_3  and  C_4
REMARK    2  A    between atoms: C_4  and  C_5
REMARK    3  A    between atoms: C_9  and  C_10
REMARK    4  A    between atoms: C_14  and  C_15
REMARK    5  A    between atoms: C_24  and  O_25
REMARK                            x       y       z     vdW  Elec       q    Type
REMARK                         _______ _______ _______ _____ _____    ______ ____
ROOT
ATOM      1  C   UNL     1      -1.009  12.146  22.072  0.00  0.00    +0.000 A 
ATOM      2  C   UNL     1      -1.305  11.396  23.211  0.00  0.00    +0.000 A 
ATOM      3  C   UNL     1      -0.925  10.058  23.278  0.00  0.00    +0.000 A 
ATOM      4  C   UNL     1      -0.224   9.472  22.217  0.00  0.00    +0.000 A 
ATOM      5  C   UNL     1       0.077  10.187  21.043  0.00  0.00    +0.000 A 
ATOM      6  C   UNL     1      -0.389  11.514  20.982  0.00  0.00    +0.000 A 
ENDROOT
BRANCH   5   7
ATOM      7  C   UNL     1       0.914   9.588  19.962  0.00  0.00    +0.000 A 
ATOM      8  C   UNL     1       1.035  10.232  18.715  0.00  0.00    +0.000 A 
ATOM      9  C   UNL     1       1.708   9.642  17.641  0.00  0.00    +0.000 A 
ATOM     10  C   UNL     1       2.317   8.399  17.794  0.00  0.00    +0.000 A 
ATOM     11  C   UNL     1       2.277   7.731  19.024  0.00  0.00    +0.000 A 
ATOM     12  C   UNL     1       1.555   8.329  20.086  0.00  0.00    +0.000 A 
BRANCH  11  13
ATOM     13  C   UNL     1       2.929   6.412  19.184  0.00  0.00    +0.000 A 
ATOM     14  C   UNL     1       4.165   6.086  18.745  0.00  0.00    +0.000 A 
ATOM     15  C   UNL     1       4.357   4.735  19.154  0.00  0.00    +0.000 A 
ATOM     16  C   UNL     1       5.319   3.816  19.062  0.00  0.00    +0.000 A 
ATOM     17  N   UNL     1       5.151   2.562  19.602  0.00  0.00    +0.000 N 
ATOM     18  C   UNL     1       3.994   2.205  20.255  0.00  0.00    +0.000 A 
ATOM     19  C   UNL     1       2.948   3.032  20.426  0.00  0.00    +0.000 A 
ATOM     20  C   UNL     1       3.104   4.384  19.860  0.00  0.00    +0.000 A 
ATOM     21  N   UNL     1       2.270   5.386  19.883  0.00  0.00    +0.000 NA
ATOM     22  H   UNL     1       5.902   1.885  19.517  0.00  0.00    +0.000 HD
ENDBRANCH  11  13
BRANCH  12  23
ATOM     23  O   UNL     1       1.440   7.652  21.282  0.00  0.00    +0.000 OA
ATOM     24  H   UNL     1       2.331   7.311  21.515  0.00  0.00    +0.000 HD
ENDBRANCH  12  23
ENDBRANCH   5   7
BRANCH   1  25
ATOM     25  C   UNL     1      -1.337  13.614  21.992  0.00  0.00    +0.000 C 
BRANCH  25  28
ATOM     26  O   UNL     1      -1.909  15.955  20.494  0.00  0.00    +0.000 OA
ATOM     27  C   UNL     1      -0.814  15.405  20.389  0.00  0.00    +0.000 C 
ATOM     28  N   UNL     1      -0.474  14.284  21.066  0.00  0.00    +0.000 N 
ATOM     29  N   UNL     1       0.126  15.922  19.547  0.00  0.00    +0.000 N 
ATOM     30  C   UNL     1       1.363  15.373  19.193  0.00  0.00    +0.000 A 
ATOM     31  C   UNL     1       2.117  16.025  18.225  0.00  0.00    +0.000 A 
ATOM     32  C   UNL     1       3.310  15.441  17.798  0.00  0.00    +0.000 A 
ATOM     33  C   UNL     1       3.717  14.233  18.350  0.00  0.00    +0.000 A 
ATOM     34  C   UNL     1       2.925  13.668  19.329  0.00  0.00    +0.000 A 
ATOM     35  N   UNL     1       1.771  14.217  19.761  0.00  0.00    +0.000 NA
ATOM     36  H   UNL     1       0.494  13.984  20.981  0.00  0.00    +0.000 HD
ATOM     37  H   UNL     1      -0.181  16.761  19.079  0.00  0.00    +0.000 HD
ENDBRANCH  25  28
ENDBRANCH   1  25
TORSDOF 5
ENDMDL
MODEL 4
REMARK VINA RESULT:      -9.2      3.271     10.447
REMARK  Name = 
REMARK  5 active torsions:
REMARK  status: ('A' for Active; 'I' for Inactive)
REMARK    1  A    between atoms: N_3  and  C_4
REMARK    2  A    between atoms: C_4  and  C_5
REMARK    3  A    between atoms: C_9  and  C_10
REMARK    4  A    between atoms: C_14  and  C_15
REMARK    5  A    between atoms: C_24  and  O_25
REMARK                            x       y       z     vdW  Elec       q    Type
REMARK                         _______ _______ _______ _____ _____    ______ ____
ROOT
ATOM      1  C   UNL     1       3.598   3.714  20.116  0.00  0.00    +0.000 A 
ATOM      2  C   UNL     1       2.509   2.973  20.577  0.00  0.00    +0.000 A 
ATOM      3  C   UNL     1       1.256   3.571  20.679  0.00  0.00    +0.000 A 
ATOM      4  C   UNL     1       1.081   4.906  20.296  0.00  0.00    +0.000 A 
ATOM      5  C   UNL     1       2.156   5.695  19.844  0.00  0.00    +0.000 A 
ATOM      6  C   UNL     1       3.421   5.077  19.826  0.00  0.00    +0.000 A 
ENDROOT
BRANCH   5   7
ATOM      7  C   UNL     1       1.943   7.082  19.340  0.00  0.00    +0.000 A 
ATOM      8  C   UNL     1       2.384   7.448  18.053  0.00  0.00    +0.000 A 
ATOM      9  C   UNL     1       2.313   8.768  17.595  0.00  0.00    +0.000 A 
ATOM     10  C   UNL     1       1.759   9.759  18.399  0.00  0.00    +0.000 A 
ATOM     11  C   UNL     1       1.255   9.450  19.669  0.00  0.00    +0.000 A 
ATOM     12  C   UNL     1       1.376   8.115  20.128  0.00  0.00    +0.000 A 
BRANCH  11  13
ATOM     13  C   UNL     1       0.663  10.507  20.520  0.00  0.00    +0.000 A 
ATOM     14  C   UNL     1      -0.296  10.322  21.453  0.00  0.00    +0.000 A 
ATOM     15  C   UNL     1      -0.513  11.611  22.020  0.00  0.00    +0.000 A 
ATOM     16  C   UNL     1      -1.290  12.142  22.965  0.00  0.00    +0.000 A 
ATOM     17  N   UNL     1      -1.223  13.484  23.261  0.00  0.00    +0.000 N 
ATOM     18  C   UNL     1      -0.361  14.328  22.601  0.00  0.00    +0.000 A 
ATOM     19  C   UNL     1       0.482  13.927  21.633  0.00  0.00    +0.000 A 
ATOM     20  C   UNL     1       0.434  12.492  21.300  0.00  0.00    +0.000 A 
ATOM     21  N   UNL     1       1.134  11.827  20.423  0.00  0.00    +0.000 NA
ATOM     22  H   UNL     1      -1.826  13.859  23.985  0.00  0.00    +0.000 HD
ENDBRANCH  11  13
BRANCH  12  23
ATOM     23  O   UNL     1       0.954   7.807  21.405  0.00  0.00    +0.000 OA
ATOM     24  H   UNL     1       1.374   8.449  22.018  0.00  0.00    +0.000 HD
ENDBRANCH  12  23
ENDBRANCH   5   7
BRANCH   1  25
ATOM     25  C   UNL     1       4.951   3.082  19.921  0.00  0.00    +0.000 C 
BRANCH  25  28
ATOM     26  O   UNL     1       6.880   5.163  19.893  0.00  0.00    +0.000 OA
ATOM     27  C   UNL     1       6.533   4.625  18.843  0.00  0.00    +0.000 C 
ATOM     28  N   UNL     1       5.616   3.633  18.779  0.00  0.00    +0.000 N 
ATOM     29  N   UNL     1       7.078   5.035  17.661  0.00  0.00    +0.000 N 
ATOM     30  C   UNL     1       6.720   4.646  16.365  0.00  0.00    +0.000 A 
ATOM     31  C   UNL     1       7.341   5.279  15.295  0.00  0.00    +0.000 A 
ATOM     32  C   UNL     1       6.931   4.966  14.000  0.00  0.00    +0.000 A 
ATOM     33  C   UNL     1       5.921   4.030  13.809  0.00  0.00    +0.000 A 
ATOM     34  C   UNL     1       5.380   3.424  14.925  0.00  0.00    +0.000 A 
ATOM     35  N   UNL     1       5.765   3.708  16.186  0.00  0.00    +0.000 NA
ATOM     36  H   UNL     1       5.493   3.194  17.869  0.00  0.00    +0.000 HD
ATOM     37  H   UNL     1       7.761   5.768  17.773  0.00  0.00    +0.000 HD
ENDBRANCH  25  28
ENDBRANCH   1  25
TORSDOF 5
ENDMDL
MODEL 5
REMARK VINA RESULT:      -9.2      2.581      3.721
REMARK  Name = 
REMARK  5 active torsions:
REMARK  status: ('A' for Active; 'I' for Inactive)
REMARK    1  A    between atoms: N_3  and  C_4
REMARK    2  A    between atoms: C_4  and  C_5
REMARK    3  A    between atoms: C_9  and  C_10
REMARK    4  A    between atoms: C_14  and  C_15
REMARK    5  A    between atoms: C_24  and  O_25
REMARK                            x       y       z     vdW  Elec       q    Type
REMARK                         _______ _______ _______ _____ _____    ______ ____
ROOT
ATOM      1  C   UNL     1      -1.492  11.856  18.231  0.00  0.00    +0.000 A 
ATOM      2  C   UNL     1      -0.665  12.973  18.106  0.00  0.00    +0.000 A 
ATOM      3  C   UNL     1       0.672  12.892  18.487  0.00  0.00    +0.000 A 
ATOM      4  C   UNL     1       1.194  11.687  18.971  0.00  0.00    +0.000 A 
ATOM      5  C   UNL     1       0.389  10.542  19.131  0.00  0.00    +0.000 A 
ATOM      6  C   UNL     1      -0.973  10.684  18.806  0.00  0.00    +0.000 A 
ENDROOT
BRANCH   5   7
ATOM      7  C   UNL     1       0.974   9.234  19.548  0.00  0.00    +0.000 A 
ATOM      8  C   UNL     1       0.785   8.753  20.858  0.00  0.00    +0.000 A 
ATOM      9  C   UNL     1       1.419   7.596  21.319  0.00  0.00    +0.000 A 
ATOM     10  C   UNL     1       2.236   6.859  20.467  0.00  0.00    +0.000 A 
ATOM     11  C   UNL     1       2.424   7.255  19.137  0.00  0.00    +0.000 A 
ATOM     12  C   UNL     1       1.805   8.453  18.704  0.00  0.00    +0.000 A 
BRANCH  11  13
ATOM     13  C   UNL     1       3.290   6.466  18.234  0.00  0.00    +0.000 A 
ATOM     14  C   UNL     1       3.281   5.120  18.108  0.00  0.00    +0.000 A 
ATOM     15  C   UNL     1       4.256   4.836  17.110  0.00  0.00    +0.000 A 
ATOM     16  C   UNL     1       4.746   3.751  16.508  0.00  0.00    +0.000 A 
ATOM     17  N   UNL     1       5.722   3.860  15.544  0.00  0.00    +0.000 N 
ATOM     18  C   UNL     1       6.230   5.080  15.164  0.00  0.00    +0.000 A 
ATOM     19  C   UNL     1       5.824   6.252  15.682  0.00  0.00    +0.000 A 
ATOM     20  C   UNL     1       4.775   6.164  16.714  0.00  0.00    +0.000 A 
ATOM     21  N   UNL     1       4.189   7.123  17.376  0.00  0.00    +0.000 NA
ATOM     22  H   UNL     1       6.074   3.017  15.103  0.00  0.00    +0.000 HD
ENDBRANCH  11  13
BRANCH  12  23
ATOM     23  O   UNL     1       2.038   8.901  17.420  0.00  0.00    +0.000 OA
ATOM     24  H   UNL     1       2.408   9.808  17.487  0.00  0.00    +0.000 HD
ENDBRANCH  12  23
ENDBRANCH   5   7
BRANCH   1  25
ATOM     25  C   UNL     1      -2.923  11.882  17.760  0.00  0.00    +0.000 C 
BRANCH  25  28
ATOM     26  O   UNL     1      -5.741  12.192  17.640  0.00  0.00    +0.000 OA
ATOM     27  C   UNL     1      -5.162  12.204  18.725  0.00  0.00    +0.000 C 
ATOM     28  N   UNL     1      -3.822  12.070  18.858  0.00  0.00    +0.000 N 
ATOM     29  N   UNL     1      -5.878  12.370  19.873  0.00  0.00    +0.000 N 
ATOM     30  C   UNL     1      -5.396  12.545  21.175  0.00  0.00    +0.000 A 
ATOM     31  C   UNL     1      -6.312  12.808  22.185  0.00  0.00    +0.000 A 
ATOM     32  C   UNL     1      -5.838  13.073  23.470  0.00  0.00    +0.000 A 
ATOM     33  C   UNL     1      -4.470  13.063  23.710  0.00  0.00    +0.000 A 
ATOM     34  C   UNL     1      -3.629  12.760  22.658  0.00  0.00    +0.000 A 
ATOM     35  N   UNL     1      -4.066  12.496  21.409  0.00  0.00    +0.000 NA
ATOM     36  H   UNL     1      -3.472  11.986  19.809  0.00  0.00    +0.000 HD
ATOM     37  H   UNL     1      -6.871  12.454  19.712  0.00  0.00    +0.000 HD
ENDBRANCH  25  28
ENDBRANCH   1  25
TORSDOF 5
ENDMDL
MODEL 6
REMARK VINA RESULT:      -9.1      1.466      2.083
REMARK  Name = 
REMARK  5 active torsions:
REMARK  status: ('A' for Active; 'I' for Inactive)
REMARK    1  A    between atoms: N_3  and  C_4
REMARK    2  A    between atoms: C_4  and  C_5
REMARK    3  A    between atoms: C_9  and  C_10
REMARK    4  A    between atoms: C_14  and  C_15
REMARK    5  A    between atoms: C_24  and  O_25
REMARK                            x       y       z     vdW  Elec       q    Type
REMARK                         _______ _______ _______ _____ _____    ______ ____
ROOT
ATOM      1  C   UNL     1      -0.795  11.427  22.220  0.00  0.00    +0.000 A 
ATOM      2  C   UNL     1      -0.772  10.680  23.398  0.00  0.00    +0.000 A 
ATOM      3  C   UNL     1      -0.129   9.445  23.424  0.00  0.00    +0.000 A 
ATOM      4  C   UNL     1       0.516   8.963  22.279  0.00  0.00    +0.000 A 
ATOM      5  C   UNL     1       0.500   9.676  21.065  0.00  0.00    +0.000 A 
ATOM      6  C   UNL     1      -0.223  10.883  21.058  0.00  0.00    +0.000 A 
ENDROOT
BRANCH   5   7
ATOM      7  C   UNL     1       1.277   9.207  19.880  0.00  0.00    +0.000 A 
ATOM      8  C   UNL     1       1.580  10.096  18.830  0.00  0.00    +0.000 A 
ATOM      9  C   UNL     1       2.196   9.665  17.652  0.00  0.00    +0.000 A 
ATOM     10  C   UNL     1       2.566   8.331  17.503  0.00  0.00    +0.000 A 
ATOM     11  C   UNL     1       2.339   7.408  18.531  0.00  0.00    +0.000 A 
ATOM     12  C   UNL     1       1.676   7.859  19.699  0.00  0.00    +0.000 A 
BRANCH  11  13
ATOM     13  C   UNL     1       2.737   5.992  18.370  0.00  0.00    +0.000 A 
ATOM     14  C   UNL     1       3.841   5.551  17.726  0.00  0.00    +0.000 A 
ATOM     15  C   UNL     1       3.807   4.134  17.862  0.00  0.00    +0.000 A 
ATOM     16  C   UNL     1       4.562   3.100  17.486  0.00  0.00    +0.000 A 
ATOM     17  N   UNL     1       4.206   1.812  17.814  0.00  0.00    +0.000 N 
ATOM     18  C   UNL     1       3.068   1.536  18.535  0.00  0.00    +0.000 A 
ATOM     19  C   UNL     1       2.221   2.480  18.983  0.00  0.00    +0.000 A 
ATOM     20  C   UNL     1       2.581   3.870  18.649  0.00  0.00    +0.000 A 
ATOM     21  N   UNL     1       1.962   4.976  18.955  0.00  0.00    +0.000 NA
ATOM     22  H   UNL     1       4.801   1.046  17.515  0.00  0.00    +0.000 HD
ENDBRANCH  11  13
BRANCH  12  23
ATOM     23  O   UNL     1       1.376   6.949  20.692  0.00  0.00    +0.000 OA
ATOM     24  H   UNL     1       0.957   6.172  20.262  0.00  0.00    +0.000 HD
ENDBRANCH  12  23
ENDBRANCH   5   7
BRANCH   1  25
ATOM     25  C   UNL     1      -1.414  12.799  22.172  0.00  0.00    +0.000 C 
BRANCH  25  28
ATOM     26  O   UNL     1      -2.818  12.869  19.707  0.00  0.00    +0.000 OA
ATOM     27  C   UNL     1      -3.432  12.751  20.766  0.00  0.00    +0.000 C 
ATOM     28  N   UNL     1      -2.831  12.717  21.978  0.00  0.00    +0.000 N 
ATOM     29  N   UNL     1      -4.792  12.656  20.754  0.00  0.00    +0.000 N 
ATOM     30  C   UNL     1      -5.668  12.651  21.846  0.00  0.00    +0.000 A 
ATOM     31  C   UNL     1      -7.033  12.657  21.592  0.00  0.00    +0.000 A 
ATOM     32  C   UNL     1      -7.916  12.743  22.668  0.00  0.00    +0.000 A 
ATOM     33  C   UNL     1      -7.414  12.816  23.961  0.00  0.00    +0.000 A 
ATOM     34  C   UNL     1      -6.044  12.772  24.128  0.00  0.00    +0.000 A 
ATOM     35  N   UNL     1      -5.172  12.684  23.102  0.00  0.00    +0.000 NA
ATOM     36  H   UNL     1      -3.431  12.506  22.772  0.00  0.00    +0.000 HD
ATOM     37  H   UNL     1      -5.182  12.676  19.824  0.00  0.00    +0.000 HD
ENDBRANCH  25  28
ENDBRANCH   1  25
TORSDOF 5
ENDMDL
MODEL 7
REMARK VINA RESULT:      -9.1      2.482      4.053
REMARK  Name = 
REMARK  5 active torsions:
REMARK  status: ('A' for Active; 'I' for Inactive)
REMARK    1  A    between atoms: N_3  and  C_4
REMARK    2  A    between atoms: C_4  and  C_5
REMARK    3  A    between atoms: C_9  and  C_10
REMARK    4  A    between atoms: C_14  and  C_15
REMARK    5  A    between atoms: C_24  and  O_25
REMARK                            x       y       z     vdW  Elec       q    Type
REMARK                         _______ _______ _______ _____ _____    ______ ____
ROOT
ATOM      1  C   UNL     1      -0.992  11.472  21.843  0.00  0.00    +0.000 A 
ATOM      2  C   UNL     1      -0.985  10.883  23.109  0.00  0.00    +0.000 A 
ATOM      3  C   UNL     1      -0.306   9.685  23.313  0.00  0.00    +0.000 A 
ATOM      4  C   UNL     1       0.392   9.083  22.259  0.00  0.00    +0.000 A 
ATOM      5  C   UNL     1       0.394   9.633  20.963  0.00  0.00    +0.000 A 
ATOM      6  C   UNL     1      -0.365  10.804  20.778  0.00  0.00    +0.000 A 
ENDROOT
BRANCH   5   7
ATOM      7  C   UNL     1       1.224   9.044  19.872  0.00  0.00    +0.000 A 
ATOM      8  C   UNL     1       1.629   9.835  18.779  0.00  0.00    +0.000 A 
ATOM      9  C   UNL     1       2.301   9.289  17.680  0.00  0.00    +0.000 A 
ATOM     10  C   UNL     1       2.624   7.935  17.660  0.00  0.00    +0.000 A 
ATOM     11  C   UNL     1       2.295   7.106  18.740  0.00  0.00    +0.000 A 
ATOM     12  C   UNL     1       1.579   7.672  19.822  0.00  0.00    +0.000 A 
BRANCH  11  13
ATOM     13  C   UNL     1       2.644   5.668  18.716  0.00  0.00    +0.000 A 
ATOM     14  C   UNL     1       2.198   4.763  17.816  0.00  0.00    +0.000 A 
ATOM     15  C   UNL     1       2.825   3.538  18.183  0.00  0.00    +0.000 A 
ATOM     16  C   UNL     1       2.838   2.280  17.740  0.00  0.00    +0.000 A 
ATOM     17  N   UNL     1       3.599   1.319  18.367  0.00  0.00    +0.000 N 
ATOM     18  C   UNL     1       4.371   1.613  19.467  0.00  0.00    +0.000 A 
ATOM     19  C   UNL     1       4.456   2.839  20.014  0.00  0.00    +0.000 A 
ATOM     20  C   UNL     1       3.654   3.887  19.358  0.00  0.00    +0.000 A 
ATOM     21  N   UNL     1       3.550   5.152  19.659  0.00  0.00    +0.000 NA
ATOM     22  H   UNL     1       3.590   0.372  18.007  0.00  0.00    +0.000 HD
ENDBRANCH  11  13
BRANCH  12  23
ATOM     23  O   UNL     1       1.180   6.855  20.861  0.00  0.00    +0.000 OA
ATOM     24  H   UNL     1       1.757   7.054  21.630  0.00  0.00    +0.000 HD
ENDBRANCH  12  23
ENDBRANCH   5   7
BRANCH   1  25
ATOM     25  C   UNL     1      -1.652  12.804  21.600  0.00  0.00    +0.000 C 
BRANCH  25  28
ATOM     26  O   UNL     1      -2.257  15.403  20.635  0.00  0.00    +0.000 OA
ATOM     27  C   UNL     1      -1.149  14.908  20.431  0.00  0.00    +0.000 C 
ATOM     28  N   UNL     1      -0.793  13.674  20.855  0.00  0.00    +0.000 N 
ATOM     29  N   UNL     1      -0.210  15.613  19.736  0.00  0.00    +0.000 N 
ATOM     30  C   UNL     1       1.043  15.177  19.291  0.00  0.00    +0.000 A 
ATOM     31  C   UNL     1       1.794  16.036  18.500  0.00  0.00    +0.000 A 
ATOM     32  C   UNL     1       3.004  15.582  17.976  0.00  0.00    +0.000 A 
ATOM     33  C   UNL     1       3.430  14.290  18.259  0.00  0.00    +0.000 A 
ATOM     34  C   UNL     1       2.639  13.512  19.081  0.00  0.00    +0.000 A 
ATOM     35  N   UNL     1       1.468  13.933  19.602  0.00  0.00    +0.000 NA
ATOM     36  H   UNL     1       0.183  13.418  20.723  0.00  0.00    +0.000 HD
ATOM     37  H   UNL     1      -0.529  16.528  19.456  0.00  0.00    +0.000 HD
ENDBRANCH  25  28
ENDBRANCH   1  25
TORSDOF 5
ENDMDL
MODEL 8
REMARK VINA RESULT:      -9.1      2.217      3.074
REMARK  Name = 
REMARK  5 active torsions:
REMARK  status: ('A' for Active; 'I' for Inactive)
REMARK    1  A    between atoms: N_3  and  C_4
REMARK    2  A    between atoms: C_4  and  C_5
REMARK    3  A    between atoms: C_9  and  C_10
REMARK    4  A    between atoms: C_14  and  C_15
REMARK    5  A    between atoms: C_24  and  O_25
REMARK                            x       y       z     vdW  Elec       q    Type
REMARK                         _______ _______ _______ _____ _____    ______ ____
ROOT
ATOM      1  C   UNL     1      -2.527  12.387  21.233  0.00  0.00    +0.000 A 
ATOM      2  C   UNL     1      -2.246  12.532  22.592  0.00  0.00    +0.000 A 
ATOM      3  C   UNL     1      -1.107  11.941  23.132  0.00  0.00    +0.000 A 
ATOM      4  C   UNL     1      -0.229  11.224  22.310  0.00  0.00    +0.000 A 
ATOM      5  C   UNL     1      -0.485  11.038  20.938  0.00  0.00    +0.000 A 
ATOM      6  C   UNL     1      -1.684  11.586  20.445  0.00  0.00    +0.000 A 
ENDROOT
BRANCH   5   7
ATOM      7  C   UNL     1       0.506  10.364  20.049  0.00  0.00    +0.000 A 
ATOM      8  C   UNL     1       1.017  11.030  18.918  0.00  0.00    +0.000 A 
ATOM      9  C   UNL     1       1.849  10.389  17.996  0.00  0.00    +0.000 A 
ATOM     10  C   UNL     1       2.230   9.065  18.199  0.00  0.00    +0.000 A 
ATOM     11  C   UNL     1       1.798   8.364  19.332  0.00  0.00    +0.000 A 
ATOM     12  C   UNL     1       0.922   9.021  20.230  0.00  0.00    +0.000 A 
BRANCH  11  13
ATOM     13  C   UNL     1       2.209   6.958  19.546  0.00  0.00    +0.000 A 
ATOM     14  C   UNL     1       3.103   6.275  18.797  0.00  0.00    +0.000 A 
ATOM     15  C   UNL     1       3.185   4.989  19.402  0.00  0.00    +0.000 A 
ATOM     16  C   UNL     1       3.855   3.854  19.193  0.00  0.00    +0.000 A 
ATOM     17  N   UNL     1       3.678   2.768  20.020  0.00  0.00    +0.000 N 
ATOM     18  C   UNL     1       2.813   2.806  21.088  0.00  0.00    +0.000 A 
ATOM     19  C   UNL     1       2.081   3.884  21.418  0.00  0.00    +0.000 A 
ATOM     20  C   UNL     1       2.254   5.063  20.551  0.00  0.00    +0.000 A 
ATOM     21  N   UNL     1       1.690   6.236  20.634  0.00  0.00    +0.000 NA
ATOM     22  H   UNL     1       4.203   1.920  19.836  0.00  0.00    +0.000 HD
ENDBRANCH  11  13
BRANCH  12  23
ATOM     23  O   UNL     1       0.426   8.322  21.311  0.00  0.00    +0.000 OA
ATOM     24  H   UNL     1       1.133   7.715  21.620  0.00  0.00    +0.000 HD
ENDBRANCH  12  23
ENDBRANCH   5   7
BRANCH   1  25
ATOM     25  C   UNL     1      -3.708  13.073  20.598  0.00  0.00    +0.000 C 
BRANCH  25  28
ATOM     26  O   UNL     1      -6.084  13.304  19.063  0.00  0.00    +0.000 OA
ATOM     27  C   UNL     1      -5.097  12.736  18.597  0.00  0.00    +0.000 C 
ATOM     28  N   UNL     1      -3.935  12.582  19.272  0.00  0.00    +0.000 N 
ATOM     29  N   UNL     1      -5.149  12.213  17.337  0.00  0.00    +0.000 N 
ATOM     30  C   UNL     1      -4.191  11.424  16.690  0.00  0.00    +0.000 A 
ATOM     31  C   UNL     1      -4.505  10.907  15.440  0.00  0.00    +0.000 A 
ATOM     32  C   UNL     1      -3.597  10.046  14.823  0.00  0.00    +0.000 A 
ATOM     33  C   UNL     1      -2.406   9.731  15.466  0.00  0.00    +0.000 A 
ATOM     34  C   UNL     1      -2.159  10.314  16.693  0.00  0.00    +0.000 A 
ATOM     35  N   UNL     1      -3.020  11.153  17.305  0.00  0.00    +0.000 NA
ATOM     36  H   UNL     1      -3.157  12.194  18.744  0.00  0.00    +0.000 HD
ATOM     37  H   UNL     1      -6.035  12.367  16.881  0.00  0.00    +0.000 HD
ENDBRANCH  25  28
ENDBRANCH   1  25
TORSDOF 5
ENDMDL
MODEL 9
REMARK VINA RESULT:      -8.9      2.129      2.522
REMARK  Name = 
REMARK  5 active torsions:
REMARK  status: ('A' for Active; 'I' for Inactive)
REMARK    1  A    between atoms: N_3  and  C_4
REMARK    2  A    between atoms: C_4  and  C_5
REMARK    3  A    between atoms: C_9  and  C_10
REMARK    4  A    between atoms: C_14  and  C_15
REMARK    5  A    between atoms: C_24  and  O_25
REMARK                            x       y       z     vdW  Elec       q    Type
REMARK                         _______ _______ _______ _____ _____    ______ ____
ROOT
ATOM      1  C   UNL     1      -0.854  12.406  21.974  0.00  0.00    +0.000 A 
ATOM      2  C   UNL     1      -1.255  11.694  23.106  0.00  0.00    +0.000 A 
ATOM      3  C   UNL     1      -1.001  10.328  23.193  0.00  0.00    +0.000 A 
ATOM      4  C   UNL     1      -0.321   9.672  22.160  0.00  0.00    +0.000 A 
ATOM      5  C   UNL     1       0.084  10.348  20.993  0.00  0.00    +0.000 A 
ATOM      6  C   UNL     1      -0.257  11.711  20.909  0.00  0.00    +0.000 A 
ENDROOT
BRANCH   5   7
ATOM      7  C   UNL     1       0.899   9.668  19.945  0.00  0.00    +0.000 A 
ATOM      8  C   UNL     1       1.051  10.249  18.671  0.00  0.00    +0.000 A 
ATOM      9  C   UNL     1       1.702   9.583  17.628  0.00  0.00    +0.000 A 
ATOM     10  C   UNL     1       2.258   8.325  17.840  0.00  0.00    +0.000 A 
ATOM     11  C   UNL     1       2.187   7.715  19.098  0.00  0.00    +0.000 A 
ATOM     12  C   UNL     1       1.486   8.390  20.128  0.00  0.00    +0.000 A 
BRANCH  11  13
ATOM     13  C   UNL     1       2.783   6.379  19.320  0.00  0.00    +0.000 A 
ATOM     14  C   UNL     1       3.973   5.957  18.838  0.00  0.00    +0.000 A 
ATOM     15  C   UNL     1       4.124   4.631  19.337  0.00  0.00    +0.000 A 
ATOM     16  C   UNL     1       5.034   3.659  19.260  0.00  0.00    +0.000 A 
ATOM     17  N   UNL     1       4.839   2.458  19.903  0.00  0.00    +0.000 N 
ATOM     18  C   UNL     1       3.708   2.211  20.646  0.00  0.00    +0.000 A 
ATOM     19  C   UNL     1       2.715   3.102  20.814  0.00  0.00    +0.000 A 
ATOM     20  C   UNL     1       2.902   4.399  20.138  0.00  0.00    +0.000 A 
ATOM     21  N   UNL     1       2.120   5.443  20.132  0.00  0.00    +0.000 NA
ATOM     22  H   UNL     1       5.549   1.738  19.827  0.00  0.00    +0.000 HD
ENDBRANCH  11  13
BRANCH  12  23
ATOM     23  O   UNL     1       1.340   7.772  21.353  0.00  0.00    +0.000 OA
ATOM     24  H   UNL     1       0.961   6.881  21.191  0.00  0.00    +0.000 HD
ENDBRANCH  12  23
ENDBRANCH   5   7
BRANCH   1  25
ATOM     25  C   UNL     1      -1.044  13.897  21.877  0.00  0.00    +0.000 C 
BRANCH  25  28
ATOM     26  O   UNL     1      -1.744  16.322  23.173  0.00  0.00    +0.000 OA
ATOM     27  C   UNL     1      -2.599  15.463  22.961  0.00  0.00    +0.000 C 
ATOM     28  N   UNL     1      -2.337  14.283  22.355  0.00  0.00    +0.000 N 
ATOM     29  N   UNL     1      -3.887  15.679  23.354  0.00  0.00    +0.000 N 
ATOM     30  C   UNL     1      -4.961  14.782  23.324  0.00  0.00    +0.000 A 
ATOM     31  C   UNL     1      -6.168  15.185  23.881  0.00  0.00    +0.000 A 
ATOM     32  C   UNL     1      -7.219  14.269  23.939  0.00  0.00    +0.000 A 
ATOM     33  C   UNL     1      -7.038  12.986  23.437  0.00  0.00    +0.000 A 
ATOM     34  C   UNL     1      -5.817  12.678  22.871  0.00  0.00    +0.000 A 
ATOM     35  N   UNL     1      -4.789  13.548  22.800  0.00  0.00    +0.000 NA
ATOM     36  H   UNL     1      -3.143  13.702  22.137  0.00  0.00    +0.000 HD
ATOM     37  H   UNL     1      -4.023  16.579  23.790  0.00  0.00    +0.000 HD
ENDBRANCH  25  28
ENDBRANCH   1  25
TORSDOF 5
ENDMDL
