MODEL 1
REMARK VINA RESULT:      -7.3      0.000      0.000
REMARK  Name = 
REMARK  5 active torsions:
REMARK  status: ('A' for Active; 'I' for Inactive)
REMARK    1  A    between atoms: C_1  and  C_2
REMARK    2  A    between atoms: C_4  and  C_5
REMARK    3  A    between atoms: C_8  and  C_10
REMARK    4  A    between atoms: N_13  and  S_14
REMARK    5  A    between atoms: S_14  and  N_17
REMARK                            x       y       z     vdW  Elec       q    Type
REMARK                         _______ _______ _______ _____ _____    ______ ____
ROOT
ATOM      1  C   UNL     1       0.475   8.996  18.930  0.00  0.00    +0.000 C 
ATOM      2  C   UNL     1       0.701   9.301  20.436  0.00  0.00    +0.000 C 
ATOM      3  C   UNL     1       1.311  10.688  20.708  0.00  0.00    +0.000 C 
ATOM      4  N   UNL     1       0.668  11.786  19.948  0.00  0.00    +0.000 NA
ATOM      5  C   UNL     1       0.273  11.473  18.560  0.00  0.00    +0.000 C 
ATOM      6  C   UNL     1      -0.423  10.125  18.436  0.00  0.00    +0.000 C 
ENDROOT
BRANCH   1  14
ATOM      7  C   UNL     1       1.519   4.862  17.848  0.00  0.00    +0.000 C 
ATOM      8  C   UNL     1       2.677   5.231  18.779  0.00  0.00    +0.000 C 
ATOM      9  C   UNL     1       4.026   5.148  18.041  0.00  0.00    +0.000 C 
ATOM     10  C   UNL     1       4.227   6.309  17.058  0.00  0.00    +0.000 C 
ATOM     11  C   UNL     1       5.647   6.282  16.485  0.00  0.00    +0.000 C 
ATOM     12  C   UNL     1       3.941   7.661  17.727  0.00  0.00    +0.000 C 
ATOM     13  N   UNL     1       2.635   7.690  18.400  0.00  0.00    +0.000 N 
ATOM     14  C   UNL     1       1.828   8.812  18.191  0.00  0.00    +0.000 C 
ATOM     15  O   UNL     1       2.198   9.701  17.426  0.00  0.00    +0.000 OA
ATOM     16  C   UNL     1       2.486   6.630  19.406  0.00  0.00    +0.000 C 
ENDBRANCH   1  14
BRANCH   4  17
ATOM     17  S   UNL     1      -0.235  12.941  20.763  0.00  0.00    +0.000 S 
ATOM     18  O   UNL     1       0.443  13.277  21.992  0.00  0.00    +0.000 OA
ATOM     19  O   UNL     1      -0.586  13.966  19.806  0.00  0.00    +0.000 OA
BRANCH  17  20
ATOM     20  N   UNL     1      -1.645  12.110  21.194  0.00  0.00    +0.000 NA
ATOM     21  C   UNL     1      -1.881  11.717  22.612  0.00  0.00    +0.000 C 
ATOM     22  C   UNL     1      -2.775  12.672  23.408  0.00  0.00    +0.000 C 
ATOM     23  C   UNL     1      -3.977  13.246  22.649  0.00  0.00    +0.000 C 
ATOM     24  C   UNL     1      -3.475  13.780  21.308  0.00  0.00    +0.000 C 
ATOM     25  C   UNL     1      -2.877  12.607  20.535  0.00  0.00    +0.000 C 
ATOM     26  O   UNL     1      -5.027  12.296  22.362  0.00  0.00    +0.000 OA
ATOM     27  C   UNL     1      -6.213  13.110  22.405  0.00  0.00    +0.000 C 
ATOM     28  C   UNL     1      -5.933  13.901  23.649  0.00  0.00    +0.000 C 
ATOM     29  O   UNL     1      -4.565  14.299  23.453  0.00  0.00    +0.000 OA
ENDBRANCH  17  20
ENDBRANCH   4  17
TORSDOF 3
ENDMDL
MODEL 2
REMARK VINA RESULT:      -6.7      2.899      4.600
REMARK  Name = 
REMARK  5 active torsions:
REMARK  status: ('A' for Active; 'I' for Inactive)
REMARK    1  A    between atoms: C_1  and  C_2
REMARK    2  A    between atoms: C_4  and  C_5
REMARK    3  A    between atoms: C_8  and  C_10
REMARK    4  A    between atoms: N_13  and  S_14
REMARK    5  A    between atoms: S_14  and  N_17
REMARK                            x       y       z     vdW  Elec       q    Type
REMARK                         _______ _______ _______ _____ _____    ______ ____
ROOT
ATOM      1  C   UNL     1       0.396   8.909  18.976  0.00  0.00    +0.000 C 
ATOM      2  C   UNL     1       0.605   9.008  20.511  0.00  0.00    +0.000 C 
ATOM      3  C   UNL     1       1.252  10.327  20.971  0.00  0.00    +0.000 C 
ATOM      4  N   UNL     1       0.657  11.535  20.352  0.00  0.00    +0.000 NA
ATOM      5  C   UNL     1       0.278  11.419  18.929  0.00  0.00    +0.000 C 
ATOM      6  C   UNL     1      -0.457  10.122  18.621  0.00  0.00    +0.000 C 
ENDROOT
BRANCH   1  14
ATOM      7  C   UNL     1       1.577   4.825  17.847  0.00  0.00    +0.000 C 
ATOM      8  C   UNL     1       2.720   5.220  18.785  0.00  0.00    +0.000 C 
ATOM      9  C   UNL     1       4.073   5.190  18.050  0.00  0.00    +0.000 C 
ATOM     10  C   UNL     1       4.238   6.369  17.081  0.00  0.00    +0.000 C 
ATOM     11  C   UNL     1       5.660   6.395  16.512  0.00  0.00    +0.000 C 
ATOM     12  C   UNL     1       3.907   7.703  17.766  0.00  0.00    +0.000 C 
ATOM     13  N   UNL     1       2.599   7.681  18.435  0.00  0.00    +0.000 N 
ATOM     14  C   UNL     1       1.756   8.779  18.239  0.00  0.00    +0.000 C 
ATOM     15  O   UNL     1       2.099   9.688  17.485  0.00  0.00    +0.000 OA
ATOM     16  C   UNL     1       2.483   6.604  19.429  0.00  0.00    +0.000 C 
ENDBRANCH   1  14
BRANCH   4  17
ATOM     17  S   UNL     1      -0.225  12.603  21.298  0.00  0.00    +0.000 S 
ATOM     18  O   UNL     1      -1.474  12.890  20.632  0.00  0.00    +0.000 OA
ATOM     19  O   UNL     1      -0.207  12.095  22.650  0.00  0.00    +0.000 OA
BRANCH  17  20
ATOM     20  N   UNL     1       0.692  14.025  21.250  0.00  0.00    +0.000 NA
ATOM     21  C   UNL     1       2.179  13.962  21.327  0.00  0.00    +0.000 C 
ATOM     22  C   UNL     1       2.900  14.020  19.977  0.00  0.00    +0.000 C 
ATOM     23  C   UNL     1       2.310  14.993  18.949  0.00  0.00    +0.000 C 
ATOM     24  C   UNL     1       0.803  14.746  18.879  0.00  0.00    +0.000 C 
ATOM     25  C   UNL     1       0.221  15.027  20.263  0.00  0.00    +0.000 C 
ATOM     26  O   UNL     1       2.497  16.393  19.256  0.00  0.00    +0.000 OA
ATOM     27  C   UNL     1       2.603  16.992  17.952  0.00  0.00    +0.000 C 
ATOM     28  C   UNL     1       3.529  16.010  17.296  0.00  0.00    +0.000 C 
ATOM     29  O   UNL     1       2.947  14.750  17.670  0.00  0.00    +0.000 OA
ENDBRANCH  17  20
ENDBRANCH   4  17
TORSDOF 3
ENDMDL
MODEL 3
REMARK VINA RESULT:      -6.7      6.136      9.507
REMARK  Name = 
REMARK  5 active torsions:
REMARK  status: ('A' for Active; 'I' for Inactive)
REMARK    1  A    between atoms: C_1  and  C_2
REMARK    2  A    between atoms: C_4  and  C_5
REMARK    3  A    between atoms: C_8  and  C_10
REMARK    4  A    between atoms: N_13  and  S_14
REMARK    5  A    between atoms: S_14  and  N_17
REMARK                            x       y       z     vdW  Elec       q    Type
REMARK                         _______ _______ _______ _____ _____    ______ ____
ROOT
ATOM      1  C   UNL     1       0.855  14.499  19.549  0.00  0.00    +0.000 C 
ATOM      2  C   UNL     1       1.428  15.887  19.945  0.00  0.00    +0.000 C 
ATOM      3  C   UNL     1       2.898  15.849  20.402  0.00  0.00    +0.000 C 
ATOM      4  N   UNL     1       3.780  15.047  19.522  0.00  0.00    +0.000 NA
ATOM      5  C   UNL     1       3.201  13.802  18.978  0.00  0.00    +0.000 C 
ATOM      6  C   UNL     1       1.785  13.993  18.452  0.00  0.00    +0.000 C 
ENDROOT
BRANCH   1  14
ATOM      7  C   UNL     1       1.184  10.175  18.815  0.00  0.00    +0.000 C 
ATOM      8  C   UNL     1      -0.243  10.279  19.359  0.00  0.00    +0.000 C 
ATOM      9  C   UNL     1      -0.402   9.458  20.652  0.00  0.00    +0.000 C 
ATOM     10  C   UNL     1       0.283  10.122  21.854  0.00  0.00    +0.000 C 
ATOM     11  C   UNL     1      -0.053   9.365  23.143  0.00  0.00    +0.000 C 
ATOM     12  C   UNL     1      -0.116  11.600  21.976  0.00  0.00    +0.000 C 
ATOM     13  N   UNL     1       0.073  12.339  20.721  0.00  0.00    +0.000 N 
ATOM     14  C   UNL     1       0.694  13.588  20.796  0.00  0.00    +0.000 C 
ATOM     15  O   UNL     1       1.106  14.004  21.878  0.00  0.00    +0.000 OA
ATOM     16  C   UNL     1      -0.662  11.748  19.593  0.00  0.00    +0.000 C 
ENDBRANCH   1  14
BRANCH   4  17
ATOM     17  S   UNL     1       4.953  15.816  18.601  0.00  0.00    +0.000 S 
ATOM     18  O   UNL     1       5.387  14.916  17.559  0.00  0.00    +0.000 OA
ATOM     19  O   UNL     1       4.452  17.133  18.280  0.00  0.00    +0.000 OA
BRANCH  17  20
ATOM     20  N   UNL     1       6.250  15.984  19.673  0.00  0.00    +0.000 NA
ATOM     21  C   UNL     1       6.893  14.780  20.270  0.00  0.00    +0.000 C 
ATOM     22  C   UNL     1       8.164  14.304  19.561  0.00  0.00    +0.000 C 
ATOM     23  C   UNL     1       9.107  15.411  19.075  0.00  0.00    +0.000 C 
ATOM     24  C   UNL     1       8.273  16.439  18.311  0.00  0.00    +0.000 C 
ATOM     25  C   UNL     1       7.243  17.014  19.280  0.00  0.00    +0.000 C 
ATOM     26  O   UNL     1       9.803  16.123  20.123  0.00  0.00    +0.000 OA
ATOM     27  C   UNL     1      11.054  16.464  19.499  0.00  0.00    +0.000 C 
ATOM     28  C   UNL     1      11.373  15.155  18.839  0.00  0.00    +0.000 C 
ATOM     29  O   UNL     1      10.118  14.811  18.227  0.00  0.00    +0.000 OA
ENDBRANCH  17  20
ENDBRANCH   4  17
TORSDOF 3
ENDMDL
MODEL 4
REMARK VINA RESULT:      -6.6      5.582      7.101
REMARK  Name = 
REMARK  5 active torsions:
REMARK  status: ('A' for Active; 'I' for Inactive)
REMARK    1  A    between atoms: C_1  and  C_2
REMARK    2  A    between atoms: C_4  and  C_5
REMARK    3  A    between atoms: C_8  and  C_10
REMARK    4  A    between atoms: N_13  and  S_14
REMARK    5  A    between atoms: S_14  and  N_17
REMARK                            x       y       z     vdW  Elec       q    Type
REMARK                         _______ _______ _______ _____ _____    ______ ____
ROOT
ATOM      1  C   UNL     1       6.148  16.025  19.445  0.00  0.00    +0.000 C 
ATOM      2  C   UNL     1       4.789  16.378  18.782  0.00  0.00    +0.000 C 
ATOM      3  C   UNL     1       3.726  15.272  18.908  0.00  0.00    +0.000 C 
ATOM      4  N   UNL     1       3.615  14.698  20.269  0.00  0.00    +0.000 NA
ATOM      5  C   UNL     1       4.883  14.514  21.004  0.00  0.00    +0.000 C 
ATOM      6  C   UNL     1       5.804  15.721  20.899  0.00  0.00    +0.000 C 
ENDROOT
BRANCH   1  14
ATOM      7  C   UNL     1       8.732  13.379  21.826  0.00  0.00    +0.000 C 
ATOM      8  C   UNL     1       9.744  13.993  20.855  0.00  0.00    +0.000 C 
ATOM      9  C   UNL     1      10.412  12.906  19.993  0.00  0.00    +0.000 C 
ATOM     10  C   UNL     1       9.467  12.350  18.919  0.00  0.00    +0.000 C 
ATOM     11  C   UNL     1      10.227  11.408  17.979  0.00  0.00    +0.000 C 
ATOM     12  C   UNL     1       8.799  13.482  18.125  0.00  0.00    +0.000 C 
ATOM     13  N   UNL     1       8.163  14.480  18.995  0.00  0.00    +0.000 N 
ATOM     14  C   UNL     1       6.875  14.903  18.656  0.00  0.00    +0.000 C 
ATOM     15  O   UNL     1       6.299  14.401  17.693  0.00  0.00    +0.000 OA
ATOM     16  C   UNL     1       9.098  15.075  19.961  0.00  0.00    +0.000 C 
ENDBRANCH   1  14
BRANCH   4  17
ATOM     17  S   UNL     1       2.233  14.978  21.178  0.00  0.00    +0.000 S 
ATOM     18  O   UNL     1       2.626  15.336  22.521  0.00  0.00    +0.000 OA
ATOM     19  O   UNL     1       1.377  15.845  20.402  0.00  0.00    +0.000 OA
BRANCH  17  20
ATOM     20  N   UNL     1       1.505  13.454  21.272  0.00  0.00    +0.000 NA
ATOM     21  C   UNL     1       0.087  13.325  21.714  0.00  0.00    +0.000 C 
ATOM     22  C   UNL     1      -0.937  13.214  20.580  0.00  0.00    +0.000 C 
ATOM     23  C   UNL     1      -0.513  12.354  19.384  0.00  0.00    +0.000 C 
ATOM     24  C   UNL     1       0.889  12.792  18.962  0.00  0.00    +0.000 C 
ATOM     25  C   UNL     1       1.827  12.548  20.143  0.00  0.00    +0.000 C 
ATOM     26  O   UNL     1      -0.454  10.933  19.644  0.00  0.00    +0.000 OA
ATOM     27  C   UNL     1      -0.813  10.363  18.373  0.00  0.00    +0.000 C 
ATOM     28  C   UNL     1      -1.981  11.237  18.022  0.00  0.00    +0.000 C 
ATOM     29  O   UNL     1      -1.474  12.550  18.316  0.00  0.00    +0.000 OA
ENDBRANCH  17  20
ENDBRANCH   4  17
TORSDOF 3
ENDMDL
MODEL 5
REMARK VINA RESULT:      -6.6      3.551      9.781
REMARK  Name = 
REMARK  5 active torsions:
REMARK  status: ('A' for Active; 'I' for Inactive)
REMARK    1  A    between atoms: C_1  and  C_2
REMARK    2  A    between atoms: C_4  and  C_5
REMARK    3  A    between atoms: C_8  and  C_10
REMARK    4  A    between atoms: N_13  and  S_14
REMARK    5  A    between atoms: S_14  and  N_17
REMARK                            x       y       z     vdW  Elec       q    Type
REMARK                         _______ _______ _______ _____ _____    ______ ____
ROOT
ATOM      1  C   UNL     1       0.168   9.740  20.175  0.00  0.00    +0.000 C 
ATOM      2  C   UNL     1       0.627   9.277  18.766  0.00  0.00    +0.000 C 
ATOM      3  C   UNL     1       1.983   8.546  18.758  0.00  0.00    +0.000 C 
ATOM      4  N   UNL     1       2.116   7.518  19.817  0.00  0.00    +0.000 NA
ATOM      5  C   UNL     1       1.528   7.854  21.129  0.00  0.00    +0.000 C 
ATOM      6  C   UNL     1       0.139   8.465  21.012  0.00  0.00    +0.000 C 
ENDROOT
BRANCH   1  14
ATOM      7  C   UNL     1      -1.504  13.790  19.792  0.00  0.00    +0.000 C 
ATOM      8  C   UNL     1      -0.242  13.903  18.933  0.00  0.00    +0.000 C 
ATOM      9  C   UNL     1       0.710  14.978  19.490  0.00  0.00    +0.000 C 
ATOM     10  C   UNL     1       1.422  14.522  20.771  0.00  0.00    +0.000 C 
ATOM     11  C   UNL     1       2.483  15.547  21.183  0.00  0.00    +0.000 C 
ATOM     12  C   UNL     1       2.052  13.134  20.594  0.00  0.00    +0.000 C 
ATOM     13  N   UNL     1       1.096  12.144  20.078  0.00  0.00    +0.000 N 
ATOM     14  C   UNL     1       1.065  10.893  20.700  0.00  0.00    +0.000 C 
ATOM     15  O   UNL     1       1.783  10.675  21.674  0.00  0.00    +0.000 OA
ATOM     16  C   UNL     1       0.488  12.547  18.802  0.00  0.00    +0.000 C 
ENDBRANCH   1  14
BRANCH   4  17
ATOM     17  S   UNL     1       2.179   5.896  19.395  0.00  0.00    +0.000 S 
ATOM     18  O   UNL     1       1.709   5.108  20.511  0.00  0.00    +0.000 OA
ATOM     19  O   UNL     1       1.571   5.767  18.091  0.00  0.00    +0.000 OA
BRANCH  17  20
ATOM     20  N   UNL     1       3.836   5.590  19.244  0.00  0.00    +0.000 NA
ATOM     21  C   UNL     1       4.338   4.188  19.176  0.00  0.00    +0.000 C 
ATOM     22  C   UNL     1       4.600   3.662  17.761  0.00  0.00    +0.000 C 
ATOM     23  C   UNL     1       5.233   4.662  16.787  0.00  0.00    +0.000 C 
ATOM     24  C   UNL     1       4.438   5.966  16.867  0.00  0.00    +0.000 C 
ATOM     25  C   UNL     1       4.543   6.487  18.299  0.00  0.00    +0.000 C 
ATOM     26  O   UNL     1       6.614   4.990  17.061  0.00  0.00    +0.000 OA
ATOM     27  C   UNL     1       7.149   5.231  15.747  0.00  0.00    +0.000 C 
ATOM     28  C   UNL     1       6.556   4.065  15.013  0.00  0.00    +0.000 C 
ATOM     29  O   UNL     1       5.188   4.094  15.454  0.00  0.00    +0.000 OA
ENDBRANCH  17  20
ENDBRANCH   4  17
TORSDOF 3
ENDMDL
MODEL 6
REMARK VINA RESULT:      -6.5      3.882      9.752
REMARK  Name = 
REMARK  5 active torsions:
REMARK  status: ('A' for Active; 'I' for Inactive)
REMARK    1  A    between atoms: C_1  and  C_2
REMARK    2  A    between atoms: C_4  and  C_5
REMARK    3  A    between atoms: C_8  and  C_10
REMARK    4  A    between atoms: N_13  and  S_14
REMARK    5  A    between atoms: S_14  and  N_17
REMARK                            x       y       z     vdW  Elec       q    Type
REMARK                         _______ _______ _______ _____ _____    ______ ____
ROOT
ATOM      1  C   UNL     1       0.399  10.009  18.739  0.00  0.00    +0.000 C 
ATOM      2  C   UNL     1       0.659   8.996  17.591  0.00  0.00    +0.000 C 
ATOM      3  C   UNL     1       2.006   8.259  17.701  0.00  0.00    +0.000 C 
ATOM      4  N   UNL     1       2.298   7.740  19.058  0.00  0.00    +0.000 NA
ATOM      5  C   UNL     1       1.898   8.604  20.186  0.00  0.00    +0.000 C 
ATOM      6  C   UNL     1       0.500   9.183  20.017  0.00  0.00    +0.000 C 
ENDROOT
BRANCH   1  14
ATOM      7  C   UNL     1      -0.068  13.091  21.843  0.00  0.00    +0.000 C 
ATOM      8  C   UNL     1      -0.389  13.889  20.576  0.00  0.00    +0.000 C 
ATOM      9  C   UNL     1       0.603  15.053  20.391  0.00  0.00    +0.000 C 
ATOM     10  C   UNL     1       1.989  14.574  19.939  0.00  0.00    +0.000 C 
ATOM     11  C   UNL     1       2.880  15.772  19.598  0.00  0.00    +0.000 C 
ATOM     12  C   UNL     1       1.885  13.620  18.741  0.00  0.00    +0.000 C 
ATOM     13  N   UNL     1       0.940  12.520  18.978  0.00  0.00    +0.000 N 
ATOM     14  C   UNL     1       1.351  11.231  18.626  0.00  0.00    +0.000 C 
ATOM     15  O   UNL     1       2.486  11.047  18.188  0.00  0.00    +0.000 OA
ATOM     16  C   UNL     1      -0.410  12.989  19.320  0.00  0.00    +0.000 C 
ENDBRANCH   1  14
BRANCH   4  17
ATOM     17  S   UNL     1       2.315   6.084  19.326  0.00  0.00    +0.000 S 
ATOM     18  O   UNL     1       1.961   5.834  20.703  0.00  0.00    +0.000 OA
ATOM     19  O   UNL     1       1.577   5.466  18.248  0.00  0.00    +0.000 OA
BRANCH  17  20
ATOM     20  N   UNL     1       3.948   5.673  19.159  0.00  0.00    +0.000 NA
ATOM     21  C   UNL     1       4.360   4.242  19.103  0.00  0.00    +0.000 C 
ATOM     22  C   UNL     1       4.570   3.683  17.692  0.00  0.00    +0.000 C 
ATOM     23  C   UNL     1       5.252   4.630  16.698  0.00  0.00    +0.000 C 
ATOM     24  C   UNL     1       4.541   5.981  16.770  0.00  0.00    +0.000 C 
ATOM     25  C   UNL     1       4.698   6.512  18.193  0.00  0.00    +0.000 C 
ATOM     26  O   UNL     1       6.654   4.874  16.950  0.00  0.00    +0.000 OA
ATOM     27  C   UNL     1       7.187   5.065  15.627  0.00  0.00    +0.000 C 
ATOM     28  C   UNL     1       6.513   3.930  14.915  0.00  0.00    +0.000 C 
ATOM     29  O   UNL     1       5.155   4.050  15.373  0.00  0.00    +0.000 OA
ENDBRANCH  17  20
ENDBRANCH   4  17
TORSDOF 3
ENDMDL
MODEL 7
REMARK VINA RESULT:      -6.5      3.441      9.744
REMARK  Name = 
REMARK  5 active torsions:
REMARK  status: ('A' for Active; 'I' for Inactive)
REMARK    1  A    between atoms: C_1  and  C_2
REMARK    2  A    between atoms: C_4  and  C_5
REMARK    3  A    between atoms: C_8  and  C_10
REMARK    4  A    between atoms: N_13  and  S_14
REMARK    5  A    between atoms: S_14  and  N_17
REMARK                            x       y       z     vdW  Elec       q    Type
REMARK                         _______ _______ _______ _____ _____    ______ ____
ROOT
ATOM      1  C   UNL     1       0.156  10.027  18.782  0.00  0.00    +0.000 C 
ATOM      2  C   UNL     1       0.886   9.276  17.637  0.00  0.00    +0.000 C 
ATOM      3  C   UNL     1       2.226   8.645  18.057  0.00  0.00    +0.000 C 
ATOM      4  N   UNL     1       2.164   7.903  19.338  0.00  0.00    +0.000 NA
ATOM      5  C   UNL     1       1.328   8.501  20.398  0.00  0.00    +0.000 C 
ATOM      6  C   UNL     1      -0.020   8.985  19.881  0.00  0.00    +0.000 C 
ENDROOT
BRANCH   1  14
ATOM      7  C   UNL     1      -0.822  11.714  22.726  0.00  0.00    +0.000 C 
ATOM      8  C   UNL     1      -1.231  12.861  21.798  0.00  0.00    +0.000 C 
ATOM      9  C   UNL     1      -0.419  14.133  22.102  0.00  0.00    +0.000 C 
ATOM     10  C   UNL     1       1.031  14.032  21.611  0.00  0.00    +0.000 C 
ATOM     11  C   UNL     1       1.743  15.378  21.774  0.00  0.00    +0.000 C 
ATOM     12  C   UNL     1       1.093  13.562  20.150  0.00  0.00    +0.000 C 
ATOM     13  N   UNL     1       0.316  12.336  19.921  0.00  0.00    +0.000 N 
ATOM     14  C   UNL     1       0.919  11.322  19.171  0.00  0.00    +0.000 C 
ATOM     15  O   UNL     1       2.077  11.456  18.778  0.00  0.00    +0.000 OA
ATOM     16  C   UNL     1      -1.095  12.472  20.309  0.00  0.00    +0.000 C 
ENDBRANCH   1  14
BRANCH   4  17
ATOM     17  S   UNL     1       2.328   6.233  19.339  0.00  0.00    +0.000 S 
ATOM     18  O   UNL     1       1.984   5.734  20.649  0.00  0.00    +0.000 OA
ATOM     19  O   UNL     1       1.660   5.735  18.158  0.00  0.00    +0.000 OA
BRANCH  17  20
ATOM     20  N   UNL     1       3.993   5.998  19.148  0.00  0.00    +0.000 NA
ATOM     21  C   UNL     1       4.582   4.638  19.301  0.00  0.00    +0.000 C 
ATOM     22  C   UNL     1       4.811   3.881  17.989  0.00  0.00    +0.000 C 
ATOM     23  C   UNL     1       5.331   4.723  16.818  0.00  0.00    +0.000 C 
ATOM     24  C   UNL     1       4.456   5.972  16.712  0.00  0.00    +0.000 C 
ATOM     25  C   UNL     1       4.594   6.749  18.019  0.00  0.00    +0.000 C 
ATOM     26  O   UNL     1       6.698   5.172  16.949  0.00  0.00    +0.000 OA
ATOM     27  C   UNL     1       7.154   5.202  15.584  0.00  0.00    +0.000 C 
ATOM     28  C   UNL     1       6.606   3.890  15.104  0.00  0.00    +0.000 C 
ATOM     29  O   UNL     1       5.260   3.922  15.612  0.00  0.00    +0.000 OA
ENDBRANCH  17  20
ENDBRANCH   4  17
TORSDOF 3
ENDMDL
MODEL 8
REMARK VINA RESULT:      -6.5      2.949      9.497
REMARK  Name = 
REMARK  5 active torsions:
REMARK  status: ('A' for Active; 'I' for Inactive)
REMARK    1  A    between atoms: C_1  and  C_2
REMARK    2  A    between atoms: C_4  and  C_5
REMARK    3  A    between atoms: C_8  and  C_10
REMARK    4  A    between atoms: N_13  and  S_14
REMARK    5  A    between atoms: S_14  and  N_17
REMARK                            x       y       z     vdW  Elec       q    Type
REMARK                         _______ _______ _______ _____ _____    ______ ____
ROOT
ATOM      1  C   UNL     1      -0.524  10.020  20.738  0.00  0.00    +0.000 C 
ATOM      2  C   UNL     1      -0.480  10.060  19.187  0.00  0.00    +0.000 C 
ATOM      3  C   UNL     1       0.942  10.015  18.600  0.00  0.00    +0.000 C 
ATOM      4  N   UNL     1       1.812   8.983  19.213  0.00  0.00    +0.000 NA
ATOM      5  C   UNL     1       1.667   8.791  20.670  0.00  0.00    +0.000 C 
ATOM      6  C   UNL     1       0.212   8.739  21.115  0.00  0.00    +0.000 C 
ENDROOT
BRANCH   1  14
ATOM      7  C   UNL     1      -3.285  12.225  23.359  0.00  0.00    +0.000 C 
ATOM      8  C   UNL     1      -3.043  13.249  22.248  0.00  0.00    +0.000 C 
ATOM      9  C   UNL     1      -2.406  14.534  22.810  0.00  0.00    +0.000 C 
ATOM     10  C   UNL     1      -0.930  14.341  23.182  0.00  0.00    +0.000 C 
ATOM     11  C   UNL     1      -0.298  15.683  23.564  0.00  0.00    +0.000 C 
ATOM     12  C   UNL     1      -0.149  13.684  22.035  0.00  0.00    +0.000 C 
ATOM     13  N   UNL     1      -0.790  12.454  21.550  0.00  0.00    +0.000 N 
ATOM     14  C   UNL     1       0.028  11.339  21.344  0.00  0.00    +0.000 C 
ATOM     15  O   UNL     1       1.225  11.398  21.618  0.00  0.00    +0.000 OA
ATOM     16  C   UNL     1      -2.175  12.667  21.109  0.00  0.00    +0.000 C 
ENDBRANCH   1  14
BRANCH   4  17
ATOM     17  S   UNL     1       2.290   7.655  18.307  0.00  0.00    +0.000 S 
ATOM     18  O   UNL     1       1.171   7.212  17.509  0.00  0.00    +0.000 OA
ATOM     19  O   UNL     1       3.553   7.989  17.689  0.00  0.00    +0.000 OA
BRANCH  17  20
ATOM     20  N   UNL     1       2.565   6.459  19.471  0.00  0.00    +0.000 NA
ATOM     21  C   UNL     1       1.497   5.473  19.801  0.00  0.00    +0.000 C 
ATOM     22  C   UNL     1       1.616   4.125  19.083  0.00  0.00    +0.000 C 
ATOM     23  C   UNL     1       3.037   3.570  18.942  0.00  0.00    +0.000 C 
ATOM     24  C   UNL     1       3.927   4.687  18.394  0.00  0.00    +0.000 C 
ATOM     25  C   UNL     1       3.908   5.833  19.403  0.00  0.00    +0.000 C 
ATOM     26  O   UNL     1       3.640   3.113  20.173  0.00  0.00    +0.000 OA
ATOM     27  C   UNL     1       4.482   2.033  19.733  0.00  0.00    +0.000 C 
ATOM     28  C   UNL     1       3.536   1.337  18.800  0.00  0.00    +0.000 C 
ATOM     29  O   UNL     1       2.998   2.435  18.042  0.00  0.00    +0.000 OA
ENDBRANCH  17  20
ENDBRANCH   4  17
TORSDOF 3
ENDMDL
MODEL 9
REMARK VINA RESULT:      -6.5      3.324      4.829
REMARK  Name = 
REMARK  5 active torsions:
REMARK  status: ('A' for Active; 'I' for Inactive)
REMARK    1  A    between atoms: C_1  and  C_2
REMARK    2  A    between atoms: C_4  and  C_5
REMARK    3  A    between atoms: C_8  and  C_10
REMARK    4  A    between atoms: N_13  and  S_14
REMARK    5  A    between atoms: S_14  and  N_17
REMARK                            x       y       z     vdW  Elec       q    Type
REMARK                         _______ _______ _______ _____ _____    ______ ____
ROOT
ATOM      1  C   UNL     1       2.104   5.488  18.895  0.00  0.00    +0.000 C 
ATOM      2  C   UNL     1       1.335   6.016  20.136  0.00  0.00    +0.000 C 
ATOM      3  C   UNL     1       1.734   7.441  20.560  0.00  0.00    +0.000 C 
ATOM      4  N   UNL     1       1.816   8.401  19.434  0.00  0.00    +0.000 NA
ATOM      5  C   UNL     1       2.380   7.880  18.173  0.00  0.00    +0.000 C 
ATOM      6  C   UNL     1       1.824   6.513  17.800  0.00  0.00    +0.000 C 
ENDROOT
BRANCH   1  14
ATOM      7  C   UNL     1       4.990   6.489  15.729  0.00  0.00    +0.000 C 
ATOM      8  C   UNL     1       5.235   4.987  15.896  0.00  0.00    +0.000 C 
ATOM      9  C   UNL     1       6.687   4.709  16.326  0.00  0.00    +0.000 C 
ATOM     10  C   UNL     1       6.943   5.083  17.792  0.00  0.00    +0.000 C 
ATOM     11  C   UNL     1       8.341   4.625  18.221  0.00  0.00    +0.000 C 
ATOM     12  C   UNL     1       5.873   4.484  18.715  0.00  0.00    +0.000 C 
ATOM     13  N   UNL     1       4.508   4.795  18.268  0.00  0.00    +0.000 N 
ATOM     14  C   UNL     1       3.597   5.229  19.235  0.00  0.00    +0.000 C 
ATOM     15  O   UNL     1       3.965   5.389  20.397  0.00  0.00    +0.000 OA
ATOM     16  C   UNL     1       4.241   4.350  16.893  0.00  0.00    +0.000 C 
ENDBRANCH   1  14
BRANCH   4  17
ATOM     17  S   UNL     1       0.693   9.643  19.319  0.00  0.00    +0.000 S 
ATOM     18  O   UNL     1       0.257   9.747  17.947  0.00  0.00    +0.000 OA
ATOM     19  O   UNL     1      -0.261   9.459  20.388  0.00  0.00    +0.000 OA
BRANCH  17  20
ATOM     20  N   UNL     1       1.603  11.030  19.649  0.00  0.00    +0.000 NA
ATOM     21  C   UNL     1       2.149  11.853  18.534  0.00  0.00    +0.000 C 
ATOM     22  C   UNL     1       1.308  13.077  18.158  0.00  0.00    +0.000 C 
ATOM     23  C   UNL     1       0.690  13.843  19.332  0.00  0.00    +0.000 C 
ATOM     24  C   UNL     1       0.003  12.830  20.248  0.00  0.00    +0.000 C 
ATOM     25  C   UNL     1       1.072  11.864  20.755  0.00  0.00    +0.000 C 
ATOM     26  O   UNL     1       1.632  14.579  20.144  0.00  0.00    +0.000 OA
ATOM     27  C   UNL     1       0.858  15.711  20.581  0.00  0.00    +0.000 C 
ATOM     28  C   UNL     1       0.196  16.082  19.287  0.00  0.00    +0.000 C 
ATOM     29  O   UNL     1      -0.257  14.806  18.803  0.00  0.00    +0.000 OA
ENDBRANCH  17  20
ENDBRANCH   4  17
TORSDOF 3
ENDMDL
