MODEL 1
REMARK VINA RESULT:      -7.8      0.000      0.000
REMARK  Name = 
REMARK  9 active torsions:
REMARK  status: ('A' for Active; 'I' for Inactive)
REMARK    1  A    between atoms: C_1  and  O_2
REMARK    2  A    between atoms: O_2  and  C_3
REMARK    3  A    between atoms: C_9  and  C_10
REMARK    4  A    between atoms: C_13  and  O_14
REMARK    5  A    between atoms: O_14  and  C_15
REMARK    6  A    between atoms: C_15  and  C_16
REMARK    7  A    between atoms: C_16  and  C_17
REMARK    8  A    between atoms: C_17  and  N_18
REMARK    9  A    between atoms: C_22  and  C_23
REMARK                            x       y       z     vdW  Elec       q    Type
REMARK                         _______ _______ _______ _____ _____    ______ ____
ROOT
ATOM      1  C   UNL     1       4.417   5.353  18.521  0.00  0.00    +0.000 A 
ATOM      2  C   UNL     1       5.644   5.170  19.164  0.00  0.00    +0.000 A 
ATOM      3  C   UNL     1       6.779   5.844  18.714  0.00  0.00    +0.000 A 
ATOM      4  C   UNL     1       6.700   6.716  17.624  0.00  0.00    +0.000 A 
ATOM      5  C   UNL     1       5.489   6.846  16.941  0.00  0.00    +0.000 A 
ATOM      6  C   UNL     1       4.349   6.170  17.386  0.00  0.00    +0.000 A 
ENDROOT
BRANCH   1  13
ATOM      7  C   UNL     1       2.889   3.474  18.811  0.00  0.00    +0.000 A 
ATOM      8  C   UNL     1       1.646   2.961  19.436  0.00  0.00    +0.000 A 
ATOM      9  N   UNL     1       0.823   3.635  20.175  0.00  0.00    +0.000 NA
ATOM     10  N   UNL     1       1.161   4.933  20.399  0.00  0.00    +0.000 N 
ATOM     11  C   UNL     1       2.286   5.568  19.938  0.00  0.00    +0.000 A 
ATOM     12  O   UNL     1       2.512   6.744  20.208  0.00  0.00    +0.000 OA
ATOM     13  C   UNL     1       3.204   4.753  19.092  0.00  0.00    +0.000 A 
ATOM     14  H   UNL     1       0.532   5.473  20.987  0.00  0.00    +0.000 HD
BRANCH   7  16
ATOM     15  C   UNL     1       3.750   1.291  18.375  0.00  0.00    +0.000 C 
ATOM     16  O   UNL     1       3.709   2.672  18.034  0.00  0.00    +0.000 OA
ENDBRANCH   7  16
ENDBRANCH   1  13
BRANCH   4  17
ATOM     17  O   UNL     1       7.729   7.496  17.161  0.00  0.00    +0.000 OA
BRANCH  17  18
ATOM     18  C   UNL     1       7.735   8.839  17.658  0.00  0.00    +0.000 C 
BRANCH  18  19
ATOM     19  C   UNL     1       8.892   9.025  18.632  0.00  0.00    +0.000 C 
BRANCH  19  20
ATOM     20  C   UNL     1       9.063  10.500  19.030  0.00  0.00    +0.000 C 
BRANCH  20  21
ATOM     21  N   UNL     1       9.534  11.340  17.932  0.00  0.00    +0.000 NA
ATOM     22  C   UNL     1       8.776  12.581  17.744  0.00  0.00    +0.000 C 
ATOM     23  C   UNL     1       9.790  13.703  17.793  0.00  0.00    +0.000 C 
ATOM     24  C   UNL     1      11.051  13.044  17.275  0.00  0.00    +0.000 C 
ATOM     25  C   UNL     1      10.978  11.632  17.860  0.00  0.00    +0.000 C 
ATOM     26  C   UNL     1      11.776  11.550  19.165  0.00  0.00    +0.000 C 
ENDBRANCH  20  21
ENDBRANCH  19  20
ENDBRANCH  18  19
ENDBRANCH  17  18
ENDBRANCH   4  17
TORSDOF 7
ENDMDL
MODEL 2
REMARK VINA RESULT:      -7.8      0.654      2.145
REMARK  Name = 
REMARK  9 active torsions:
REMARK  status: ('A' for Active; 'I' for Inactive)
REMARK    1  A    between atoms: C_1  and  O_2
REMARK    2  A    between atoms: O_2  and  C_3
REMARK    3  A    between atoms: C_9  and  C_10
REMARK    4  A    between atoms: C_13  and  O_14
REMARK    5  A    between atoms: O_14  and  C_15
REMARK    6  A    between atoms: C_15  and  C_16
REMARK    7  A    between atoms: C_16  and  C_17
REMARK    8  A    between atoms: C_17  and  N_18
REMARK    9  A    between atoms: C_22  and  C_23
REMARK                            x       y       z     vdW  Elec       q    Type
REMARK                         _______ _______ _______ _____ _____    ______ ____
ROOT
ATOM      1  C   UNL     1       4.521   5.279  18.359  0.00  0.00    +0.000 A 
ATOM      2  C   UNL     1       5.745   5.152  19.020  0.00  0.00    +0.000 A 
ATOM      3  C   UNL     1       6.853   5.884  18.591  0.00  0.00    +0.000 A 
ATOM      4  C   UNL     1       6.748   6.758  17.505  0.00  0.00    +0.000 A 
ATOM      5  C   UNL     1       5.542   6.833  16.805  0.00  0.00    +0.000 A 
ATOM      6  C   UNL     1       4.431   6.099  17.228  0.00  0.00    +0.000 A 
ENDROOT
BRANCH   1  13
ATOM      7  C   UNL     1       2.471   5.309  19.681  0.00  0.00    +0.000 A 
ATOM      8  C   UNL     1       1.301   4.551  20.185  0.00  0.00    +0.000 A 
ATOM      9  N   UNL     1       1.059   3.293  19.994  0.00  0.00    +0.000 NA
ATOM     10  N   UNL     1       1.974   2.626  19.240  0.00  0.00    +0.000 N 
ATOM     11  C   UNL     1       3.093   3.166  18.660  0.00  0.00    +0.000 A 
ATOM     12  O   UNL     1       3.854   2.482  17.982  0.00  0.00    +0.000 OA
ATOM     13  C   UNL     1       3.330   4.616  18.908  0.00  0.00    +0.000 A 
ATOM     14  H   UNL     1       1.793   1.640  19.072  0.00  0.00    +0.000 HD
BRANCH   7  16
ATOM     15  C   UNL     1       1.615   7.294  20.690  0.00  0.00    +0.000 C 
ATOM     16  O   UNL     1       2.642   6.659  19.938  0.00  0.00    +0.000 OA
ENDBRANCH   7  16
ENDBRANCH   1  13
BRANCH   4  17
ATOM     17  O   UNL     1       7.745   7.591  17.063  0.00  0.00    +0.000 OA
BRANCH  17  18
ATOM     18  C   UNL     1       7.747   8.894  17.658  0.00  0.00    +0.000 C 
BRANCH  18  19
ATOM     19  C   UNL     1       8.844   8.978  18.712  0.00  0.00    +0.000 C 
BRANCH  19  20
ATOM     20  C   UNL     1       9.140  10.435  19.103  0.00  0.00    +0.000 C 
BRANCH  20  21
ATOM     21  N   UNL     1       9.616  11.244  17.984  0.00  0.00    +0.000 NA
ATOM     22  C   UNL     1       8.806  12.434  17.702  0.00  0.00    +0.000 C 
ATOM     23  C   UNL     1       9.761  13.607  17.735  0.00  0.00    +0.000 C 
ATOM     24  C   UNL     1      11.074  12.990  17.303  0.00  0.00    +0.000 C 
ATOM     25  C   UNL     1      11.046  11.606  17.955  0.00  0.00    +0.000 C 
ATOM     26  C   UNL     1      11.790  11.629  19.294  0.00  0.00    +0.000 C 
ENDBRANCH  20  21
ENDBRANCH  19  20
ENDBRANCH  18  19
ENDBRANCH  17  18
ENDBRANCH   4  17
TORSDOF 7
ENDMDL
MODEL 3
REMARK VINA RESULT:      -7.6      1.152      2.320
REMARK  Name = 
REMARK  9 active torsions:
REMARK  status: ('A' for Active; 'I' for Inactive)
REMARK    1  A    between atoms: C_1  and  O_2
REMARK    2  A    between atoms: O_2  and  C_3
REMARK    3  A    between atoms: C_9  and  C_10
REMARK    4  A    between atoms: C_13  and  O_14
REMARK    5  A    between atoms: O_14  and  C_15
REMARK    6  A    between atoms: C_15  and  C_16
REMARK    7  A    between atoms: C_16  and  C_17
REMARK    8  A    between atoms: C_17  and  N_18
REMARK    9  A    between atoms: C_22  and  C_23
REMARK                            x       y       z     vdW  Elec       q    Type
REMARK                         _______ _______ _______ _____ _____    ______ ____
ROOT
ATOM      1  C   UNL     1       4.356   4.716  18.059  0.00  0.00    +0.000 A 
ATOM      2  C   UNL     1       5.468   4.762  18.905  0.00  0.00    +0.000 A 
ATOM      3  C   UNL     1       6.555   5.576  18.589  0.00  0.00    +0.000 A 
ATOM      4  C   UNL     1       6.541   6.360  17.432  0.00  0.00    +0.000 A 
ATOM      5  C   UNL     1       5.459   6.263  16.555  0.00  0.00    +0.000 A 
ATOM      6  C   UNL     1       4.368   5.445  16.865  0.00  0.00    +0.000 A 
ENDROOT
BRANCH   1  13
ATOM      7  C   UNL     1       2.207   4.579  19.206  0.00  0.00    +0.000 A 
ATOM      8  C   UNL     1       1.041   3.741  19.575  0.00  0.00    +0.000 A 
ATOM      9  N   UNL     1       0.881   2.485  19.306  0.00  0.00    +0.000 NA
ATOM     10  N   UNL     1       1.888   1.901  18.601  0.00  0.00    +0.000 N 
ATOM     11  C   UNL     1       3.020   2.523  18.142  0.00  0.00    +0.000 A 
ATOM     12  O   UNL     1       3.868   1.912  17.499  0.00  0.00    +0.000 OA
ATOM     13  C   UNL     1       3.161   3.969  18.476  0.00  0.00    +0.000 A 
ATOM     14  H   UNL     1       1.773   0.918  18.372  0.00  0.00    +0.000 HD
BRANCH   7  16
ATOM     15  C   UNL     1       1.661   6.308  20.757  0.00  0.00    +0.000 C 
ATOM     16  O   UNL     1       2.286   5.921  19.539  0.00  0.00    +0.000 OA
ENDBRANCH   7  16
ENDBRANCH   1  13
BRANCH   4  17
ATOM     17  O   UNL     1       7.513   7.263  17.078  0.00  0.00    +0.000 OA
BRANCH  17  18
ATOM     18  C   UNL     1       8.185   7.885  18.179  0.00  0.00    +0.000 C 
BRANCH  18  19
ATOM     19  C   UNL     1       8.246   9.391  17.962  0.00  0.00    +0.000 C 
BRANCH  19  20
ATOM     20  C   UNL     1       9.197  10.067  18.964  0.00  0.00    +0.000 C 
BRANCH  20  21
ATOM     21  N   UNL     1       9.730  11.338  18.481  0.00  0.00    +0.000 NA
ATOM     22  C   UNL     1       8.761  12.174  17.764  0.00  0.00    +0.000 C 
ATOM     23  C   UNL     1       8.766  13.515  18.466  0.00  0.00    +0.000 C 
ATOM     24  C   UNL     1      10.175  13.609  19.009  0.00  0.00    +0.000 C 
ATOM     25  C   UNL     1      10.489  12.172  19.431  0.00  0.00    +0.000 C 
ATOM     26  C   UNL     1      10.199  11.975  20.922  0.00  0.00    +0.000 C 
ENDBRANCH  20  21
ENDBRANCH  19  20
ENDBRANCH  18  19
ENDBRANCH  17  18
ENDBRANCH   4  17
TORSDOF 7
ENDMDL
MODEL 4
REMARK VINA RESULT:      -7.5      0.807      1.182
REMARK  Name = 
REMARK  9 active torsions:
REMARK  status: ('A' for Active; 'I' for Inactive)
REMARK    1  A    between atoms: C_1  and  O_2
REMARK    2  A    between atoms: O_2  and  C_3
REMARK    3  A    between atoms: C_9  and  C_10
REMARK    4  A    between atoms: C_13  and  O_14
REMARK    5  A    between atoms: O_14  and  C_15
REMARK    6  A    between atoms: C_15  and  C_16
REMARK    7  A    between atoms: C_16  and  C_17
REMARK    8  A    between atoms: C_17  and  N_18
REMARK    9  A    between atoms: C_22  and  C_23
REMARK                            x       y       z     vdW  Elec       q    Type
REMARK                         _______ _______ _______ _____ _____    ______ ____
ROOT
ATOM      1  C   UNL     1       4.528   5.329  18.800  0.00  0.00    +0.000 A 
ATOM      2  C   UNL     1       5.788   5.176  19.384  0.00  0.00    +0.000 A 
ATOM      3  C   UNL     1       6.890   5.854  18.864  0.00  0.00    +0.000 A 
ATOM      4  C   UNL     1       6.744   6.701  17.762  0.00  0.00    +0.000 A 
ATOM      5  C   UNL     1       5.499   6.802  17.138  0.00  0.00    +0.000 A 
ATOM      6  C   UNL     1       4.393   6.121  17.654  0.00  0.00    +0.000 A 
ENDROOT
BRANCH   1  13
ATOM      7  C   UNL     1       3.184   3.390  19.419  0.00  0.00    +0.000 A 
ATOM      8  C   UNL     1       1.967   2.880  20.096  0.00  0.00    +0.000 A 
ATOM      9  N   UNL     1       1.044   3.593  20.657  0.00  0.00    +0.000 NA
ATOM     10  N   UNL     1       1.237   4.939  20.622  0.00  0.00    +0.000 N 
ATOM     11  C   UNL     1       2.314   5.588  20.077  0.00  0.00    +0.000 A 
ATOM     12  O   UNL     1       2.406   6.812  20.108  0.00  0.00    +0.000 OA
ATOM     13  C   UNL     1       3.353   4.726  19.443  0.00  0.00    +0.000 A 
ATOM     14  H   UNL     1       0.526   5.513  21.067  0.00  0.00    +0.000 HD
BRANCH   7  16
ATOM     15  C   UNL     1       3.607   1.446  18.102  0.00  0.00    +0.000 C 
ATOM     16  O   UNL     1       4.120   2.544  18.848  0.00  0.00    +0.000 OA
ENDBRANCH   7  16
ENDBRANCH   1  13
BRANCH   4  17
ATOM     17  O   UNL     1       7.739   7.485  17.232  0.00  0.00    +0.000 OA
BRANCH  17  18
ATOM     18  C   UNL     1       7.625   8.882  17.527  0.00  0.00    +0.000 C 
BRANCH  18  19
ATOM     19  C   UNL     1       8.742   9.302  18.474  0.00  0.00    +0.000 C 
BRANCH  19  20
ATOM     20  C   UNL     1       9.084  10.793  18.315  0.00  0.00    +0.000 C 
BRANCH  20  21
ATOM     21  N   UNL     1      10.485  11.093  18.601  0.00  0.00    +0.000 NA
ATOM     22  C   UNL     1      11.098  12.069  17.693  0.00  0.00    +0.000 C 
ATOM     23  C   UNL     1      11.660  13.164  18.573  0.00  0.00    +0.000 C 
ATOM     24  C   UNL     1      11.989  12.433  19.857  0.00  0.00    +0.000 C 
ATOM     25  C   UNL     1      10.848  11.423  19.992  0.00  0.00    +0.000 C 
ATOM     26  C   UNL     1       9.741  11.980  20.892  0.00  0.00    +0.000 C 
ENDBRANCH  20  21
ENDBRANCH  19  20
ENDBRANCH  18  19
ENDBRANCH  17  18
ENDBRANCH   4  17
TORSDOF 7
ENDMDL
MODEL 5
REMARK VINA RESULT:      -7.4      1.306      2.549
REMARK  Name = 
REMARK  9 active torsions:
REMARK  status: ('A' for Active; 'I' for Inactive)
REMARK    1  A    between atoms: C_1  and  O_2
REMARK    2  A    between atoms: O_2  and  C_3
REMARK    3  A    between atoms: C_9  and  C_10
REMARK    4  A    between atoms: C_13  and  O_14
REMARK    5  A    between atoms: O_14  and  C_15
REMARK    6  A    between atoms: C_15  and  C_16
REMARK    7  A    between atoms: C_16  and  C_17
REMARK    8  A    between atoms: C_17  and  N_18
REMARK    9  A    between atoms: C_22  and  C_23
REMARK                            x       y       z     vdW  Elec       q    Type
REMARK                         _______ _______ _______ _____ _____    ______ ____
ROOT
ATOM      1  C   UNL     1       4.427   4.558  17.848  0.00  0.00    +0.000 A 
ATOM      2  C   UNL     1       5.435   4.723  18.802  0.00  0.00    +0.000 A 
ATOM      3  C   UNL     1       6.525   5.551  18.535  0.00  0.00    +0.000 A 
ATOM      4  C   UNL     1       6.616   6.232  17.318  0.00  0.00    +0.000 A 
ATOM      5  C   UNL     1       5.642   6.016  16.340  0.00  0.00    +0.000 A 
ATOM      6  C   UNL     1       4.550   5.183  16.602  0.00  0.00    +0.000 A 
ENDROOT
BRANCH   1  13
ATOM      7  C   UNL     1       2.151   4.440  18.715  0.00  0.00    +0.000 A 
ATOM      8  C   UNL     1       0.979   3.588  19.033  0.00  0.00    +0.000 A 
ATOM      9  N   UNL     1       0.907   2.302  18.905  0.00  0.00    +0.000 NA
ATOM     10  N   UNL     1       2.022   1.695  18.414  0.00  0.00    +0.000 N 
ATOM     11  C   UNL     1       3.180   2.320  18.031  0.00  0.00    +0.000 A 
ATOM     12  O   UNL     1       4.131   1.685  17.584  0.00  0.00    +0.000 OA
ATOM     13  C   UNL     1       3.217   3.801  18.196  0.00  0.00    +0.000 A 
ATOM     14  H   UNL     1       1.978   0.686  18.298  0.00  0.00    +0.000 HD
BRANCH   7  16
ATOM     15  C   UNL     1       2.133   6.286  20.227  0.00  0.00    +0.000 C 
ATOM     16  O   UNL     1       2.131   5.814  18.885  0.00  0.00    +0.000 OA
ENDBRANCH   7  16
ENDBRANCH   1  13
BRANCH   4  17
ATOM     17  O   UNL     1       7.592   7.141  16.992  0.00  0.00    +0.000 OA
BRANCH  17  18
ATOM     18  C   UNL     1       8.122   7.876  18.101  0.00  0.00    +0.000 C 
BRANCH  18  19
ATOM     19  C   UNL     1       7.913   9.368  17.878  0.00  0.00    +0.000 C 
BRANCH  19  20
ATOM     20  C   UNL     1       9.231  10.149  18.007  0.00  0.00    +0.000 C 
BRANCH  20  21
ATOM     21  N   UNL     1       9.135  11.293  18.909  0.00  0.00    +0.000 NA
ATOM     22  C   UNL     1       9.447  10.994  20.311  0.00  0.00    +0.000 C 
ATOM     23  C   UNL     1      10.537  11.964  20.712  0.00  0.00    +0.000 C 
ATOM     24  C   UNL     1      10.264  13.165  19.834  0.00  0.00    +0.000 C 
ATOM     25  C   UNL     1       9.812  12.542  18.512  0.00  0.00    +0.000 C 
ATOM     26  C   UNL     1      10.993  12.421  17.544  0.00  0.00    +0.000 C 
ENDBRANCH  20  21
ENDBRANCH  19  20
ENDBRANCH  18  19
ENDBRANCH  17  18
ENDBRANCH   4  17
TORSDOF 7
ENDMDL
MODEL 6
REMARK VINA RESULT:      -7.4      0.955      1.177
REMARK  Name = 
REMARK  9 active torsions:
REMARK  status: ('A' for Active; 'I' for Inactive)
REMARK    1  A    between atoms: C_1  and  O_2
REMARK    2  A    between atoms: O_2  and  C_3
REMARK    3  A    between atoms: C_9  and  C_10
REMARK    4  A    between atoms: C_13  and  O_14
REMARK    5  A    between atoms: O_14  and  C_15
REMARK    6  A    between atoms: C_15  and  C_16
REMARK    7  A    between atoms: C_16  and  C_17
REMARK    8  A    between atoms: C_17  and  N_18
REMARK    9  A    between atoms: C_22  and  C_23
REMARK                            x       y       z     vdW  Elec       q    Type
REMARK                         _______ _______ _______ _____ _____    ______ ____
ROOT
ATOM      1  C   UNL     1       4.193   5.232  18.539  0.00  0.00    +0.000 A 
ATOM      2  C   UNL     1       5.472   5.055  19.073  0.00  0.00    +0.000 A 
ATOM      3  C   UNL     1       6.544   5.803  18.587  0.00  0.00    +0.000 A 
ATOM      4  C   UNL     1       6.350   6.742  17.570  0.00  0.00    +0.000 A 
ATOM      5  C   UNL     1       5.085   6.870  16.992  0.00  0.00    +0.000 A 
ATOM      6  C   UNL     1       4.008   6.120  17.474  0.00  0.00    +0.000 A 
ENDROOT
BRANCH   1  13
ATOM      7  C   UNL     1       2.818   3.247  18.888  0.00  0.00    +0.000 A 
ATOM      8  C   UNL     1       1.641   2.647  19.561  0.00  0.00    +0.000 A 
ATOM      9  N   UNL     1       0.801   3.260  20.332  0.00  0.00    +0.000 NA
ATOM     10  N   UNL     1       1.052   4.580  20.544  0.00  0.00    +0.000 N 
ATOM     11  C   UNL     1       2.109   5.294  20.039  0.00  0.00    +0.000 A 
ATOM     12  O   UNL     1       2.259   6.484  20.301  0.00  0.00    +0.000 OA
ATOM     13  C   UNL     1       3.050   4.546  19.157  0.00  0.00    +0.000 A 
ATOM     14  H   UNL     1       0.408   5.075  21.155  0.00  0.00    +0.000 HD
BRANCH   7  16
ATOM     15  C   UNL     1       3.833   1.136  18.429  0.00  0.00    +0.000 C 
ATOM     16  O   UNL     1       3.663   2.505  18.079  0.00  0.00    +0.000 OA
ENDBRANCH   7  16
ENDBRANCH   1  13
BRANCH   4  17
ATOM     17  O   UNL     1       7.312   7.593  17.087  0.00  0.00    +0.000 OA
BRANCH  17  18
ATOM     18  C   UNL     1       8.259   8.046  18.061  0.00  0.00    +0.000 C 
BRANCH  18  19
ATOM     19  C   UNL     1       8.331   9.567  18.044  0.00  0.00    +0.000 C 
BRANCH  19  20
ATOM     20  C   UNL     1       9.370  10.094  19.047  0.00  0.00    +0.000 C 
BRANCH  20  21
ATOM     21  N   UNL     1       9.255  11.530  19.291  0.00  0.00    +0.000 NA
ATOM     22  C   UNL     1       9.278  11.912  20.707  0.00  0.00    +0.000 C 
ATOM     23  C   UNL     1      10.389  12.930  20.847  0.00  0.00    +0.000 C 
ATOM     24  C   UNL     1      10.422  13.588  19.485  0.00  0.00    +0.000 C 
ATOM     25  C   UNL     1      10.137  12.431  18.525  0.00  0.00    +0.000 C 
ATOM     26  C   UNL     1      11.446  11.843  17.990  0.00  0.00    +0.000 C 
ENDBRANCH  20  21
ENDBRANCH  19  20
ENDBRANCH  18  19
ENDBRANCH  17  18
ENDBRANCH   4  17
TORSDOF 7
ENDMDL
MODEL 7
REMARK VINA RESULT:      -7.4      1.375      2.551
REMARK  Name = 
REMARK  9 active torsions:
REMARK  status: ('A' for Active; 'I' for Inactive)
REMARK    1  A    between atoms: C_1  and  O_2
REMARK    2  A    between atoms: O_2  and  C_3
REMARK    3  A    between atoms: C_9  and  C_10
REMARK    4  A    between atoms: C_13  and  O_14
REMARK    5  A    between atoms: O_14  and  C_15
REMARK    6  A    between atoms: C_15  and  C_16
REMARK    7  A    between atoms: C_16  and  C_17
REMARK    8  A    between atoms: C_17  and  N_18
REMARK    9  A    between atoms: C_22  and  C_23
REMARK                            x       y       z     vdW  Elec       q    Type
REMARK                         _______ _______ _______ _____ _____    ______ ____
ROOT
ATOM      1  C   UNL     1       4.572   4.634  17.683  0.00  0.00    +0.000 A 
ATOM      2  C   UNL     1       5.541   4.740  18.685  0.00  0.00    +0.000 A 
ATOM      3  C   UNL     1       6.663   5.545  18.493  0.00  0.00    +0.000 A 
ATOM      4  C   UNL     1       6.825   6.263  17.304  0.00  0.00    +0.000 A 
ATOM      5  C   UNL     1       5.891   6.104  16.279  0.00  0.00    +0.000 A 
ATOM      6  C   UNL     1       4.767   5.295  16.465  0.00  0.00    +0.000 A 
ENDROOT
BRANCH   1  13
ATOM      7  C   UNL     1       2.239   4.561  18.392  0.00  0.00    +0.000 A 
ATOM      8  C   UNL     1       1.034   3.732  18.635  0.00  0.00    +0.000 A 
ATOM      9  N   UNL     1       0.950   2.445  18.514  0.00  0.00    +0.000 NA
ATOM     10  N   UNL     1       2.085   1.816  18.107  0.00  0.00    +0.000 N 
ATOM     11  C   UNL     1       3.278   2.419  17.800  0.00  0.00    +0.000 A 
ATOM     12  O   UNL     1       4.246   1.764  17.425  0.00  0.00    +0.000 OA
ATOM     13  C   UNL     1       3.328   3.900  17.954  0.00  0.00    +0.000 A 
ATOM     14  H   UNL     1       2.033   0.807  17.997  0.00  0.00    +0.000 HD
BRANCH   7  16
ATOM     15  C   UNL     1       2.325   6.423  19.882  0.00  0.00    +0.000 C 
ATOM     16  O   UNL     1       2.231   5.937  18.548  0.00  0.00    +0.000 OA
ENDBRANCH   7  16
ENDBRANCH   1  13
BRANCH   4  17
ATOM     17  O   UNL     1       7.838   7.154  17.052  0.00  0.00    +0.000 OA
BRANCH  17  18
ATOM     18  C   UNL     1       7.622   8.472  17.566  0.00  0.00    +0.000 C 
BRANCH  18  19
ATOM     19  C   UNL     1       8.757   8.852  18.508  0.00  0.00    +0.000 C 
BRANCH  19  20
ATOM     20  C   UNL     1       8.808  10.370  18.747  0.00  0.00    +0.000 C 
BRANCH  20  21
ATOM     21  N   UNL     1      10.141  10.852  19.098  0.00  0.00    +0.000 NA
ATOM     22  C   UNL     1      10.805  11.630  18.046  0.00  0.00    +0.000 C 
ATOM     23  C   UNL     1      11.187  12.949  18.682  0.00  0.00    +0.000 C 
ATOM     24  C   UNL     1      11.396  12.579  20.135  0.00  0.00    +0.000 C 
ATOM     25  C   UNL     1      10.308  11.535  20.394  0.00  0.00    +0.000 C 
ATOM     26  C   UNL     1       9.067  12.193  21.004  0.00  0.00    +0.000 C 
ENDBRANCH  20  21
ENDBRANCH  19  20
ENDBRANCH  18  19
ENDBRANCH  17  18
ENDBRANCH   4  17
TORSDOF 7
ENDMDL
MODEL 8
REMARK VINA RESULT:      -7.3      1.209      2.595
REMARK  Name = 
REMARK  9 active torsions:
REMARK  status: ('A' for Active; 'I' for Inactive)
REMARK    1  A    between atoms: C_1  and  O_2
REMARK    2  A    between atoms: O_2  and  C_3
REMARK    3  A    between atoms: C_9  and  C_10
REMARK    4  A    between atoms: C_13  and  O_14
REMARK    5  A    between atoms: O_14  and  C_15
REMARK    6  A    between atoms: C_15  and  C_16
REMARK    7  A    between atoms: C_16  and  C_17
REMARK    8  A    between atoms: C_17  and  N_18
REMARK    9  A    between atoms: C_22  and  C_23
REMARK                            x       y       z     vdW  Elec       q    Type
REMARK                         _______ _______ _______ _____ _____    ______ ____
ROOT
ATOM      1  C   UNL     1       4.455   5.168  18.092  0.00  0.00    +0.000 A 
ATOM      2  C   UNL     1       4.373   6.080  17.037  0.00  0.00    +0.000 A 
ATOM      3  C   UNL     1       5.460   6.899  16.732  0.00  0.00    +0.000 A 
ATOM      4  C   UNL     1       6.644   6.808  17.469  0.00  0.00    +0.000 A 
ATOM      5  C   UNL     1       6.702   5.944  18.564  0.00  0.00    +0.000 A 
ATOM      6  C   UNL     1       5.613   5.125  18.876  0.00  0.00    +0.000 A 
ENDROOT
BRANCH   1  13
ATOM      7  C   UNL     1       2.311   4.557  19.081  0.00  0.00    +0.000 A 
ATOM      8  C   UNL     1       1.258   3.525  19.239  0.00  0.00    +0.000 A 
ATOM      9  N   UNL     1       1.279   2.325  18.752  0.00  0.00    +0.000 NA
ATOM     10  N   UNL     1       2.376   2.009  18.013  0.00  0.00    +0.000 N 
ATOM     11  C   UNL     1       3.427   2.842  17.728  0.00  0.00    +0.000 A 
ATOM     12  O   UNL     1       4.370   2.468  17.036  0.00  0.00    +0.000 OA
ATOM     13  C   UNL     1       3.360   4.213  18.310  0.00  0.00    +0.000 A 
ATOM     14  H   UNL     1       2.404   1.075  17.614  0.00  0.00    +0.000 HD
BRANCH   7  16
ATOM     15  C   UNL     1       1.534   5.894  20.899  0.00  0.00    +0.000 C 
ATOM     16  O   UNL     1       2.196   5.818  19.642  0.00  0.00    +0.000 OA
ENDBRANCH   7  16
ENDBRANCH   1  13
BRANCH   4  17
ATOM     17  O   UNL     1       7.800   7.496  17.194  0.00  0.00    +0.000 OA
BRANCH  17  18
ATOM     18  C   UNL     1       7.805   8.861  17.627  0.00  0.00    +0.000 C 
BRANCH  18  19
ATOM     19  C   UNL     1       8.852   9.053  18.717  0.00  0.00    +0.000 C 
BRANCH  19  20
ATOM     20  C   UNL     1       9.038  10.539  19.064  0.00  0.00    +0.000 C 
BRANCH  20  21
ATOM     21  N   UNL     1      10.431  10.974  18.995  0.00  0.00    +0.000 NA
ATOM     22  C   UNL     1      10.780  11.712  17.776  0.00  0.00    +0.000 C 
ATOM     23  C   UNL     1      11.375  13.024  18.237  0.00  0.00    +0.000 C 
ATOM     24  C   UNL     1      11.990  12.668  19.573  0.00  0.00    +0.000 C 
ATOM     25  C   UNL     1      10.994  11.670  20.167  0.00  0.00    +0.000 C 
ATOM     26  C   UNL     1      10.010  12.383  21.099  0.00  0.00    +0.000 C 
ENDBRANCH  20  21
ENDBRANCH  19  20
ENDBRANCH  18  19
ENDBRANCH  17  18
ENDBRANCH   4  17
TORSDOF 7
ENDMDL
MODEL 9
REMARK VINA RESULT:      -7.2      1.313      2.742
REMARK  Name = 
REMARK  9 active torsions:
REMARK  status: ('A' for Active; 'I' for Inactive)
REMARK    1  A    between atoms: C_1  and  O_2
REMARK    2  A    between atoms: O_2  and  C_3
REMARK    3  A    between atoms: C_9  and  C_10
REMARK    4  A    between atoms: C_13  and  O_14
REMARK    5  A    between atoms: O_14  and  C_15
REMARK    6  A    between atoms: C_15  and  C_16
REMARK    7  A    between atoms: C_16  and  C_17
REMARK    8  A    between atoms: C_17  and  N_18
REMARK    9  A    between atoms: C_22  and  C_23
REMARK                            x       y       z     vdW  Elec       q    Type
REMARK                         _______ _______ _______ _____ _____    ______ ____
ROOT
ATOM      1  C   UNL     1       4.308   4.980  18.081  0.00  0.00    +0.000 A 
ATOM      2  C   UNL     1       4.248   5.830  16.973  0.00  0.00    +0.000 A 
ATOM      3  C   UNL     1       5.345   6.624  16.637  0.00  0.00    +0.000 A 
ATOM      4  C   UNL     1       6.517   6.570  17.397  0.00  0.00    +0.000 A 
ATOM      5  C   UNL     1       6.552   5.771  18.541  0.00  0.00    +0.000 A 
ATOM      6  C   UNL     1       5.454   4.977  18.884  0.00  0.00    +0.000 A 
ENDROOT
BRANCH   1  13
ATOM      7  C   UNL     1       2.142   4.442  19.063  0.00  0.00    +0.000 A 
ATOM      8  C   UNL     1       1.081   3.426  19.266  0.00  0.00    +0.000 A 
ATOM      9  N   UNL     1       1.105   2.198  18.856  0.00  0.00    +0.000 NA
ATOM     10  N   UNL     1       2.216   1.831  18.161  0.00  0.00    +0.000 N 
ATOM     11  C   UNL     1       3.276   2.640  17.845  0.00  0.00    +0.000 A 
ATOM     12  O   UNL     1       4.231   2.219  17.198  0.00  0.00    +0.000 OA
ATOM     13  C   UNL     1       3.204   4.045  18.337  0.00  0.00    +0.000 A 
ATOM     14  H   UNL     1       2.246   0.873  17.823  0.00  0.00    +0.000 HD
BRANCH   7  16
ATOM     15  C   UNL     1       1.599   5.877  20.891  0.00  0.00    +0.000 C 
ATOM     16  O   UNL     1       2.023   5.737  19.540  0.00  0.00    +0.000 OA
ENDBRANCH   7  16
ENDBRANCH   1  13
BRANCH   4  17
ATOM     17  O   UNL     1       7.681   7.234  17.100  0.00  0.00    +0.000 OA
BRANCH  17  18
ATOM     18  C   UNL     1       8.210   8.027  18.168  0.00  0.00    +0.000 C 
BRANCH  18  19
ATOM     19  C   UNL     1       8.028   9.506  17.853  0.00  0.00    +0.000 C 
BRANCH  19  20
ATOM     20  C   UNL     1       9.289  10.316  18.197  0.00  0.00    +0.000 C 
BRANCH  20  21
ATOM     21  N   UNL     1       9.044  11.374  19.174  0.00  0.00    +0.000 NA
ATOM     22  C   UNL     1       9.507  11.071  20.532  0.00  0.00    +0.000 C 
ATOM     23  C   UNL     1      10.420  12.212  20.926  0.00  0.00    +0.000 C 
ATOM     24  C   UNL     1       9.862  13.380  20.142  0.00  0.00    +0.000 C 
ATOM     25  C   UNL     1       9.442  12.748  18.814  0.00  0.00    +0.000 C 
ATOM     26  C   UNL     1      10.550  12.906  17.770  0.00  0.00    +0.000 C 
ENDBRANCH  20  21
ENDBRANCH  19  20
ENDBRANCH  18  19
ENDBRANCH  17  18
ENDBRANCH   4  17
TORSDOF 7
ENDMDL
