MODEL 1
REMARK VINA RESULT:      -7.2      0.000      0.000
REMARK  Name = 
REMARK  10 active torsions:
REMARK  status: ('A' for Active; 'I' for Inactive)
REMARK    1  A    between atoms: C_1  and  C_2
REMARK    2  A    between atoms: C_2  and  C_3
REMARK    3  A    between atoms: C_2  and  C_4
REMARK    4  A    between atoms: C_4  and  N_5
REMARK    5  A    between atoms: N_8  and  C_9
REMARK    6  A    between atoms: C_13  and  S_14
REMARK    7  A    between atoms: S_14  and  C_15
REMARK    8  A    between atoms: C_19  and  C_20
REMARK    9  A    between atoms: C_20  and  C_21
REMARK   10  A    between atoms: C_26  and  C_27
REMARK                            x       y       z     vdW  Elec       q    Type
REMARK                         _______ _______ _______ _____ _____    ______ ____
ROOT
ATOM      1  N   UNL     1       0.721  10.636  19.523  0.00  0.00    +0.000 N 
ATOM      2  C   UNL     1       0.044  10.784  20.749  0.00  0.00    +0.000 A 
ATOM      3  O   UNL     1      -0.637  11.776  21.004  0.00  0.00    +0.000 OA
ATOM      4  N   UNL     1       0.185   9.754  21.675  0.00  0.00    +0.000 N 
ATOM      5  C   UNL     1      -0.305   9.952  23.019  0.00  0.00    +0.000 C 
ATOM      6  C   UNL     1       0.392   8.449  21.282  0.00  0.00    +0.000 A 
ATOM      7  O   UNL     1      -0.137   7.481  21.826  0.00  0.00    +0.000 OA
ATOM      8  C   UNL     1       1.256   8.333  20.139  0.00  0.00    +0.000 A 
ATOM      9  C   UNL     1       2.111   7.265  19.734  0.00  0.00    +0.000 A 
ATOM     10  C   UNL     1       2.481   7.410  18.406  0.00  0.00    +0.000 A 
ATOM     11  S   UNL     1       2.190   9.037  17.876  0.00  0.00    +0.000 S 
ATOM     12  C   UNL     1       1.331   9.405  19.285  0.00  0.00    +0.000 A 
ENDROOT
BRANCH   1  13
ATOM     13  C   UNL     1       0.765  11.821  18.657  0.00  0.00    +0.000 C 
BRANCH  13  15
ATOM     14  C   UNL     1       2.957  12.956  18.028  0.00  0.00    +0.000 C 
ATOM     15  C   UNL     1       1.860  12.834  19.083  0.00  0.00    +0.000 C 
ATOM     16  C   UNL     1       1.262  14.202  19.395  0.00  0.00    +0.000 C 
ENDBRANCH  13  15
ENDBRANCH   1  13
BRANCH   9  17
ATOM     17  S   UNL     1       2.493   5.868  20.748  0.00  0.00    +0.000 S 
BRANCH  17  18
ATOM     18  C   UNL     1       1.107   4.716  20.339  0.00  0.00    +0.000 C 
ATOM     19  C   UNL     1       1.283   3.980  18.993  0.00  0.00    +0.000 C 
ATOM     20  C   UNL     1       0.991   2.650  19.698  0.00  0.00    +0.000 C 
ATOM     21  C   UNL     1       1.274   3.343  21.041  0.00  0.00    +0.000 C 
ENDBRANCH  17  18
ENDBRANCH   9  17
BRANCH  10  22
ATOM     22  C   UNL     1       3.050   6.393  17.439  0.00  0.00    +0.000 C 
BRANCH  22  23
ATOM     23  C   UNL     1       4.584   6.307  17.394  0.00  0.00    +0.000 A 
ATOM     24  C   UNL     1       5.379   7.473  17.418  0.00  0.00    +0.000 A 
ATOM     25  C   UNL     1       6.774   7.415  17.468  0.00  0.00    +0.000 A 
ATOM     26  C   UNL     1       7.419   6.189  17.474  0.00  0.00    +0.000 A 
ATOM     27  C   UNL     1       6.665   5.022  17.387  0.00  0.00    +0.000 A 
ATOM     28  C   UNL     1       5.251   5.056  17.334  0.00  0.00    +0.000 A 
BRANCH  28  29
ATOM     29  C   UNL     1       4.560   3.715  17.189  0.00  0.00    +0.000 C 
ATOM     30  F   UNL     1       5.254   2.774  16.493  0.00  0.00    +0.000 F 
ATOM     31  F   UNL     1       4.292   3.146  18.401  0.00  0.00    +0.000 F 
ATOM     32  F   UNL     1       3.357   3.821  16.561  0.00  0.00    +0.000 F 
ENDBRANCH  28  29
ENDBRANCH  22  23
ENDBRANCH  10  22
TORSDOF 7
ENDMDL
MODEL 2
REMARK VINA RESULT:      -7.1      1.273      1.562
REMARK  Name = 
REMARK  10 active torsions:
REMARK  status: ('A' for Active; 'I' for Inactive)
REMARK    1  A    between atoms: C_1  and  C_2
REMARK    2  A    between atoms: C_2  and  C_3
REMARK    3  A    between atoms: C_2  and  C_4
REMARK    4  A    between atoms: C_4  and  N_5
REMARK    5  A    between atoms: N_8  and  C_9
REMARK    6  A    between atoms: C_13  and  S_14
REMARK    7  A    between atoms: S_14  and  C_15
REMARK    8  A    between atoms: C_19  and  C_20
REMARK    9  A    between atoms: C_20  and  C_21
REMARK   10  A    between atoms: C_26  and  C_27
REMARK                            x       y       z     vdW  Elec       q    Type
REMARK                         _______ _______ _______ _____ _____    ______ ____
ROOT
ATOM      1  N   UNL     1       0.933  10.397  19.395  0.00  0.00    +0.000 N 
ATOM      2  C   UNL     1       0.131  10.564  20.541  0.00  0.00    +0.000 A 
ATOM      3  O   UNL     1      -0.553  11.571  20.719  0.00  0.00    +0.000 OA
ATOM      4  N   UNL     1       0.149   9.535  21.479  0.00  0.00    +0.000 N 
ATOM      5  C   UNL     1      -0.479   9.749  22.762  0.00  0.00    +0.000 C 
ATOM      6  C   UNL     1       0.370   8.225  21.112  0.00  0.00    +0.000 A 
ATOM      7  O   UNL     1      -0.234   7.270  21.598  0.00  0.00    +0.000 OA
ATOM      8  C   UNL     1       1.350   8.086  20.070  0.00  0.00    +0.000 A 
ATOM      9  C   UNL     1       2.221   6.999  19.761  0.00  0.00    +0.000 A 
ATOM     10  C   UNL     1       2.734   7.131  18.481  0.00  0.00    +0.000 A 
ATOM     11  S   UNL     1       2.537   8.761  17.919  0.00  0.00    +0.000 S 
ATOM     12  C   UNL     1       1.539   9.152  19.226  0.00  0.00    +0.000 A 
ENDROOT
BRANCH   1  13
ATOM     13  C   UNL     1       1.094  11.577  18.536  0.00  0.00    +0.000 C 
BRANCH  13  15
ATOM     14  C   UNL     1       3.154  12.931  17.894  0.00  0.00    +0.000 C 
ATOM     15  C   UNL     1       2.217  12.527  19.029  0.00  0.00    +0.000 C 
ATOM     16  C   UNL     1       1.640  13.763  19.713  0.00  0.00    +0.000 C 
ENDBRANCH  13  15
ENDBRANCH   1  13
BRANCH   9  17
ATOM     17  S   UNL     1       2.462   5.598  20.813  0.00  0.00    +0.000 S 
BRANCH  17  18
ATOM     18  C   UNL     1       1.095   4.480  20.270  0.00  0.00    +0.000 C 
ATOM     19  C   UNL     1       1.354   3.791  18.913  0.00  0.00    +0.000 C 
ATOM     20  C   UNL     1       1.002   2.440  19.546  0.00  0.00    +0.000 C 
ATOM     21  C   UNL     1       1.201   3.080  20.930  0.00  0.00    +0.000 C 
ENDBRANCH  17  18
ENDBRANCH   9  17
BRANCH  10  22
ATOM     22  C   UNL     1       3.383   6.099  17.583  0.00  0.00    +0.000 C 
BRANCH  22  23
ATOM     23  C   UNL     1       4.876   5.839  17.841  0.00  0.00    +0.000 A 
ATOM     24  C   UNL     1       5.395   5.826  19.154  0.00  0.00    +0.000 A 
ATOM     25  C   UNL     1       6.729   5.504  19.417  0.00  0.00    +0.000 A 
ATOM     26  C   UNL     1       7.591   5.206  18.374  0.00  0.00    +0.000 A 
ATOM     27  C   UNL     1       7.125   5.272  17.065  0.00  0.00    +0.000 A 
ATOM     28  C   UNL     1       5.779   5.598  16.774  0.00  0.00    +0.000 A 
BRANCH  28  29
ATOM     29  C   UNL     1       5.421   5.684  15.304  0.00  0.00    +0.000 C 
ATOM     30  F   UNL     1       4.539   4.747  14.863  0.00  0.00    +0.000 F 
ATOM     31  F   UNL     1       4.860   6.888  14.985  0.00  0.00    +0.000 F 
ATOM     32  F   UNL     1       6.513   5.566  14.499  0.00  0.00    +0.000 F 
ENDBRANCH  28  29
ENDBRANCH  22  23
ENDBRANCH  10  22
TORSDOF 7
ENDMDL
MODEL 3
REMARK VINA RESULT:      -6.7      0.658      1.229
REMARK  Name = 
REMARK  10 active torsions:
REMARK  status: ('A' for Active; 'I' for Inactive)
REMARK    1  A    between atoms: C_1  and  C_2
REMARK    2  A    between atoms: C_2  and  C_3
REMARK    3  A    between atoms: C_2  and  C_4
REMARK    4  A    between atoms: C_4  and  N_5
REMARK    5  A    between atoms: N_8  and  C_9
REMARK    6  A    between atoms: C_13  and  S_14
REMARK    7  A    between atoms: S_14  and  C_15
REMARK    8  A    between atoms: C_19  and  C_20
REMARK    9  A    between atoms: C_20  and  C_21
REMARK   10  A    between atoms: C_26  and  C_27
REMARK                            x       y       z     vdW  Elec       q    Type
REMARK                         _______ _______ _______ _____ _____    ______ ____
ROOT
ATOM      1  N   UNL     1       0.928  10.564  19.764  0.00  0.00    +0.000 N 
ATOM      2  C   UNL     1       0.273  10.639  21.009  0.00  0.00    +0.000 A 
ATOM      3  O   UNL     1      -0.379  11.627  21.346  0.00  0.00    +0.000 OA
ATOM      4  N   UNL     1       0.399   9.541  21.855  0.00  0.00    +0.000 N 
ATOM      5  C   UNL     1      -0.066   9.653  23.218  0.00  0.00    +0.000 C 
ATOM      6  C   UNL     1       0.567   8.264  21.365  0.00  0.00    +0.000 A 
ATOM      7  O   UNL     1       0.021   7.272  21.846  0.00  0.00    +0.000 OA
ATOM      8  C   UNL     1       1.412   8.210  20.203  0.00  0.00    +0.000 A 
ATOM      9  C   UNL     1       2.232   7.153  19.708  0.00  0.00    +0.000 A 
ATOM     10  C   UNL     1       2.587   7.386  18.388  0.00  0.00    +0.000 A 
ATOM     11  S   UNL     1       2.331   9.053  17.982  0.00  0.00    +0.000 S 
ATOM     12  C   UNL     1       1.502   9.339  19.428  0.00  0.00    +0.000 A 
ENDROOT
BRANCH   1  13
ATOM     13  C   UNL     1       0.990  11.808  18.986  0.00  0.00    +0.000 C 
BRANCH  13  15
ATOM     14  C   UNL     1      -0.302  13.869  18.226  0.00  0.00    +0.000 C 
ATOM     15  C   UNL     1      -0.408  12.441  18.757  0.00  0.00    +0.000 C 
ATOM     16  C   UNL     1      -1.261  11.585  17.824  0.00  0.00    +0.000 C 
ENDBRANCH  13  15
ENDBRANCH   1  13
BRANCH   9  17
ATOM     17  S   UNL     1       2.593   5.677  20.611  0.00  0.00    +0.000 S 
BRANCH  17  18
ATOM     18  C   UNL     1       1.105   4.642  20.250  0.00  0.00    +0.000 C 
ATOM     19  C   UNL     1       1.139   3.962  18.865  0.00  0.00    +0.000 C 
ATOM     20  C   UNL     1       0.801   2.622  19.529  0.00  0.00    +0.000 C 
ATOM     21  C   UNL     1       1.220   3.229  20.878  0.00  0.00    +0.000 C 
ENDBRANCH  17  18
ENDBRANCH   9  17
BRANCH  10  22
ATOM     22  C   UNL     1       3.116   6.429  17.341  0.00  0.00    +0.000 C 
BRANCH  22  23
ATOM     23  C   UNL     1       4.637   6.212  17.348  0.00  0.00    +0.000 A 
ATOM     24  C   UNL     1       5.528   7.307  17.359  0.00  0.00    +0.000 A 
ATOM     25  C   UNL     1       6.911   7.134  17.456  0.00  0.00    +0.000 A 
ATOM     26  C   UNL     1       7.449   5.858  17.524  0.00  0.00    +0.000 A 
ATOM     27  C   UNL     1       6.601   4.757  17.451  0.00  0.00    +0.000 A 
ATOM     28  C   UNL     1       5.198   4.908  17.351  0.00  0.00    +0.000 A 
BRANCH  28  29
ATOM     29  C   UNL     1       4.399   3.625  17.229  0.00  0.00    +0.000 C 
ATOM     30  F   UNL     1       3.222   3.734  16.557  0.00  0.00    +0.000 F 
ATOM     31  F   UNL     1       5.099   2.649  16.580  0.00  0.00    +0.000 F 
ATOM     32  F   UNL     1       4.080   3.100  18.444  0.00  0.00    +0.000 F 
ENDBRANCH  28  29
ENDBRANCH  22  23
ENDBRANCH  10  22
TORSDOF 7
ENDMDL
MODEL 4
REMARK VINA RESULT:      -6.7      0.834      1.155
REMARK  Name = 
REMARK  10 active torsions:
REMARK  status: ('A' for Active; 'I' for Inactive)
REMARK    1  A    between atoms: C_1  and  C_2
REMARK    2  A    between atoms: C_2  and  C_3
REMARK    3  A    between atoms: C_2  and  C_4
REMARK    4  A    between atoms: C_4  and  N_5
REMARK    5  A    between atoms: N_8  and  C_9
REMARK    6  A    between atoms: C_13  and  S_14
REMARK    7  A    between atoms: S_14  and  C_15
REMARK    8  A    between atoms: C_19  and  C_20
REMARK    9  A    between atoms: C_20  and  C_21
REMARK   10  A    between atoms: C_26  and  C_27
REMARK                            x       y       z     vdW  Elec       q    Type
REMARK                         _______ _______ _______ _____ _____    ______ ____
ROOT
ATOM      1  N   UNL     1       0.888  10.417  19.456  0.00  0.00    +0.000 N 
ATOM      2  C   UNL     1       0.198  10.345  20.682  0.00  0.00    +0.000 A 
ATOM      3  O   UNL     1      -0.584  11.223  21.045  0.00  0.00    +0.000 OA
ATOM      4  N   UNL     1       0.447   9.232  21.482  0.00  0.00    +0.000 N 
ATOM      5  C   UNL     1      -0.062   9.216  22.833  0.00  0.00    +0.000 C 
ATOM      6  C   UNL     1       0.791   8.013  20.939  0.00  0.00    +0.000 A 
ATOM      7  O   UNL     1       0.368   6.937  21.357  0.00  0.00    +0.000 OA
ATOM      8  C   UNL     1       1.664   8.126  19.802  0.00  0.00    +0.000 A 
ATOM      9  C   UNL     1       2.627   7.210  19.284  0.00  0.00    +0.000 A 
ATOM     10  C   UNL     1       2.980   7.551  17.988  0.00  0.00    +0.000 A 
ATOM     11  S   UNL     1       2.519   9.189  17.651  0.00  0.00    +0.000 S 
ATOM     12  C   UNL     1       1.625   9.294  19.082  0.00  0.00    +0.000 A 
ENDROOT
BRANCH   1  13
ATOM     13  C   UNL     1       0.806  11.695  18.738  0.00  0.00    +0.000 C 
BRANCH  13  15
ATOM     14  C   UNL     1       2.879  13.058  18.158  0.00  0.00    +0.000 C 
ATOM     15  C   UNL     1       1.849  12.729  19.236  0.00  0.00    +0.000 C 
ATOM     16  C   UNL     1       1.174  14.003  19.738  0.00  0.00    +0.000 C 
ENDBRANCH  13  15
ENDBRANCH   1  13
BRANCH   9  17
ATOM     17  S   UNL     1       3.155   5.750  20.130  0.00  0.00    +0.000 S 
BRANCH  17  18
ATOM     18  C   UNL     1       2.106   4.453  19.332  0.00  0.00    +0.000 C 
ATOM     19  C   UNL     1       2.717   3.037  19.385  0.00  0.00    +0.000 C 
ATOM     20  C   UNL     1       1.391   2.499  19.935  0.00  0.00    +0.000 C 
ATOM     21  C   UNL     1       0.997   3.943  20.288  0.00  0.00    +0.000 C 
ENDBRANCH  17  18
ENDBRANCH   9  17
BRANCH  10  22
ATOM     22  C   UNL     1       3.654   6.722  16.914  0.00  0.00    +0.000 C 
BRANCH  22  23
ATOM     23  C   UNL     1       5.132   6.385  17.167  0.00  0.00    +0.000 A 
ATOM     24  C   UNL     1       5.991   7.309  17.800  0.00  0.00    +0.000 A 
ATOM     25  C   UNL     1       7.313   6.990  18.120  0.00  0.00    +0.000 A 
ATOM     26  C   UNL     1       7.825   5.743  17.798  0.00  0.00    +0.000 A 
ATOM     27  C   UNL     1       7.022   4.833  17.117  0.00  0.00    +0.000 A 
ATOM     28  C   UNL     1       5.681   5.135  16.781  0.00  0.00    +0.000 A 
BRANCH  28  29
ATOM     29  C   UNL     1       4.938   4.072  15.996  0.00  0.00    +0.000 C 
ATOM     30  F   UNL     1       3.712   3.739  16.482  0.00  0.00    +0.000 F 
ATOM     31  F   UNL     1       4.726   4.449  14.701  0.00  0.00    +0.000 F 
ATOM     32  F   UNL     1       5.634   2.903  15.926  0.00  0.00    +0.000 F 
ENDBRANCH  28  29
ENDBRANCH  22  23
ENDBRANCH  10  22
TORSDOF 7
ENDMDL
MODEL 5
REMARK VINA RESULT:      -6.6      4.210      7.120
REMARK  Name = 
REMARK  10 active torsions:
REMARK  status: ('A' for Active; 'I' for Inactive)
REMARK    1  A    between atoms: C_1  and  C_2
REMARK    2  A    between atoms: C_2  and  C_3
REMARK    3  A    between atoms: C_2  and  C_4
REMARK    4  A    between atoms: C_4  and  N_5
REMARK    5  A    between atoms: N_8  and  C_9
REMARK    6  A    between atoms: C_13  and  S_14
REMARK    7  A    between atoms: S_14  and  C_15
REMARK    8  A    between atoms: C_19  and  C_20
REMARK    9  A    between atoms: C_20  and  C_21
REMARK   10  A    between atoms: C_26  and  C_27
REMARK                            x       y       z     vdW  Elec       q    Type
REMARK                         _______ _______ _______ _____ _____    ______ ____
ROOT
ATOM      1  N   UNL     1       6.129   6.583  16.721  0.00  0.00    +0.000 N 
ATOM      2  C   UNL     1       6.552   5.445  16.006  0.00  0.00    +0.000 A 
ATOM      3  O   UNL     1       7.679   5.361  15.520  0.00  0.00    +0.000 OA
ATOM      4  N   UNL     1       5.631   4.411  15.864  0.00  0.00    +0.000 N 
ATOM      5  C   UNL     1       5.935   3.325  14.962  0.00  0.00    +0.000 C 
ATOM      6  C   UNL     1       4.659   4.171  16.811  0.00  0.00    +0.000 A 
ATOM      7  O   UNL     1       4.319   3.045  17.168  0.00  0.00    +0.000 OA
ATOM      8  C   UNL     1       4.108   5.374  17.375  0.00  0.00    +0.000 A 
ATOM      9  C   UNL     1       2.825   5.621  17.946  0.00  0.00    +0.000 A 
ATOM     10  C   UNL     1       2.836   6.793  18.686  0.00  0.00    +0.000 A 
ATOM     11  S   UNL     1       4.212   7.760  18.260  0.00  0.00    +0.000 S 
ATOM     12  C   UNL     1       4.891   6.502  17.358  0.00  0.00    +0.000 A 
ENDROOT
BRANCH   1  13
ATOM     13  C   UNL     1       7.012   7.754  16.661  0.00  0.00    +0.000 C 
BRANCH  13  15
ATOM     14  C   UNL     1       8.380   9.069  18.362  0.00  0.00    +0.000 C 
ATOM     15  C   UNL     1       8.146   7.704  17.718  0.00  0.00    +0.000 C 
ATOM     16  C   UNL     1       7.866   6.650  18.785  0.00  0.00    +0.000 C 
ENDBRANCH  13  15
ENDBRANCH   1  13
BRANCH   9  17
ATOM     17  S   UNL     1       1.469   4.491  17.854  0.00  0.00    +0.000 S 
BRANCH  17  18
ATOM     18  C   UNL     1       1.801   3.388  19.300  0.00  0.00    +0.000 C 
ATOM     19  C   UNL     1       2.961   3.868  20.198  0.00  0.00    +0.000 C 
ATOM     20  C   UNL     1       2.058   3.712  21.427  0.00  0.00    +0.000 C 
ATOM     21  C   UNL     1       0.844   3.687  20.483  0.00  0.00    +0.000 C 
ENDBRANCH  17  18
ENDBRANCH   9  17
BRANCH  10  22
ATOM     22  C   UNL     1       1.872   7.281  19.748  0.00  0.00    +0.000 C 
BRANCH  22  23
ATOM     23  C   UNL     1       1.203   8.635  19.463  0.00  0.00    +0.000 A 
ATOM     24  C   UNL     1       1.196   9.185  18.163  0.00  0.00    +0.000 A 
ATOM     25  C   UNL     1       0.518  10.370  17.865  0.00  0.00    +0.000 A 
ATOM     26  C   UNL     1      -0.158  11.053  18.863  0.00  0.00    +0.000 A 
ATOM     27  C   UNL     1      -0.117  10.570  20.168  0.00  0.00    +0.000 A 
ATOM     28  C   UNL     1       0.566   9.374  20.494  0.00  0.00    +0.000 A 
BRANCH  28  29
ATOM     29  C   UNL     1       0.573   8.993  21.960  0.00  0.00    +0.000 C 
ATOM     30  F   UNL     1      -0.018   9.888  22.798  0.00  0.00    +0.000 F 
ATOM     31  F   UNL     1      -0.070   7.809  22.183  0.00  0.00    +0.000 F 
ATOM     32  F   UNL     1       1.835   8.820  22.441  0.00  0.00    +0.000 F 
ENDBRANCH  28  29
ENDBRANCH  22  23
ENDBRANCH  10  22
TORSDOF 7
ENDMDL
MODEL 6
REMARK VINA RESULT:      -6.4      6.726     10.101
REMARK  Name = 
REMARK  10 active torsions:
REMARK  status: ('A' for Active; 'I' for Inactive)
REMARK    1  A    between atoms: C_1  and  C_2
REMARK    2  A    between atoms: C_2  and  C_3
REMARK    3  A    between atoms: C_2  and  C_4
REMARK    4  A    between atoms: C_4  and  N_5
REMARK    5  A    between atoms: N_8  and  C_9
REMARK    6  A    between atoms: C_13  and  S_14
REMARK    7  A    between atoms: S_14  and  C_15
REMARK    8  A    between atoms: C_19  and  C_20
REMARK    9  A    between atoms: C_20  and  C_21
REMARK   10  A    between atoms: C_26  and  C_27
REMARK                            x       y       z     vdW  Elec       q    Type
REMARK                         _______ _______ _______ _____ _____    ______ ____
ROOT
ATOM      1  N   UNL     1      -4.474  12.226  19.118  0.00  0.00    +0.000 N 
ATOM      2  C   UNL     1      -4.079  11.768  17.846  0.00  0.00    +0.000 A 
ATOM      3  O   UNL     1      -4.854  11.742  16.891  0.00  0.00    +0.000 OA
ATOM      4  N   UNL     1      -2.763  11.332  17.713  0.00  0.00    +0.000 N 
ATOM      5  C   UNL     1      -2.372  10.655  16.500  0.00  0.00    +0.000 C 
ATOM      6  C   UNL     1      -1.746  11.856  18.482  0.00  0.00    +0.000 A 
ATOM      7  O   UNL     1      -0.623  12.106  18.048  0.00  0.00    +0.000 OA
ATOM      8  C   UNL     1      -2.142  12.124  19.838  0.00  0.00    +0.000 A 
ATOM      9  C   UNL     1      -1.366  12.164  21.034  0.00  0.00    +0.000 A 
ATOM     10  C   UNL     1      -2.060  12.807  22.047  0.00  0.00    +0.000 A 
ATOM     11  S   UNL     1      -3.749  12.888  21.660  0.00  0.00    +0.000 S 
ATOM     12  C   UNL     1      -3.473  12.356  20.080  0.00  0.00    +0.000 A 
ENDROOT
BRANCH   1  13
ATOM     13  C   UNL     1      -5.912  12.453  19.310  0.00  0.00    +0.000 C 
BRANCH  13  15
ATOM     14  C   UNL     1      -7.751  11.853  20.968  0.00  0.00    +0.000 C 
ATOM     15  C   UNL     1      -6.594  11.323  20.125  0.00  0.00    +0.000 C 
ATOM     16  C   UNL     1      -7.067  10.190  19.219  0.00  0.00    +0.000 C 
ENDBRANCH  13  15
ENDBRANCH   1  13
BRANCH   9  17
ATOM     17  S   UNL     1       0.312  11.618  21.141  0.00  0.00    +0.000 S 
BRANCH  17  18
ATOM     18  C   UNL     1       0.127   9.790  20.935  0.00  0.00    +0.000 C 
ATOM     19  C   UNL     1       1.030   9.191  19.835  0.00  0.00    +0.000 C 
ATOM     20  C   UNL     1       1.512   8.128  20.829  0.00  0.00    +0.000 C 
ATOM     21  C   UNL     1       0.973   9.006  21.970  0.00  0.00    +0.000 C 
ENDBRANCH  17  18
ENDBRANCH   9  17
BRANCH  10  22
ATOM     22  C   UNL     1      -1.554  13.410  23.341  0.00  0.00    +0.000 C 
BRANCH  22  23
ATOM     23  C   UNL     1      -1.285  14.923  23.307  0.00  0.00    +0.000 A 
ATOM     24  C   UNL     1      -0.226  15.457  22.541  0.00  0.00    +0.000 A 
ATOM     25  C   UNL     1      -0.020  16.834  22.424  0.00  0.00    +0.000 A 
ATOM     26  C   UNL     1      -0.853  17.721  23.088  0.00  0.00    +0.000 A 
ATOM     27  C   UNL     1      -1.866  17.223  23.902  0.00  0.00    +0.000 A 
ATOM     28  C   UNL     1      -2.093  15.833  24.037  0.00  0.00    +0.000 A 
BRANCH  28  29
ATOM     29  C   UNL     1      -3.197  15.431  24.994  0.00  0.00    +0.000 C 
ATOM     30  F   UNL     1      -4.145  14.605  24.476  0.00  0.00    +0.000 F 
ATOM     31  F   UNL     1      -2.709  14.780  26.091  0.00  0.00    +0.000 F 
ATOM     32  F   UNL     1      -3.875  16.508  25.480  0.00  0.00    +0.000 F 
ENDBRANCH  28  29
ENDBRANCH  22  23
ENDBRANCH  10  22
TORSDOF 7
ENDMDL
MODEL 7
REMARK VINA RESULT:      -6.4      1.380      1.783
REMARK  Name = 
REMARK  10 active torsions:
REMARK  status: ('A' for Active; 'I' for Inactive)
REMARK    1  A    between atoms: C_1  and  C_2
REMARK    2  A    between atoms: C_2  and  C_3
REMARK    3  A    between atoms: C_2  and  C_4
REMARK    4  A    between atoms: C_4  and  N_5
REMARK    5  A    between atoms: N_8  and  C_9
REMARK    6  A    between atoms: C_13  and  S_14
REMARK    7  A    between atoms: S_14  and  C_15
REMARK    8  A    between atoms: C_19  and  C_20
REMARK    9  A    between atoms: C_20  and  C_21
REMARK   10  A    between atoms: C_26  and  C_27
REMARK                            x       y       z     vdW  Elec       q    Type
REMARK                         _______ _______ _______ _____ _____    ______ ____
ROOT
ATOM      1  N   UNL     1       1.066  10.315  19.670  0.00  0.00    +0.000 N 
ATOM      2  C   UNL     1       0.270  10.410  20.828  0.00  0.00    +0.000 A 
ATOM      3  O   UNL     1      -0.399  11.412  21.081  0.00  0.00    +0.000 OA
ATOM      4  N   UNL     1       0.275   9.316  21.689  0.00  0.00    +0.000 N 
ATOM      5  C   UNL     1      -0.346   9.446  22.986  0.00  0.00    +0.000 C 
ATOM      6  C   UNL     1       0.476   8.033  21.228  0.00  0.00    +0.000 A 
ATOM      7  O   UNL     1      -0.140   7.054  21.646  0.00  0.00    +0.000 OA
ATOM      8  C   UNL     1       1.451   7.955  20.174  0.00  0.00    +0.000 A 
ATOM      9  C   UNL     1       2.305   6.881  19.785  0.00  0.00    +0.000 A 
ATOM     10  C   UNL     1       2.818   7.098  18.515  0.00  0.00    +0.000 A 
ATOM     11  S   UNL     1       2.643   8.767  18.074  0.00  0.00    +0.000 S 
ATOM     12  C   UNL     1       1.654   9.077  19.410  0.00  0.00    +0.000 A 
ENDROOT
BRANCH   1  13
ATOM     13  C   UNL     1       1.243  11.552  18.898  0.00  0.00    +0.000 C 
BRANCH  13  15
ATOM     14  C   UNL     1      -0.935  10.669  17.913  0.00  0.00    +0.000 C 
ATOM     15  C   UNL     1       0.070  11.819  17.919  0.00  0.00    +0.000 C 
ATOM     16  C   UNL     1      -0.629  13.138  18.234  0.00  0.00    +0.000 C 
ENDBRANCH  13  15
ENDBRANCH   1  13
BRANCH   9  17
ATOM     17  S   UNL     1       2.529   5.405  20.732  0.00  0.00    +0.000 S 
BRANCH  17  18
ATOM     18  C   UNL     1       1.120   4.364  20.145  0.00  0.00    +0.000 C 
ATOM     19  C   UNL     1       1.336   3.755  18.742  0.00  0.00    +0.000 C 
ATOM     20  C   UNL     1       0.953   2.378  19.296  0.00  0.00    +0.000 C 
ATOM     21  C   UNL     1       1.192   2.923  20.714  0.00  0.00    +0.000 C 
ENDBRANCH  17  18
ENDBRANCH   9  17
BRANCH  10  22
ATOM     22  C   UNL     1       3.449   6.124  17.543  0.00  0.00    +0.000 C 
BRANCH  22  23
ATOM     23  C   UNL     1       4.934   5.813  17.787  0.00  0.00    +0.000 A 
ATOM     24  C   UNL     1       5.474   5.815  19.091  0.00  0.00    +0.000 A 
ATOM     25  C   UNL     1       6.798   5.448  19.344  0.00  0.00    +0.000 A 
ATOM     26  C   UNL     1       7.631   5.086  18.297  0.00  0.00    +0.000 A 
ATOM     27  C   UNL     1       7.147   5.135  16.993  0.00  0.00    +0.000 A 
ATOM     28  C   UNL     1       5.810   5.506  16.713  0.00  0.00    +0.000 A 
BRANCH  28  29
ATOM     29  C   UNL     1       5.432   5.565  15.246  0.00  0.00    +0.000 C 
ATOM     30  F   UNL     1       6.464   5.419  14.372  0.00  0.00    +0.000 F 
ATOM     31  F   UNL     1       4.532   4.595  14.912  0.00  0.00    +0.000 F 
ATOM     32  F   UNL     1       4.837   6.745  14.916  0.00  0.00    +0.000 F 
ENDBRANCH  28  29
ENDBRANCH  22  23
ENDBRANCH  10  22
TORSDOF 7
ENDMDL
MODEL 8
REMARK VINA RESULT:      -6.4      5.927      9.250
REMARK  Name = 
REMARK  10 active torsions:
REMARK  status: ('A' for Active; 'I' for Inactive)
REMARK    1  A    between atoms: C_1  and  C_2
REMARK    2  A    between atoms: C_2  and  C_3
REMARK    3  A    between atoms: C_2  and  C_4
REMARK    4  A    between atoms: C_4  and  N_5
REMARK    5  A    between atoms: N_8  and  C_9
REMARK    6  A    between atoms: C_13  and  S_14
REMARK    7  A    between atoms: S_14  and  C_15
REMARK    8  A    between atoms: C_19  and  C_20
REMARK    9  A    between atoms: C_20  and  C_21
REMARK   10  A    between atoms: C_26  and  C_27
REMARK                            x       y       z     vdW  Elec       q    Type
REMARK                         _______ _______ _______ _____ _____    ______ ____
ROOT
ATOM      1  N   UNL     1      -5.248  12.693  21.767  0.00  0.00    +0.000 N 
ATOM      2  C   UNL     1      -6.208  12.026  20.980  0.00  0.00    +0.000 A 
ATOM      3  O   UNL     1      -7.383  11.921  21.331  0.00  0.00    +0.000 OA
ATOM      4  N   UNL     1      -5.766  11.477  19.779  0.00  0.00    +0.000 N 
ATOM      5  C   UNL     1      -6.651  10.603  19.044  0.00  0.00    +0.000 C 
ATOM      6  C   UNL     1      -4.719  12.028  19.072  0.00  0.00    +0.000 A 
ATOM      7  O   UNL     1      -4.700  12.126  17.847  0.00  0.00    +0.000 OA
ATOM      8  C   UNL     1      -3.663  12.520  19.916  0.00  0.00    +0.000 A 
ATOM      9  C   UNL     1      -2.270  12.673  19.654  0.00  0.00    +0.000 A 
ATOM     10  C   UNL     1      -1.684  13.508  20.593  0.00  0.00    +0.000 A 
ATOM     11  S   UNL     1      -2.710  13.659  21.984  0.00  0.00    +0.000 S 
ATOM     12  C   UNL     1      -3.990  12.885  21.198  0.00  0.00    +0.000 A 
ENDROOT
BRANCH   1  13
ATOM     13  C   UNL     1      -5.662  13.054  23.129  0.00  0.00    +0.000 C 
BRANCH  13  15
ATOM     14  C   UNL     1      -7.689  14.376  23.927  0.00  0.00    +0.000 C 
ATOM     15  C   UNL     1      -6.349  14.443  23.197  0.00  0.00    +0.000 C 
ATOM     16  C   UNL     1      -5.439  15.484  23.843  0.00  0.00    +0.000 C 
ENDBRANCH  13  15
ENDBRANCH   1  13
BRANCH   9  17
ATOM     17  S   UNL     1      -1.456  12.022  18.226  0.00  0.00    +0.000 S 
BRANCH  17  18
ATOM     18  C   UNL     1      -0.946  10.346  18.815  0.00  0.00    +0.000 C 
ATOM     19  C   UNL     1       0.400   9.863  18.234  0.00  0.00    +0.000 C 
ATOM     20  C   UNL     1       0.874   9.522  19.651  0.00  0.00    +0.000 C 
ATOM     21  C   UNL     1      -0.254  10.409  20.201  0.00  0.00    +0.000 C 
ENDBRANCH  17  18
ENDBRANCH   9  17
BRANCH  10  22
ATOM     22  C   UNL     1      -0.366  14.252  20.545  0.00  0.00    +0.000 C 
BRANCH  22  23
ATOM     23  C   UNL     1      -0.337  15.490  19.635  0.00  0.00    +0.000 A 
ATOM     24  C   UNL     1      -1.419  16.396  19.605  0.00  0.00    +0.000 A 
ATOM     25  C   UNL     1      -1.376  17.574  18.854  0.00  0.00    +0.000 A 
ATOM     26  C   UNL     1      -0.257  17.872  18.092  0.00  0.00    +0.000 A 
ATOM     27  C   UNL     1       0.800  16.967  18.051  0.00  0.00    +0.000 A 
ATOM     28  C   UNL     1       0.778  15.768  18.802  0.00  0.00    +0.000 A 
BRANCH  28  29
ATOM     29  C   UNL     1       1.972  14.852  18.623  0.00  0.00    +0.000 C 
ATOM     30  F   UNL     1       2.754  14.693  19.725  0.00  0.00    +0.000 F 
ATOM     31  F   UNL     1       1.598  13.590  18.259  0.00  0.00    +0.000 F 
ATOM     32  F   UNL     1       2.809  15.283  17.640  0.00  0.00    +0.000 F 
ENDBRANCH  28  29
ENDBRANCH  22  23
ENDBRANCH  10  22
TORSDOF 7
ENDMDL
MODEL 9
REMARK VINA RESULT:      -6.3      6.091      9.312
REMARK  Name = 
REMARK  10 active torsions:
REMARK  status: ('A' for Active; 'I' for Inactive)
REMARK    1  A    between atoms: C_1  and  C_2
REMARK    2  A    between atoms: C_2  and  C_3
REMARK    3  A    between atoms: C_2  and  C_4
REMARK    4  A    between atoms: C_4  and  N_5
REMARK    5  A    between atoms: N_8  and  C_9
REMARK    6  A    between atoms: C_13  and  S_14
REMARK    7  A    between atoms: S_14  and  C_15
REMARK    8  A    between atoms: C_19  and  C_20
REMARK    9  A    between atoms: C_20  and  C_21
REMARK   10  A    between atoms: C_26  and  C_27
REMARK                            x       y       z     vdW  Elec       q    Type
REMARK                         _______ _______ _______ _____ _____    ______ ____
ROOT
ATOM      1  N   UNL     1      -5.601  13.015  20.307  0.00  0.00    +0.000 N 
ATOM      2  C   UNL     1      -6.811  13.233  20.994  0.00  0.00    +0.000 A 
ATOM      3  O   UNL     1      -7.906  13.040  20.468  0.00  0.00    +0.000 OA
ATOM      4  N   UNL     1      -6.717  13.690  22.306  0.00  0.00    +0.000 N 
ATOM      5  C   UNL     1      -7.917  14.134  22.978  0.00  0.00    +0.000 C 
ATOM      6  C   UNL     1      -5.645  13.369  23.110  0.00  0.00    +0.000 A 
ATOM      7  O   UNL     1      -5.746  13.088  24.302  0.00  0.00    +0.000 OA
ATOM      8  C   UNL     1      -4.392  13.354  22.403  0.00  0.00    +0.000 A 
ATOM      9  C   UNL     1      -3.065  13.581  22.873  0.00  0.00    +0.000 A 
ATOM     10  C   UNL     1      -2.135  13.118  21.956  0.00  0.00    +0.000 A 
ATOM     11  S   UNL     1      -2.880  12.892  20.406  0.00  0.00    +0.000 S 
ATOM     12  C   UNL     1      -4.426  13.117  21.052  0.00  0.00    +0.000 A 
ENDROOT
BRANCH   1  13
ATOM     13  C   UNL     1      -5.708  12.768  18.863  0.00  0.00    +0.000 C 
BRANCH  13  15
ATOM     14  C   UNL     1      -6.669  10.423  18.597  0.00  0.00    +0.000 C 
ATOM     15  C   UNL     1      -5.418  11.292  18.485  0.00  0.00    +0.000 C 
ATOM     16  C   UNL     1      -4.814  11.184  17.088  0.00  0.00    +0.000 C 
ENDBRANCH  13  15
ENDBRANCH   1  13
BRANCH   9  17
ATOM     17  S   UNL     1      -2.681  14.209  24.481  0.00  0.00    +0.000 S 
BRANCH  17  18
ATOM     18  C   UNL     1      -2.481  16.014  24.142  0.00  0.00    +0.000 C 
ATOM     19  C   UNL     1      -2.075  16.841  25.381  0.00  0.00    +0.000 C 
ATOM     20  C   UNL     1      -0.939  17.475  24.570  0.00  0.00    +0.000 C 
ATOM     21  C   UNL     1      -1.085  16.336  23.547  0.00  0.00    +0.000 C 
ENDBRANCH  17  18
ENDBRANCH   9  17
BRANCH  10  22
ATOM     22  C   UNL     1      -0.665  12.801  22.139  0.00  0.00    +0.000 C 
BRANCH  22  23
ATOM     23  C   UNL     1      -0.276  11.327  21.942  0.00  0.00    +0.000 A 
ATOM     24  C   UNL     1      -0.657  10.342  22.879  0.00  0.00    +0.000 A 
ATOM     25  C   UNL     1      -0.391   8.986  22.674  0.00  0.00    +0.000 A 
ATOM     26  C   UNL     1       0.284   8.574  21.537  0.00  0.00    +0.000 A 
ATOM     27  C   UNL     1       0.729   9.527  20.626  0.00  0.00    +0.000 A 
ATOM     28  C   UNL     1       0.473  10.906  20.812  0.00  0.00    +0.000 A 
BRANCH  28  29
ATOM     29  C   UNL     1       1.059  11.836  19.770  0.00  0.00    +0.000 C 
ATOM     30  F   UNL     1       1.824  11.237  18.818  0.00  0.00    +0.000 F 
ATOM     31  F   UNL     1       0.090  12.511  19.084  0.00  0.00    +0.000 F 
ATOM     32  F   UNL     1       1.851  12.797  20.323  0.00  0.00    +0.000 F 
ENDBRANCH  28  29
ENDBRANCH  22  23
ENDBRANCH  10  22
TORSDOF 7
ENDMDL
