MODEL 1
REMARK VINA RESULT:      -7.5      0.000      0.000
REMARK  Name = 
REMARK  1 active torsions:
REMARK  status: ('A' for Active; 'I' for Inactive)
REMARK    1  A    between atoms: C_1  and  C_2
REMARK                            x       y       z     vdW  Elec       q    Type
REMARK                         _______ _______ _______ _____ _____    ______ ____
ROOT
ATOM      1  C   UNL     1       4.642   6.141  16.959  0.00  0.00    +0.000 C 
ATOM      2  C   UNL     1       5.066   4.683  17.219  0.00  0.00    +0.000 C 
ATOM      3  C   UNL     1       6.024   4.272  16.099  0.00  0.00    +0.000 C 
ATOM      4  C   UNL     1       7.370   4.687  16.651  0.00  0.00    +0.000 C 
ATOM      5  O   UNL     1       7.311   4.455  18.057  0.00  0.00    +0.000 OA
ATOM      6  C   UNL     1       5.942   4.537  18.476  0.00  0.00    +0.000 C 
ATOM      7  O   UNL     1       5.538   3.336  19.148  0.00  0.00    +0.000 OA
ATOM      8  O   UNL     1       4.249   3.642  19.791  0.00  0.00    +0.000 OA
ATOM      9  C   UNL     1       3.226   3.742  18.773  0.00  0.00    +0.000 C 
ATOM     10  C   UNL     1       2.479   5.064  19.033  0.00  0.00    +0.000 C 
ATOM     11  C   UNL     1       1.624   5.102  20.295  0.00  0.00    +0.000 C 
ATOM     12  C   UNL     1       0.725   3.891  20.459  0.00  0.00    +0.000 C 
ATOM     13  C   UNL     1       1.475   2.584  20.249  0.00  0.00    +0.000 C 
ATOM     14  C   UNL     1       2.253   2.558  18.931  0.00  0.00    +0.000 C 
ATOM     15  C   UNL     1       3.847   3.733  17.344  0.00  0.00    +0.000 C 
ENDROOT
TORSDOF 0
ENDMDL
MODEL 2
REMARK VINA RESULT:      -7.4      1.076      4.911
REMARK  Name = 
REMARK  1 active torsions:
REMARK  status: ('A' for Active; 'I' for Inactive)
REMARK    1  A    between atoms: C_1  and  C_2
REMARK                            x       y       z     vdW  Elec       q    Type
REMARK                         _______ _______ _______ _____ _____    ______ ____
ROOT
ATOM      1  C   UNL     1       1.721   4.424  17.874  0.00  0.00    +0.000 C 
ATOM      2  C   UNL     1       2.545   4.355  19.173  0.00  0.00    +0.000 C 
ATOM      3  C   UNL     1       1.618   4.726  20.332  0.00  0.00    +0.000 C 
ATOM      4  C   UNL     1       1.026   3.387  20.719  0.00  0.00    +0.000 C 
ATOM      5  O   UNL     1       2.063   2.427  20.531  0.00  0.00    +0.000 OA
ATOM      6  C   UNL     1       2.965   2.918  19.531  0.00  0.00    +0.000 C 
ATOM      7  O   UNL     1       4.309   2.972  20.032  0.00  0.00    +0.000 OA
ATOM      8  O   UNL     1       5.174   3.187  18.860  0.00  0.00    +0.000 OA
ATOM      9  C   UNL     1       5.003   4.545  18.392  0.00  0.00    +0.000 C 
ATOM     10  C   UNL     1       4.744   4.455  16.875  0.00  0.00    +0.000 C 
ATOM     11  C   UNL     1       5.934   4.013  16.028  0.00  0.00    +0.000 C 
ATOM     12  C   UNL     1       7.219   4.750  16.350  0.00  0.00    +0.000 C 
ATOM     13  C   UNL     1       7.498   4.797  17.846  0.00  0.00    +0.000 C 
ATOM     14  C   UNL     1       6.307   5.325  18.649  0.00  0.00    +0.000 C 
ATOM     15  C   UNL     1       3.812   5.247  19.111  0.00  0.00    +0.000 C 
ENDROOT
TORSDOF 0
ENDMDL
MODEL 3
REMARK VINA RESULT:      -7.4      1.105      1.239
REMARK  Name = 
REMARK  1 active torsions:
REMARK  status: ('A' for Active; 'I' for Inactive)
REMARK    1  A    between atoms: C_1  and  C_2
REMARK                            x       y       z     vdW  Elec       q    Type
REMARK                         _______ _______ _______ _____ _____    ______ ____
ROOT
ATOM      1  C   UNL     1       4.131   6.962  17.461  0.00  0.00    +0.000 C 
ATOM      2  C   UNL     1       4.990   5.683  17.443  0.00  0.00    +0.000 C 
ATOM      3  C   UNL     1       6.177   5.934  16.510  0.00  0.00    +0.000 C 
ATOM      4  C   UNL     1       7.207   6.529  17.445  0.00  0.00    +0.000 C 
ATOM      5  O   UNL     1       7.037   5.866  18.696  0.00  0.00    +0.000 OA
ATOM      6  C   UNL     1       5.680   5.415  18.792  0.00  0.00    +0.000 C 
ATOM      7  O   UNL     1       5.624   4.002  19.034  0.00  0.00    +0.000 OA
ATOM      8  O   UNL     1       4.233   3.707  19.415  0.00  0.00    +0.000 OA
ATOM      9  C   UNL     1       3.390   3.817  18.245  0.00  0.00    +0.000 C 
ATOM     10  C   UNL     1       2.205   4.718  18.643  0.00  0.00    +0.000 C 
ATOM     11  C   UNL     1       1.223   4.114  19.641  0.00  0.00    +0.000 C 
ATOM     12  C   UNL     1       0.782   2.706  19.287  0.00  0.00    +0.000 C 
ATOM     13  C   UNL     1       1.958   1.804  18.941  0.00  0.00    +0.000 C 
ATOM     14  C   UNL     1       2.871   2.414  17.875  0.00  0.00    +0.000 C 
ATOM     15  C   UNL     1       4.168   4.431  17.043  0.00  0.00    +0.000 C 
ENDROOT
TORSDOF 0
ENDMDL
MODEL 4
REMARK VINA RESULT:      -7.4      1.463      4.908
REMARK  Name = 
REMARK  1 active torsions:
REMARK  status: ('A' for Active; 'I' for Inactive)
REMARK    1  A    between atoms: C_1  and  C_2
REMARK                            x       y       z     vdW  Elec       q    Type
REMARK                         _______ _______ _______ _____ _____    ______ ____
ROOT
ATOM      1  C   UNL     1       1.831   2.308  18.240  0.00  0.00    +0.000 C 
ATOM      2  C   UNL     1       2.066   3.546  19.126  0.00  0.00    +0.000 C 
ATOM      3  C   UNL     1       0.885   3.655  20.093  0.00  0.00    +0.000 C 
ATOM      4  C   UNL     1       1.343   2.816  21.265  0.00  0.00    +0.000 C 
ATOM      5  O   UNL     1       2.750   3.019  21.373  0.00  0.00    +0.000 OA
ATOM      6  C   UNL     1       3.261   3.372  20.080  0.00  0.00    +0.000 C 
ATOM      7  O   UNL     1       3.962   4.622  20.129  0.00  0.00    +0.000 OA
ATOM      8  O   UNL     1       4.691   4.731  18.854  0.00  0.00    +0.000 OA
ATOM      9  C   UNL     1       3.744   4.990  17.791  0.00  0.00    +0.000 C 
ATOM     10  C   UNL     1       4.050   3.972  16.675  0.00  0.00    +0.000 C 
ATOM     11  C   UNL     1       5.368   4.181  15.935  0.00  0.00    +0.000 C 
ATOM     12  C   UNL     1       5.596   5.612  15.488  0.00  0.00    +0.000 C 
ATOM     13  C   UNL     1       5.340   6.613  16.604  0.00  0.00    +0.000 C 
ATOM     14  C   UNL     1       3.972   6.420  17.263  0.00  0.00    +0.000 C 
ATOM     15  C   UNL     1       2.277   4.834  18.289  0.00  0.00    +0.000 C 
ENDROOT
TORSDOF 0
ENDMDL
MODEL 5
REMARK VINA RESULT:      -7.1      1.618      4.776
REMARK  Name = 
REMARK  1 active torsions:
REMARK  status: ('A' for Active; 'I' for Inactive)
REMARK    1  A    between atoms: C_1  and  C_2
REMARK                            x       y       z     vdW  Elec       q    Type
REMARK                         _______ _______ _______ _____ _____    ______ ____
ROOT
ATOM      1  C   UNL     1       1.774   5.536  18.050  0.00  0.00    +0.000 C 
ATOM      2  C   UNL     1       2.575   4.417  18.741  0.00  0.00    +0.000 C 
ATOM      3  C   UNL     1       1.622   3.680  19.685  0.00  0.00    +0.000 C 
ATOM      4  C   UNL     1       1.036   2.611  18.789  0.00  0.00    +0.000 C 
ATOM      5  O   UNL     1       2.085   2.212  17.909  0.00  0.00    +0.000 OA
ATOM      6  C   UNL     1       3.001   3.306  17.766  0.00  0.00    +0.000 C 
ATOM      7  O   UNL     1       4.334   2.908  18.117  0.00  0.00    +0.000 OA
ATOM      8  O   UNL     1       5.219   3.988  17.648  0.00  0.00    +0.000 OA
ATOM      9  C   UNL     1       5.045   5.143  18.501  0.00  0.00    +0.000 C 
ATOM     10  C   UNL     1       4.816   6.346  17.565  0.00  0.00    +0.000 C 
ATOM     11  C   UNL     1       6.025   6.783  16.744  0.00  0.00    +0.000 C 
ATOM     12  C   UNL     1       7.297   6.920  17.557  0.00  0.00    +0.000 C 
ATOM     13  C   UNL     1       7.547   5.710  18.445  0.00  0.00    +0.000 C 
ATOM     14  C   UNL     1       6.337   5.359  19.313  0.00  0.00    +0.000 C 
ATOM     15  C   UNL     1       3.835   4.959  19.465  0.00  0.00    +0.000 C 
ENDROOT
TORSDOF 0
ENDMDL
MODEL 6
REMARK VINA RESULT:      -7.1      1.105      4.896
REMARK  Name = 
REMARK  1 active torsions:
REMARK  status: ('A' for Active; 'I' for Inactive)
REMARK    1  A    between atoms: C_1  and  C_2
REMARK                            x       y       z     vdW  Elec       q    Type
REMARK                         _______ _______ _______ _____ _____    ______ ____
ROOT
ATOM      1  C   UNL     1       2.032   3.202  17.822  0.00  0.00    +0.000 C 
ATOM      2  C   UNL     1       2.834   3.926  18.920  0.00  0.00    +0.000 C 
ATOM      3  C   UNL     1       1.862   4.280  20.047  0.00  0.00    +0.000 C 
ATOM      4  C   UNL     1       1.912   3.047  20.922  0.00  0.00    +0.000 C 
ATOM      5  O   UNL     1       3.257   2.576  20.868  0.00  0.00    +0.000 OA
ATOM      6  C   UNL     1       3.838   2.999  19.627  0.00  0.00    +0.000 C 
ATOM      7  O   UNL     1       5.038   3.752  19.853  0.00  0.00    +0.000 OA
ATOM      8  O   UNL     1       5.701   3.865  18.543  0.00  0.00    +0.000 OA
ATOM      9  C   UNL     1       4.953   4.785  17.715  0.00  0.00    +0.000 C 
ATOM     10  C   UNL     1       4.727   4.074  16.366  0.00  0.00    +0.000 C 
ATOM     11  C   UNL     1       5.972   3.872  15.509  0.00  0.00    +0.000 C 
ATOM     12  C   UNL     1       6.822   5.120  15.366  0.00  0.00    +0.000 C 
ATOM     13  C   UNL     1       7.085   5.795  16.704  0.00  0.00    +0.000 C 
ATOM     14  C   UNL     1       5.801   6.053  17.494  0.00  0.00    +0.000 C 
ATOM     15  C   UNL     1       3.592   5.162  18.372  0.00  0.00    +0.000 C 
ENDROOT
TORSDOF 0
ENDMDL
MODEL 7
REMARK VINA RESULT:      -6.9      2.044      2.869
REMARK  Name = 
REMARK  1 active torsions:
REMARK  status: ('A' for Active; 'I' for Inactive)
REMARK    1  A    between atoms: C_1  and  C_2
REMARK                            x       y       z     vdW  Elec       q    Type
REMARK                         _______ _______ _______ _____ _____    ______ ____
ROOT
ATOM      1  C   UNL     1       7.033   4.417  17.197  0.00  0.00    +0.000 C 
ATOM      2  C   UNL     1       6.408   5.574  17.999  0.00  0.00    +0.000 C 
ATOM      3  C   UNL     1       7.553   6.414  18.569  0.00  0.00    +0.000 C 
ATOM      4  C   UNL     1       7.809   7.413  17.461  0.00  0.00    +0.000 C 
ATOM      5  O   UNL     1       6.535   7.708  16.891  0.00  0.00    +0.000 OA
ATOM      6  C   UNL     1       5.670   6.584  17.103  0.00  0.00    +0.000 C 
ATOM      7  O   UNL     1       4.474   6.979  17.791  0.00  0.00    +0.000 OA
ATOM      8  O   UNL     1       3.545   5.842  17.682  0.00  0.00    +0.000 OA
ATOM      9  C   UNL     1       4.010   4.771  18.536  0.00  0.00    +0.000 C 
ATOM     10  C   UNL     1       4.021   3.495  17.672  0.00  0.00    +0.000 C 
ATOM     11  C   UNL     1       2.652   2.959  17.268  0.00  0.00    +0.000 C 
ATOM     12  C   UNL     1       1.670   2.865  18.421  0.00  0.00    +0.000 C 
ATOM     13  C   UNL     1       1.625   4.143  19.246  0.00  0.00    +0.000 C 
ATOM     14  C   UNL     1       3.014   4.598  19.699  0.00  0.00    +0.000 C 
ATOM     15  C   UNL     1       5.434   5.069  19.094  0.00  0.00    +0.000 C 
ENDROOT
TORSDOF 0
ENDMDL
MODEL 8
REMARK VINA RESULT:      -6.9      1.775      4.965
REMARK  Name = 
REMARK  1 active torsions:
REMARK  status: ('A' for Active; 'I' for Inactive)
REMARK    1  A    between atoms: C_1  and  C_2
REMARK                            x       y       z     vdW  Elec       q    Type
REMARK                         _______ _______ _______ _____ _____    ______ ____
ROOT
ATOM      1  C   UNL     1       3.799   2.238  19.308  0.00  0.00    +0.000 C 
ATOM      2  C   UNL     1       2.929   3.337  18.668  0.00  0.00    +0.000 C 
ATOM      3  C   UNL     1       1.602   2.696  18.255  0.00  0.00    +0.000 C 
ATOM      4  C   UNL     1       0.761   2.854  19.503  0.00  0.00    +0.000 C 
ATOM      5  O   UNL     1       1.135   4.103  20.079  0.00  0.00    +0.000 OA
ATOM      6  C   UNL     1       2.481   4.402  19.685  0.00  0.00    +0.000 C 
ATOM      7  O   UNL     1       2.554   5.679  19.033  0.00  0.00    +0.000 OA
ATOM      8  O   UNL     1       3.985   6.015  18.953  0.00  0.00    +0.000 OA
ATOM      9  C   UNL     1       4.612   5.167  17.962  0.00  0.00    +0.000 C 
ATOM     10  C   UNL     1       5.864   4.566  18.631  0.00  0.00    +0.000 C 
ATOM     11  C   UNL     1       6.995   5.548  18.918  0.00  0.00    +0.000 C 
ATOM     12  C   UNL     1       7.343   6.439  17.741  0.00  0.00    +0.000 C 
ATOM     13  C   UNL     1       6.110   7.070  17.111  0.00  0.00    +0.000 C 
ATOM     14  C   UNL     1       5.035   6.038  16.763  0.00  0.00    +0.000 C 
ATOM     15  C   UNL     1       3.648   4.040  17.488  0.00  0.00    +0.000 C 
ENDROOT
TORSDOF 0
ENDMDL
MODEL 9
REMARK VINA RESULT:      -6.8      1.298      4.935
REMARK  Name = 
REMARK  1 active torsions:
REMARK  status: ('A' for Active; 'I' for Inactive)
REMARK    1  A    between atoms: C_1  and  C_2
REMARK                            x       y       z     vdW  Elec       q    Type
REMARK                         _______ _______ _______ _____ _____    ______ ____
ROOT
ATOM      1  C   UNL     1       2.032   6.240  18.376  0.00  0.00    +0.000 C 
ATOM      2  C   UNL     1       2.769   5.157  19.185  0.00  0.00    +0.000 C 
ATOM      3  C   UNL     1       2.135   5.105  20.576  0.00  0.00    +0.000 C 
ATOM      4  C   UNL     1       1.015   4.104  20.388  0.00  0.00    +0.000 C 
ATOM      5  O   UNL     1       1.506   3.127  19.472  0.00  0.00    +0.000 OA
ATOM      6  C   UNL     1       2.509   3.738  18.648  0.00  0.00    +0.000 C 
ATOM      7  O   UNL     1       3.745   3.014  18.721  0.00  0.00    +0.000 OA
ATOM      8  O   UNL     1       4.586   3.530  17.628  0.00  0.00    +0.000 OA
ATOM      9  C   UNL     1       5.031   4.864  17.968  0.00  0.00    +0.000 C 
ATOM     10  C   UNL     1       4.724   5.751  16.745  0.00  0.00    +0.000 C 
ATOM     11  C   UNL     1       5.567   5.480  15.504  0.00  0.00    +0.000 C 
ATOM     12  C   UNL     1       7.055   5.384  15.786  0.00  0.00    +0.000 C 
ATOM     13  C   UNL     1       7.360   4.470  16.964  0.00  0.00    +0.000 C 
ATOM     14  C   UNL     1       6.552   4.831  18.212  0.00  0.00    +0.000 C 
ATOM     15  C   UNL     1       4.299   5.401  19.233  0.00  0.00    +0.000 C 
ENDROOT
TORSDOF 0
ENDMDL
