MODEL 1
REMARK VINA RESULT:      -6.8      0.000      0.000
REMARK  Name = 
REMARK  12 active torsions:
REMARK  status: ('A' for Active; 'I' for Inactive)
REMARK    1  A    between atoms: C_1  and  C_2
REMARK    2  A    between atoms: C_4  and  C_5
REMARK    3  A    between atoms: N_7  and  C_8
REMARK    4  A    between atoms: C_8  and  C_9
REMARK    5  A    between atoms: C_9  and  N_10
REMARK    6  A    between atoms: N_10  and  C_11
REMARK    7  A    between atoms: N_10  and  C_12
REMARK    8  A    between atoms: C_12  and  C_13
REMARK    9  A    between atoms: C_12  and  C_14
REMARK   10  A    between atoms: C_15  and  C_16
REMARK   11  A    between atoms: N_19  and  C_20
REMARK   12  A    between atoms: C_26  and  C_27
REMARK                            x       y       z     vdW  Elec       q    Type
REMARK                         _______ _______ _______ _____ _____    ______ ____
ROOT
ATOM      1  C   UNL     1       2.124  12.467  18.517  0.00  0.00    +0.000 A 
ATOM      2  C   UNL     1       2.444  11.273  17.915  0.00  0.00    +0.000 A 
ATOM      3  N   UNL     1       1.443  10.415  18.269  0.00  0.00    +0.000 N 
ATOM      4  C   UNL     1       0.544  11.105  19.045  0.00  0.00    +0.000 A 
ATOM      5  N   UNL     1       0.960  12.344  19.220  0.00  0.00    +0.000 NA
ENDROOT
BRANCH   1   9
ATOM      6  C   UNL     1       6.465  14.826  17.810  0.00  0.00    +0.000 C 
ATOM      7  C   UNL     1       5.002  14.854  18.122  0.00  0.00    +0.000 A 
ATOM      8  C   UNL     1       4.257  13.671  18.165  0.00  0.00    +0.000 A 
ATOM      9  C   UNL     1       2.886  13.696  18.454  0.00  0.00    +0.000 A 
ATOM     10  C   UNL     1       2.252  14.927  18.675  0.00  0.00    +0.000 A 
ATOM     11  C   UNL     1       2.989  16.112  18.645  0.00  0.00    +0.000 A 
ATOM     12  C   UNL     1       4.353  16.065  18.375  0.00  0.00    +0.000 A 
ATOM     13  F   UNL     1       5.050  17.210  18.353  0.00  0.00    +0.000 F 
ENDBRANCH   1   9
BRANCH   4  14
ATOM     14  C   UNL     1      -0.719  10.526  19.620  0.00  0.00    +0.000 C 
ATOM     15  C   UNL     1      -1.891  11.508  19.455  0.00  0.00    +0.000 C 
ATOM     16  C   UNL     1      -1.786  12.696  20.415  0.00  0.00    +0.000 C 
ATOM     17  N   UNL     1      -1.655  12.133  21.762  0.00  0.00    +0.000 N 
ATOM     18  C   UNL     1      -0.420  11.380  21.983  0.00  0.00    +0.000 C 
ATOM     19  C   UNL     1      -0.493  10.140  21.092  0.00  0.00    +0.000 C 
BRANCH  17  20
ATOM     20  C   UNL     1      -2.355  12.723  22.793  0.00  0.00    +0.000 A 
ATOM     21  N   UNL     1      -3.459  12.093  23.231  0.00  0.00    +0.000 NA
ATOM     22  C   UNL     1      -4.098  12.612  24.290  0.00  0.00    +0.000 A 
ATOM     23  N   UNL     1      -3.737  13.711  24.957  0.00  0.00    +0.000 NA
ATOM     24  C   UNL     1      -2.627  14.320  24.539  0.00  0.00    +0.000 A 
ATOM     25  N   UNL     1      -2.161  15.353  25.355  0.00  0.00    +0.000 N 
ATOM     26  C   UNL     1      -1.887  13.863  23.453  0.00  0.00    +0.000 A 
ATOM     27  H   UNL     1      -2.890  15.637  26.002  0.00  0.00    +0.000 HD
ATOM     28  H   UNL     1      -1.691  16.122  24.894  0.00  0.00    +0.000 HD
BRANCH  26  29
ATOM     29  C   UNL     1      -0.689  14.540  23.090  0.00  0.00    +0.000 C 
ATOM     30  N   UNL     1       0.290  15.053  22.730  0.00  0.00    +0.000 NA
ENDBRANCH  26  29
ENDBRANCH  17  20
ENDBRANCH   4  14
BRANCH   3  31
ATOM     31  C   UNL     1       1.353   9.022  17.877  0.00  0.00    +0.000 C 
BRANCH  31  32
ATOM     32  C   UNL     1       2.402   8.182  18.615  0.00  0.00    +0.000 C 
BRANCH  32  33
ATOM     33  N   UNL     1       2.811   6.946  17.911  0.00  0.00    +0.000 NA
ATOM     34  C   UNL     1       4.187   7.086  17.408  0.00  0.00    +0.000 C 
BRANCH  33  35
ATOM     35  C   UNL     1       2.678   5.756  18.801  0.00  0.00    +0.000 C 
ATOM     36  C   UNL     1       2.024   6.095  20.154  0.00  0.00    +0.000 C 
ATOM     37  C   UNL     1       1.826   4.647  18.160  0.00  0.00    +0.000 C 
ENDBRANCH  33  35
ENDBRANCH  32  33
ENDBRANCH  31  32
ENDBRANCH   3  31
TORSDOF 8
ENDMDL
MODEL 2
REMARK VINA RESULT:      -6.8      3.130      7.804
REMARK  Name = 
REMARK  12 active torsions:
REMARK  status: ('A' for Active; 'I' for Inactive)
REMARK    1  A    between atoms: C_1  and  C_2
REMARK    2  A    between atoms: C_4  and  C_5
REMARK    3  A    between atoms: N_7  and  C_8
REMARK    4  A    between atoms: C_8  and  C_9
REMARK    5  A    between atoms: C_9  and  N_10
REMARK    6  A    between atoms: N_10  and  C_11
REMARK    7  A    between atoms: N_10  and  C_12
REMARK    8  A    between atoms: C_12  and  C_13
REMARK    9  A    between atoms: C_12  and  C_14
REMARK   10  A    between atoms: C_15  and  C_16
REMARK   11  A    between atoms: N_19  and  C_20
REMARK   12  A    between atoms: C_26  and  C_27
REMARK                            x       y       z     vdW  Elec       q    Type
REMARK                         _______ _______ _______ _____ _____    ______ ____
ROOT
ATOM      1  C   UNL     1       0.649   9.396  20.646  0.00  0.00    +0.000 A 
ATOM      2  C   UNL     1       0.301   9.596  21.961  0.00  0.00    +0.000 A 
ATOM      3  N   UNL     1      -0.327  10.807  21.985  0.00  0.00    +0.000 N 
ATOM      4  C   UNL     1      -0.365  11.294  20.701  0.00  0.00    +0.000 A 
ATOM      5  N   UNL     1       0.244  10.456  19.885  0.00  0.00    +0.000 NA
ENDROOT
BRANCH   1   9
ATOM      6  C   UNL     1       2.090   4.634  21.025  0.00  0.00    +0.000 C 
ATOM      7  C   UNL     1       2.070   5.934  20.286  0.00  0.00    +0.000 A 
ATOM      8  C   UNL     1       1.375   7.036  20.796  0.00  0.00    +0.000 A 
ATOM      9  C   UNL     1       1.352   8.254  20.103  0.00  0.00    +0.000 A 
ATOM     10  C   UNL     1       2.012   8.356  18.871  0.00  0.00    +0.000 A 
ATOM     11  C   UNL     1       2.717   7.265  18.358  0.00  0.00    +0.000 A 
ATOM     12  C   UNL     1       2.743   6.070  19.069  0.00  0.00    +0.000 A 
ATOM     13  F   UNL     1       3.428   5.032  18.568  0.00  0.00    +0.000 F 
ENDBRANCH   1   9
BRANCH   4  14
ATOM     14  C   UNL     1      -0.996  12.596  20.291  0.00  0.00    +0.000 C 
ATOM     15  C   UNL     1      -0.871  12.807  18.773  0.00  0.00    +0.000 C 
ATOM     16  C   UNL     1       0.558  13.163  18.357  0.00  0.00    +0.000 C 
ATOM     17  N   UNL     1       0.950  14.324  19.161  0.00  0.00    +0.000 N 
ATOM     18  C   UNL     1       1.047  14.057  20.597  0.00  0.00    +0.000 C 
ATOM     19  C   UNL     1      -0.368  13.753  21.087  0.00  0.00    +0.000 C 
BRANCH  17  20
ATOM     20  C   UNL     1       1.649  15.343  18.551  0.00  0.00    +0.000 A 
ATOM     21  N   UNL     1       2.929  15.101  18.219  0.00  0.00    +0.000 NA
ATOM     22  C   UNL     1       3.593  16.054  17.547  0.00  0.00    +0.000 A 
ATOM     23  N   UNL     1       3.095  17.236  17.174  0.00  0.00    +0.000 NA
ATOM     24  C   UNL     1       1.817  17.464  17.481  0.00  0.00    +0.000 A 
ATOM     25  N   UNL     1       1.260  18.618  16.927  0.00  0.00    +0.000 N 
ATOM     26  C   UNL     1       1.038  16.542  18.173  0.00  0.00    +0.000 A 
ATOM     27  H   UNL     1       1.996  19.228  16.587  0.00  0.00    +0.000 HD
ATOM     28  H   UNL     1       0.549  19.089  17.473  0.00  0.00    +0.000 HD
BRANCH  26  29
ATOM     29  C   UNL     1      -0.331  16.836  18.428  0.00  0.00    +0.000 C 
ATOM     30  N   UNL     1      -1.431  17.149  18.634  0.00  0.00    +0.000 NA
ENDBRANCH  26  29
ENDBRANCH  17  20
ENDBRANCH   4  14
BRANCH   3  31
ATOM     31  C   UNL     1      -0.866  11.451  23.166  0.00  0.00    +0.000 C 
BRANCH  31  32
ATOM     32  C   UNL     1      -2.394  11.324  23.203  0.00  0.00    +0.000 C 
BRANCH  32  33
ATOM     33  N   UNL     1      -3.100  12.513  23.731  0.00  0.00    +0.000 NA
ATOM     34  C   UNL     1      -2.170  13.651  23.821  0.00  0.00    +0.000 C 
BRANCH  33  35
ATOM     35  C   UNL     1      -4.285  12.848  22.889  0.00  0.00    +0.000 C 
ATOM     36  C   UNL     1      -5.538  13.174  23.725  0.00  0.00    +0.000 C 
ATOM     37  C   UNL     1      -4.025  14.065  21.984  0.00  0.00    +0.000 C 
ENDBRANCH  33  35
ENDBRANCH  32  33
ENDBRANCH  31  32
ENDBRANCH   3  31
TORSDOF 8
ENDMDL
MODEL 3
REMARK VINA RESULT:      -6.7      5.209      7.736
REMARK  Name = 
REMARK  12 active torsions:
REMARK  status: ('A' for Active; 'I' for Inactive)
REMARK    1  A    between atoms: C_1  and  C_2
REMARK    2  A    between atoms: C_4  and  C_5
REMARK    3  A    between atoms: N_7  and  C_8
REMARK    4  A    between atoms: C_8  and  C_9
REMARK    5  A    between atoms: C_9  and  N_10
REMARK    6  A    between atoms: N_10  and  C_11
REMARK    7  A    between atoms: N_10  and  C_12
REMARK    8  A    between atoms: C_12  and  C_13
REMARK    9  A    between atoms: C_12  and  C_14
REMARK   10  A    between atoms: C_15  and  C_16
REMARK   11  A    between atoms: N_19  and  C_20
REMARK   12  A    between atoms: C_26  and  C_27
REMARK                            x       y       z     vdW  Elec       q    Type
REMARK                         _______ _______ _______ _____ _____    ______ ____
ROOT
ATOM      1  C   UNL     1       7.251  13.900  21.903  0.00  0.00    +0.000 A 
ATOM      2  C   UNL     1       8.249  13.805  20.962  0.00  0.00    +0.000 A 
ATOM      3  N   UNL     1       7.806  14.533  19.896  0.00  0.00    +0.000 N 
ATOM      4  C   UNL     1       6.581  15.062  20.220  0.00  0.00    +0.000 A 
ATOM      5  N   UNL     1       6.225  14.665  21.426  0.00  0.00    +0.000 NA
ENDROOT
BRANCH   1   9
ATOM      6  C   UNL     1       8.691  13.892  26.681  0.00  0.00    +0.000 C 
ATOM      7  C   UNL     1       7.947  13.267  25.543  0.00  0.00    +0.000 A 
ATOM      8  C   UNL     1       7.939  13.867  24.279  0.00  0.00    +0.000 A 
ATOM      9  C   UNL     1       7.240  13.286  23.213  0.00  0.00    +0.000 A 
ATOM     10  C   UNL     1       6.519  12.103  23.428  0.00  0.00    +0.000 A 
ATOM     11  C   UNL     1       6.529  11.491  24.683  0.00  0.00    +0.000 A 
ATOM     12  C   UNL     1       7.244  12.073  25.724  0.00  0.00    +0.000 A 
ATOM     13  F   UNL     1       7.250  11.473  26.923  0.00  0.00    +0.000 F 
ENDBRANCH   1   9
BRANCH   4  14
ATOM     14  C   UNL     1       5.761  15.949  19.324  0.00  0.00    +0.000 C 
ATOM     15  C   UNL     1       4.875  16.891  20.156  0.00  0.00    +0.000 C 
ATOM     16  C   UNL     1       3.699  16.155  20.801  0.00  0.00    +0.000 C 
ATOM     17  N   UNL     1       2.994  15.465  19.717  0.00  0.00    +0.000 N 
ATOM     18  C   UNL     1       3.772  14.407  19.070  0.00  0.00    +0.000 C 
ATOM     19  C   UNL     1       4.935  15.090  18.353  0.00  0.00    +0.000 C 
BRANCH  17  20
ATOM     20  C   UNL     1       1.616  15.472  19.718  0.00  0.00    +0.000 A 
ATOM     21  N   UNL     1       0.993  14.685  20.612  0.00  0.00    +0.000 NA
ATOM     22  C   UNL     1      -0.345  14.750  20.680  0.00  0.00    +0.000 A 
ATOM     23  N   UNL     1      -1.127  15.531  19.930  0.00  0.00    +0.000 NA
ATOM     24  C   UNL     1      -0.507  16.330  19.062  0.00  0.00    +0.000 A 
ATOM     25  N   UNL     1      -1.318  17.269  18.420  0.00  0.00    +0.000 N 
ATOM     26  C   UNL     1       0.876  16.344  18.914  0.00  0.00    +0.000 A 
ATOM     27  H   UNL     1      -2.294  17.018  18.536  0.00  0.00    +0.000 HD
ATOM     28  H   UNL     1      -1.062  17.522  17.474  0.00  0.00    +0.000 HD
BRANCH  26  29
ATOM     29  C   UNL     1       1.471  17.255  17.995  0.00  0.00    +0.000 C 
ATOM     30  N   UNL     1       1.990  18.032  17.303  0.00  0.00    +0.000 NA
ENDBRANCH  26  29
ENDBRANCH  17  20
ENDBRANCH   4  14
BRANCH   3  31
ATOM     31  C   UNL     1       8.521  14.716  18.648  0.00  0.00    +0.000 C 
BRANCH  31  32
ATOM     32  C   UNL     1       8.489  13.431  17.812  0.00  0.00    +0.000 C 
BRANCH  32  33
ATOM     33  N   UNL     1       9.817  12.834  17.545  0.00  0.00    +0.000 NA
ATOM     34  C   UNL     1      10.813  13.898  17.333  0.00  0.00    +0.000 C 
BRANCH  33  35
ATOM     35  C   UNL     1      10.225  11.924  18.654  0.00  0.00    +0.000 C 
ATOM     36  C   UNL     1       9.415  10.613  18.678  0.00  0.00    +0.000 C 
ATOM     37  C   UNL     1      11.709  11.528  18.560  0.00  0.00    +0.000 C 
ENDBRANCH  33  35
ENDBRANCH  32  33
ENDBRANCH  31  32
ENDBRANCH   3  31
TORSDOF 8
ENDMDL
MODEL 4
REMARK VINA RESULT:      -6.7      3.802      7.230
REMARK  Name = 
REMARK  12 active torsions:
REMARK  status: ('A' for Active; 'I' for Inactive)
REMARK    1  A    between atoms: C_1  and  C_2
REMARK    2  A    between atoms: C_4  and  C_5
REMARK    3  A    between atoms: N_7  and  C_8
REMARK    4  A    between atoms: C_8  and  C_9
REMARK    5  A    between atoms: C_9  and  N_10
REMARK    6  A    between atoms: N_10  and  C_11
REMARK    7  A    between atoms: N_10  and  C_12
REMARK    8  A    between atoms: C_12  and  C_13
REMARK    9  A    between atoms: C_12  and  C_14
REMARK   10  A    between atoms: C_15  and  C_16
REMARK   11  A    between atoms: N_19  and  C_20
REMARK   12  A    between atoms: C_26  and  C_27
REMARK                            x       y       z     vdW  Elec       q    Type
REMARK                         _______ _______ _______ _____ _____    ______ ____
ROOT
ATOM      1  C   UNL     1       1.412   9.441  18.809  0.00  0.00    +0.000 A 
ATOM      2  C   UNL     1       0.082   9.495  19.154  0.00  0.00    +0.000 A 
ATOM      3  N   UNL     1      -0.242  10.821  19.122  0.00  0.00    +0.000 N 
ATOM      4  C   UNL     1       0.874  11.524  18.741  0.00  0.00    +0.000 A 
ATOM      5  N   UNL     1       1.889  10.699  18.571  0.00  0.00    +0.000 NA
ENDROOT
BRANCH   1   9
ATOM      6  C   UNL     1       4.816   6.728  16.369  0.00  0.00    +0.000 C 
ATOM      7  C   UNL     1       3.882   6.915  17.523  0.00  0.00    +0.000 A 
ATOM      8  C   UNL     1       3.103   8.072  17.631  0.00  0.00    +0.000 A 
ATOM      9  C   UNL     1       2.230   8.252  18.712  0.00  0.00    +0.000 A 
ATOM     10  C   UNL     1       2.160   7.269  19.709  0.00  0.00    +0.000 A 
ATOM     11  C   UNL     1       2.926   6.106  19.605  0.00  0.00    +0.000 A 
ATOM     12  C   UNL     1       3.773   5.938  18.515  0.00  0.00    +0.000 A 
ATOM     13  F   UNL     1       4.499   4.814  18.424  0.00  0.00    +0.000 F 
ENDBRANCH   1   9
BRANCH   4  14
ATOM     14  C   UNL     1       0.933  13.016  18.559  0.00  0.00    +0.000 C 
ATOM     15  C   UNL     1       2.247  13.429  17.875  0.00  0.00    +0.000 C 
ATOM     16  C   UNL     1       3.446  13.318  18.819  0.00  0.00    +0.000 C 
ATOM     17  N   UNL     1       3.113  14.103  20.011  0.00  0.00    +0.000 N 
ATOM     18  C   UNL     1       1.992  13.573  20.788  0.00  0.00    +0.000 C 
ATOM     19  C   UNL     1       0.745  13.714  19.916  0.00  0.00    +0.000 C 
BRANCH  17  20
ATOM     20  C   UNL     1       4.092  14.895  20.573  0.00  0.00    +0.000 A 
ATOM     21  N   UNL     1       4.801  14.373  21.590  0.00  0.00    +0.000 NA
ATOM     22  C   UNL     1       5.812  15.101  22.086  0.00  0.00    +0.000 A 
ATOM     23  N   UNL     1       6.184  16.312  21.662  0.00  0.00    +0.000 NA
ATOM     24  C   UNL     1       5.497  16.817  20.637  0.00  0.00    +0.000 A 
ATOM     25  N   UNL     1       6.011  17.992  20.086  0.00  0.00    +0.000 N 
ATOM     26  C   UNL     1       4.433  16.143  20.046  0.00  0.00    +0.000 A 
ATOM     27  H   UNL     1       6.684  18.406  20.723  0.00  0.00    +0.000 HD
ATOM     28  H   UNL     1       5.341  18.649  19.704  0.00  0.00    +0.000 HD
BRANCH  26  29
ATOM     29  C   UNL     1       3.772  16.726  18.927  0.00  0.00    +0.000 C 
ATOM     30  N   UNL     1       3.172  17.163  18.033  0.00  0.00    +0.000 NA
ENDBRANCH  26  29
ENDBRANCH  17  20
ENDBRANCH   4  14
BRANCH   3  31
ATOM     31  C   UNL     1      -1.546  11.374  19.427  0.00  0.00    +0.000 C 
BRANCH  31  32
ATOM     32  C   UNL     1      -2.285  11.762  18.141  0.00  0.00    +0.000 C 
BRANCH  32  33
ATOM     33  N   UNL     1      -2.483  10.650  17.183  0.00  0.00    +0.000 NA
ATOM     34  C   UNL     1      -3.278   9.582  17.810  0.00  0.00    +0.000 C 
BRANCH  33  35
ATOM     35  C   UNL     1      -3.124  11.136  15.927  0.00  0.00    +0.000 C 
ATOM     36  C   UNL     1      -3.034  10.113  14.778  0.00  0.00    +0.000 C 
ATOM     37  C   UNL     1      -4.617  11.452  16.125  0.00  0.00    +0.000 C 
ENDBRANCH  33  35
ENDBRANCH  32  33
ENDBRANCH  31  32
ENDBRANCH   3  31
TORSDOF 8
ENDMDL
MODEL 5
REMARK VINA RESULT:      -6.7      1.607      7.656
REMARK  Name = 
REMARK  12 active torsions:
REMARK  status: ('A' for Active; 'I' for Inactive)
REMARK    1  A    between atoms: C_1  and  C_2
REMARK    2  A    between atoms: C_4  and  C_5
REMARK    3  A    between atoms: N_7  and  C_8
REMARK    4  A    between atoms: C_8  and  C_9
REMARK    5  A    between atoms: C_9  and  N_10
REMARK    6  A    between atoms: N_10  and  C_11
REMARK    7  A    between atoms: N_10  and  C_12
REMARK    8  A    between atoms: C_12  and  C_13
REMARK    9  A    between atoms: C_12  and  C_14
REMARK   10  A    between atoms: C_15  and  C_16
REMARK   11  A    between atoms: N_19  and  C_20
REMARK   12  A    between atoms: C_26  and  C_27
REMARK                            x       y       z     vdW  Elec       q    Type
REMARK                         _______ _______ _______ _____ _____    ______ ____
ROOT
ATOM      1  C   UNL     1       1.473  13.161  20.062  0.00  0.00    +0.000 A 
ATOM      2  C   UNL     1       0.555  13.281  21.078  0.00  0.00    +0.000 A 
ATOM      3  N   UNL     1      -0.161  12.119  21.053  0.00  0.00    +0.000 N 
ATOM      4  C   UNL     1       0.348  11.326  20.054  0.00  0.00    +0.000 A 
ATOM      5  N   UNL     1       1.324  11.958  19.432  0.00  0.00    +0.000 NA
ENDROOT
BRANCH   1   9
ATOM      6  C   UNL     1       2.912  16.888  17.071  0.00  0.00    +0.000 C 
ATOM      7  C   UNL     1       3.177  15.954  18.210  0.00  0.00    +0.000 A 
ATOM      8  C   UNL     1       2.216  15.015  18.603  0.00  0.00    +0.000 A 
ATOM      9  C   UNL     1       2.462  14.143  19.672  0.00  0.00    +0.000 A 
ATOM     10  C   UNL     1       3.674  14.233  20.369  0.00  0.00    +0.000 A 
ATOM     11  C   UNL     1       4.643  15.159  19.977  0.00  0.00    +0.000 A 
ATOM     12  C   UNL     1       4.389  16.004  18.903  0.00  0.00    +0.000 A 
ATOM     13  F   UNL     1       5.329  16.885  18.533  0.00  0.00    +0.000 F 
ENDBRANCH   1   9
BRANCH   4  14
ATOM     14  C   UNL     1      -0.147   9.947  19.712  0.00  0.00    +0.000 C 
ATOM     15  C   UNL     1       0.527   8.891  20.604  0.00  0.00    +0.000 C 
ATOM     16  C   UNL     1       1.988   8.657  20.214  0.00  0.00    +0.000 C 
ATOM     17  N   UNL     1       1.992   8.332  18.785  0.00  0.00    +0.000 N 
ATOM     18  C   UNL     1       1.557   9.427  17.916  0.00  0.00    +0.000 C 
ATOM     19  C   UNL     1       0.079   9.668  18.217  0.00  0.00    +0.000 C 
BRANCH  17  20
ATOM     20  C   UNL     1       2.818   7.321  18.341  0.00  0.00    +0.000 A 
ATOM     21  N   UNL     1       3.748   7.640  17.424  0.00  0.00    +0.000 NA
ATOM     22  C   UNL     1       4.612   6.685  17.050  0.00  0.00    +0.000 A 
ATOM     23  N   UNL     1       4.635   5.431  17.507  0.00  0.00    +0.000 NA
ATOM     24  C   UNL     1       3.729   5.123  18.436  0.00  0.00    +0.000 A 
ATOM     25  N   UNL     1       3.881   3.871  19.036  0.00  0.00    +0.000 N 
ATOM     26  C   UNL     1       2.789   6.039  18.897  0.00  0.00    +0.000 A 
ATOM     27  H   UNL     1       4.510   3.298  18.483  0.00  0.00    +0.000 HD
ATOM     28  H   UNL     1       3.035   3.399  19.327  0.00  0.00    +0.000 HD
BRANCH  26  29
ATOM     29  C   UNL     1       1.879   5.651  19.921  0.00  0.00    +0.000 C 
ATOM     30  N   UNL     1       1.188   5.286  20.781  0.00  0.00    +0.000 NA
ENDBRANCH  26  29
ENDBRANCH  17  20
ENDBRANCH   4  14
BRANCH   3  31
ATOM     31  C   UNL     1      -1.258  11.789  21.942  0.00  0.00    +0.000 C 
BRANCH  31  32
ATOM     32  C   UNL     1      -1.311  12.766  23.122  0.00  0.00    +0.000 C 
BRANCH  32  33
ATOM     33  N   UNL     1      -2.604  13.469  23.283  0.00  0.00    +0.000 NA
ATOM     34  C   UNL     1      -2.780  14.452  22.201  0.00  0.00    +0.000 C 
BRANCH  33  35
ATOM     35  C   UNL     1      -3.738  12.500  23.323  0.00  0.00    +0.000 C 
ATOM     36  C   UNL     1      -4.405  12.420  24.709  0.00  0.00    +0.000 C 
ATOM     37  C   UNL     1      -4.843  12.862  22.316  0.00  0.00    +0.000 C 
ENDBRANCH  33  35
ENDBRANCH  32  33
ENDBRANCH  31  32
ENDBRANCH   3  31
TORSDOF 8
ENDMDL
MODEL 6
REMARK VINA RESULT:      -6.6      2.858      6.335
REMARK  Name = 
REMARK  12 active torsions:
REMARK  status: ('A' for Active; 'I' for Inactive)
REMARK    1  A    between atoms: C_1  and  C_2
REMARK    2  A    between atoms: C_4  and  C_5
REMARK    3  A    between atoms: N_7  and  C_8
REMARK    4  A    between atoms: C_8  and  C_9
REMARK    5  A    between atoms: C_9  and  N_10
REMARK    6  A    between atoms: N_10  and  C_11
REMARK    7  A    between atoms: N_10  and  C_12
REMARK    8  A    between atoms: C_12  and  C_13
REMARK    9  A    between atoms: C_12  and  C_14
REMARK   10  A    between atoms: C_15  and  C_16
REMARK   11  A    between atoms: N_19  and  C_20
REMARK   12  A    between atoms: C_26  and  C_27
REMARK                            x       y       z     vdW  Elec       q    Type
REMARK                         _______ _______ _______ _____ _____    ______ ____
ROOT
ATOM      1  C   UNL     1       1.092  10.050  19.922  0.00  0.00    +0.000 A 
ATOM      2  C   UNL     1       1.239  10.916  18.865  0.00  0.00    +0.000 A 
ATOM      3  N   UNL     1       0.737  12.107  19.306  0.00  0.00    +0.000 N 
ATOM      4  C   UNL     1       0.327  11.942  20.606  0.00  0.00    +0.000 A 
ATOM      5  N   UNL     1       0.517  10.692  20.982  0.00  0.00    +0.000 NA
ENDROOT
BRANCH   1   9
ATOM      6  C   UNL     1       3.356   6.141  17.800  0.00  0.00    +0.000 C 
ATOM      7  C   UNL     1       2.557   6.736  18.916  0.00  0.00    +0.000 A 
ATOM      8  C   UNL     1       2.210   8.092  18.903  0.00  0.00    +0.000 A 
ATOM      9  C   UNL     1       1.465   8.652  19.950  0.00  0.00    +0.000 A 
ATOM     10  C   UNL     1       1.088   7.846  21.033  0.00  0.00    +0.000 A 
ATOM     11  C   UNL     1       1.421   6.490  21.050  0.00  0.00    +0.000 A 
ATOM     12  C   UNL     1       2.145   5.948  19.994  0.00  0.00    +0.000 A 
ATOM     13  F   UNL     1       2.453   4.644  20.019  0.00  0.00    +0.000 F 
ENDBRANCH   1   9
BRANCH   4  14
ATOM     14  C   UNL     1      -0.265  13.024  21.467  0.00  0.00    +0.000 C 
ATOM     15  C   UNL     1      -0.947  12.420  22.705  0.00  0.00    +0.000 C 
ATOM     16  C   UNL     1      -2.268  11.729  22.355  0.00  0.00    +0.000 C 
ATOM     17  N   UNL     1      -3.079  12.719  21.641  0.00  0.00    +0.000 N 
ATOM     18  C   UNL     1      -2.531  13.127  20.347  0.00  0.00    +0.000 C 
ATOM     19  C   UNL     1      -1.233  13.881  20.635  0.00  0.00    +0.000 C 
BRANCH  17  20
ATOM     20  C   UNL     1      -4.424  12.802  21.933  0.00  0.00    +0.000 A 
ATOM     21  N   UNL     1      -5.272  12.130  21.134  0.00  0.00    +0.000 NA
ATOM     22  C   UNL     1      -6.574  12.133  21.459  0.00  0.00    +0.000 A 
ATOM     23  N   UNL     1      -7.113  12.751  22.513  0.00  0.00    +0.000 NA
ATOM     24  C   UNL     1      -6.268  13.395  23.319  0.00  0.00    +0.000 A 
ATOM     25  N   UNL     1      -6.816  13.876  24.509  0.00  0.00    +0.000 N 
ATOM     26  C   UNL     1      -4.899  13.451  23.076  0.00  0.00    +0.000 A 
ATOM     27  H   UNL     1      -7.829  13.876  24.447  0.00  0.00    +0.000 HD
ATOM     28  H   UNL     1      -6.422  14.732  24.880  0.00  0.00    +0.000 HD
BRANCH  26  29
ATOM     29  C   UNL     1      -4.052  14.122  24.002  0.00  0.00    +0.000 C 
ATOM     30  N   UNL     1      -3.407  14.649  24.813  0.00  0.00    +0.000 NA
ENDBRANCH  26  29
ENDBRANCH  17  20
ENDBRANCH   4  14
BRANCH   3  31
ATOM     31  C   UNL     1       0.667  13.328  18.528  0.00  0.00    +0.000 C 
BRANCH  31  32
ATOM     32  C   UNL     1       2.056  13.725  18.016  0.00  0.00    +0.000 C 
BRANCH  32  33
ATOM     33  N   UNL     1       2.645  14.908  18.683  0.00  0.00    +0.000 NA
ATOM     34  C   UNL     1       3.314  14.502  19.930  0.00  0.00    +0.000 C 
BRANCH  33  35
ATOM     35  C   UNL     1       3.587  15.621  17.772  0.00  0.00    +0.000 C 
ATOM     36  C   UNL     1       2.991  16.918  17.193  0.00  0.00    +0.000 C 
ATOM     37  C   UNL     1       4.895  16.011  18.482  0.00  0.00    +0.000 C 
ENDBRANCH  33  35
ENDBRANCH  32  33
ENDBRANCH  31  32
ENDBRANCH   3  31
TORSDOF 8
ENDMDL
MODEL 7
REMARK VINA RESULT:      -6.6      2.751      6.120
REMARK  Name = 
REMARK  12 active torsions:
REMARK  status: ('A' for Active; 'I' for Inactive)
REMARK    1  A    between atoms: C_1  and  C_2
REMARK    2  A    between atoms: C_4  and  C_5
REMARK    3  A    between atoms: N_7  and  C_8
REMARK    4  A    between atoms: C_8  and  C_9
REMARK    5  A    between atoms: C_9  and  N_10
REMARK    6  A    between atoms: N_10  and  C_11
REMARK    7  A    between atoms: N_10  and  C_12
REMARK    8  A    between atoms: C_12  and  C_13
REMARK    9  A    between atoms: C_12  and  C_14
REMARK   10  A    between atoms: C_15  and  C_16
REMARK   11  A    between atoms: N_19  and  C_20
REMARK   12  A    between atoms: C_26  and  C_27
REMARK                            x       y       z     vdW  Elec       q    Type
REMARK                         _______ _______ _______ _____ _____    ______ ____
ROOT
ATOM      1  C   UNL     1       1.123  11.084  19.522  0.00  0.00    +0.000 A 
ATOM      2  C   UNL     1       1.261  12.205  18.737  0.00  0.00    +0.000 A 
ATOM      3  N   UNL     1       0.714  13.221  19.466  0.00  0.00    +0.000 N 
ATOM      4  C   UNL     1       0.286  12.705  20.664  0.00  0.00    +0.000 A 
ATOM      5  N   UNL     1       0.508  11.405  20.699  0.00  0.00    +0.000 NA
ENDROOT
BRANCH   1   9
ATOM      6  C   UNL     1       1.687   6.292  20.797  0.00  0.00    +0.000 C 
ATOM      7  C   UNL     1       1.829   7.402  19.803  0.00  0.00    +0.000 A 
ATOM      8  C   UNL     1       1.410   8.700  20.116  0.00  0.00    +0.000 A 
ATOM      9  C   UNL     1       1.539   9.739  19.186  0.00  0.00    +0.000 A 
ATOM     10  C   UNL     1       2.070   9.465  17.917  0.00  0.00    +0.000 A 
ATOM     11  C   UNL     1       2.500   8.176  17.599  0.00  0.00    +0.000 A 
ATOM     12  C   UNL     1       2.381   7.161  18.543  0.00  0.00    +0.000 A 
ATOM     13  F   UNL     1       2.803   5.928  18.227  0.00  0.00    +0.000 F 
ENDBRANCH   1   9
BRANCH   4  14
ATOM     14  C   UNL     1      -0.354  13.502  21.767  0.00  0.00    +0.000 C 
ATOM     15  C   UNL     1      -1.045  12.573  22.778  0.00  0.00    +0.000 C 
ATOM     16  C   UNL     1      -2.338  11.973  22.219  0.00  0.00    +0.000 C 
ATOM     17  N   UNL     1      -3.162  13.100  21.774  0.00  0.00    +0.000 N 
ATOM     18  C   UNL     1      -2.599  13.853  20.653  0.00  0.00    +0.000 C 
ATOM     19  C   UNL     1      -1.329  14.530  21.169  0.00  0.00    +0.000 C 
BRANCH  17  20
ATOM     20  C   UNL     1      -4.515  13.072  22.039  0.00  0.00    +0.000 A 
ATOM     21  N   UNL     1      -5.275  12.256  21.287  0.00  0.00    +0.000 NA
ATOM     22  C   UNL     1      -6.577  12.157  21.593  0.00  0.00    +0.000 A 
ATOM     23  N   UNL     1      -7.198  12.801  22.585  0.00  0.00    +0.000 NA
ATOM     24  C   UNL     1      -6.438  13.589  23.345  0.00  0.00    +0.000 A 
ATOM     25  N   UNL     1      -7.057  14.109  24.484  0.00  0.00    +0.000 N 
ATOM     26  C   UNL     1      -5.076  13.761  23.117  0.00  0.00    +0.000 A 
ATOM     27  H   UNL     1      -8.063  14.003  24.408  0.00  0.00    +0.000 HD
ATOM     28  H   UNL     1      -6.757  15.027  24.788  0.00  0.00    +0.000 HD
BRANCH  26  29
ATOM     29  C   UNL     1      -4.319  14.586  23.997  0.00  0.00    +0.000 C 
ATOM     30  N   UNL     1      -3.766  15.281  24.747  0.00  0.00    +0.000 NA
ENDBRANCH  26  29
ENDBRANCH  17  20
ENDBRANCH   4  14
BRANCH   3  31
ATOM     31  C   UNL     1       0.619  14.604  19.040  0.00  0.00    +0.000 C 
BRANCH  31  32
ATOM     32  C   UNL     1       1.926  15.351  19.332  0.00  0.00    +0.000 C 
BRANCH  32  33
ATOM     33  N   UNL     1       2.954  15.233  18.273  0.00  0.00    +0.000 NA
ATOM     34  C   UNL     1       3.143  16.532  17.608  0.00  0.00    +0.000 C 
BRANCH  33  35
ATOM     35  C   UNL     1       4.239  14.720  18.832  0.00  0.00    +0.000 C 
ATOM     36  C   UNL     1       5.388  14.745  17.805  0.00  0.00    +0.000 C 
ATOM     37  C   UNL     1       4.710  15.540  20.045  0.00  0.00    +0.000 C 
ENDBRANCH  33  35
ENDBRANCH  32  33
ENDBRANCH  31  32
ENDBRANCH   3  31
TORSDOF 8
ENDMDL
MODEL 8
REMARK VINA RESULT:      -6.6      3.701      7.470
REMARK  Name = 
REMARK  12 active torsions:
REMARK  status: ('A' for Active; 'I' for Inactive)
REMARK    1  A    between atoms: C_1  and  C_2
REMARK    2  A    between atoms: C_4  and  C_5
REMARK    3  A    between atoms: N_7  and  C_8
REMARK    4  A    between atoms: C_8  and  C_9
REMARK    5  A    between atoms: C_9  and  N_10
REMARK    6  A    between atoms: N_10  and  C_11
REMARK    7  A    between atoms: N_10  and  C_12
REMARK    8  A    between atoms: C_12  and  C_13
REMARK    9  A    between atoms: C_12  and  C_14
REMARK   10  A    between atoms: C_15  and  C_16
REMARK   11  A    between atoms: N_19  and  C_20
REMARK   12  A    between atoms: C_26  and  C_27
REMARK                            x       y       z     vdW  Elec       q    Type
REMARK                         _______ _______ _______ _____ _____    ______ ____
ROOT
ATOM      1  C   UNL     1       1.199   9.607  18.894  0.00  0.00    +0.000 A 
ATOM      2  C   UNL     1      -0.147   9.691  19.163  0.00  0.00    +0.000 A 
ATOM      3  N   UNL     1      -0.439  11.023  19.114  0.00  0.00    +0.000 N 
ATOM      4  C   UNL     1       0.713  11.702  18.799  0.00  0.00    +0.000 A 
ATOM      5  N   UNL     1       1.717  10.854  18.686  0.00  0.00    +0.000 NA
ENDROOT
BRANCH   1   9
ATOM      6  C   UNL     1       4.594   6.768  16.587  0.00  0.00    +0.000 C 
ATOM      7  C   UNL     1       3.642   7.003  17.718  0.00  0.00    +0.000 A 
ATOM      8  C   UNL     1       2.885   8.177  17.782  0.00  0.00    +0.000 A 
ATOM      9  C   UNL     1       1.995   8.400  18.842  0.00  0.00    +0.000 A 
ATOM     10  C   UNL     1       1.887   7.443  19.861  0.00  0.00    +0.000 A 
ATOM     11  C   UNL     1       2.630   6.263  19.800  0.00  0.00    +0.000 A 
ATOM     12  C   UNL     1       3.494   6.052  18.731  0.00  0.00    +0.000 A 
ATOM     13  F   UNL     1       4.199   4.912  18.681  0.00  0.00    +0.000 F 
ENDBRANCH   1   9
BRANCH   4  14
ATOM     14  C   UNL     1       0.815  13.192  18.624  0.00  0.00    +0.000 C 
ATOM     15  C   UNL     1       2.123  13.567  17.909  0.00  0.00    +0.000 C 
ATOM     16  C   UNL     1       3.342  13.411  18.820  0.00  0.00    +0.000 C 
ATOM     17  N   UNL     1       3.066  14.199  20.024  0.00  0.00    +0.000 N 
ATOM     18  C   UNL     1       1.949  13.701  20.828  0.00  0.00    +0.000 C 
ATOM     19  C   UNL     1       0.685  13.887  19.990  0.00  0.00    +0.000 C 
BRANCH  17  20
ATOM     20  C   UNL     1       4.084  14.956  20.565  0.00  0.00    +0.000 A 
ATOM     21  N   UNL     1       4.765  14.428  21.598  0.00  0.00    +0.000 NA
ATOM     22  C   UNL     1       5.812  15.118  22.075  0.00  0.00    +0.000 A 
ATOM     23  N   UNL     1       6.246  16.294  21.615  0.00  0.00    +0.000 NA
ATOM     24  C   UNL     1       5.587  16.803  20.574  0.00  0.00    +0.000 A 
ATOM     25  N   UNL     1       6.161  17.934  19.990  0.00  0.00    +0.000 N 
ATOM     26  C   UNL     1       4.489  16.169  20.001  0.00  0.00    +0.000 A 
ATOM     27  H   UNL     1       6.854  18.332  20.617  0.00  0.00    +0.000 HD
ATOM     28  H   UNL     1       5.526  18.613  19.588  0.00  0.00    +0.000 HD
BRANCH  26  29
ATOM     29  C   UNL     1       3.860  16.752  18.865  0.00  0.00    +0.000 C 
ATOM     30  N   UNL     1       3.415  17.237  17.907  0.00  0.00    +0.000 NA
ENDBRANCH  26  29
ENDBRANCH  17  20
ENDBRANCH   4  14
BRANCH   3  31
ATOM     31  C   UNL     1      -1.746  11.605  19.346  0.00  0.00    +0.000 C 
BRANCH  31  32
ATOM     32  C   UNL     1      -2.680  11.329  18.161  0.00  0.00    +0.000 C 
BRANCH  32  33
ATOM     33  N   UNL     1      -4.116  11.248  18.513  0.00  0.00    +0.000 NA
ATOM     34  C   UNL     1      -4.480  12.367  19.397  0.00  0.00    +0.000 C 
BRANCH  33  35
ATOM     35  C   UNL     1      -4.965  11.230  17.286  0.00  0.00    +0.000 C 
ATOM     36  C   UNL     1      -5.835  12.494  17.144  0.00  0.00    +0.000 C 
ATOM     37  C   UNL     1      -4.123  11.123  16.002  0.00  0.00    +0.000 C 
ENDBRANCH  33  35
ENDBRANCH  32  33
ENDBRANCH  31  32
ENDBRANCH   3  31
TORSDOF 8
ENDMDL
MODEL 9
REMARK VINA RESULT:      -6.6      3.593      7.549
REMARK  Name = 
REMARK  12 active torsions:
REMARK  status: ('A' for Active; 'I' for Inactive)
REMARK    1  A    between atoms: C_1  and  C_2
REMARK    2  A    between atoms: C_4  and  C_5
REMARK    3  A    between atoms: N_7  and  C_8
REMARK    4  A    between atoms: C_8  and  C_9
REMARK    5  A    between atoms: C_9  and  N_10
REMARK    6  A    between atoms: N_10  and  C_11
REMARK    7  A    between atoms: N_10  and  C_12
REMARK    8  A    between atoms: C_12  and  C_13
REMARK    9  A    between atoms: C_12  and  C_14
REMARK   10  A    between atoms: C_15  and  C_16
REMARK   11  A    between atoms: N_19  and  C_20
REMARK   12  A    between atoms: C_26  and  C_27
REMARK                            x       y       z     vdW  Elec       q    Type
REMARK                         _______ _______ _______ _____ _____    ______ ____
ROOT
ATOM      1  C   UNL     1       1.150   9.700  19.088  0.00  0.00    +0.000 A 
ATOM      2  C   UNL     1      -0.129   9.854  19.569  0.00  0.00    +0.000 A 
ATOM      3  N   UNL     1      -0.362  11.199  19.540  0.00  0.00    +0.000 N 
ATOM      4  C   UNL     1       0.753  11.815  19.028  0.00  0.00    +0.000 A 
ATOM      5  N   UNL     1       1.685  10.917  18.772  0.00  0.00    +0.000 NA
ENDROOT
BRANCH   1   9
ATOM      6  C   UNL     1       2.233   5.108  20.715  0.00  0.00    +0.000 C 
ATOM      7  C   UNL     1       2.412   6.217  19.725  0.00  0.00    +0.000 A 
ATOM      8  C   UNL     1       1.705   7.416  19.860  0.00  0.00    +0.000 A 
ATOM      9  C   UNL     1       1.869   8.454  18.933  0.00  0.00    +0.000 A 
ATOM     10  C   UNL     1       2.733   8.273  17.844  0.00  0.00    +0.000 A 
ATOM     11  C   UNL     1       3.451   7.083  17.707  0.00  0.00    +0.000 A 
ATOM     12  C   UNL     1       3.289   6.072  18.647  0.00  0.00    +0.000 A 
ATOM     13  F   UNL     1       3.988   4.936  18.507  0.00  0.00    +0.000 F 
ENDBRANCH   1   9
BRANCH   4  14
ATOM     14  C   UNL     1       0.896  13.296  18.808  0.00  0.00    +0.000 C 
ATOM     15  C   UNL     1       2.166  13.605  17.999  0.00  0.00    +0.000 C 
ATOM     16  C   UNL     1       3.437  13.427  18.834  0.00  0.00    +0.000 C 
ATOM     17  N   UNL     1       3.268  14.254  20.032  0.00  0.00    +0.000 N 
ATOM     18  C   UNL     1       2.189  13.816  20.919  0.00  0.00    +0.000 C 
ATOM     19  C   UNL     1       0.880  14.028  20.159  0.00  0.00    +0.000 C 
BRANCH  17  20
ATOM     20  C   UNL     1       4.345  14.985  20.485  0.00  0.00    +0.000 A 
ATOM     21  N   UNL     1       5.073  14.459  21.485  0.00  0.00    +0.000 NA
ATOM     22  C   UNL     1       6.173  15.121  21.874  0.00  0.00    +0.000 A 
ATOM     23  N   UNL     1       6.617  16.269  21.357  0.00  0.00    +0.000 NA
ATOM     24  C   UNL     1       5.908  16.777  20.349  0.00  0.00    +0.000 A 
ATOM     25  N   UNL     1       6.481  17.872  19.699  0.00  0.00    +0.000 N 
ATOM     26  C   UNL     1       4.754  16.169  19.865  0.00  0.00    +0.000 A 
ATOM     27  H   UNL     1       7.227  18.259  20.268  0.00  0.00    +0.000 HD
ATOM     28  H   UNL     1       5.845  18.564  19.322  0.00  0.00    +0.000 HD
BRANCH  26  29
ATOM     29  C   UNL     1       4.072  16.747  18.757  0.00  0.00    +0.000 C 
ATOM     30  N   UNL     1       3.472  17.256  17.901  0.00  0.00    +0.000 NA
ENDBRANCH  26  29
ENDBRANCH  17  20
ENDBRANCH   4  14
BRANCH   3  31
ATOM     31  C   UNL     1      -1.585  11.849  19.969  0.00  0.00    +0.000 C 
BRANCH  31  32
ATOM     32  C   UNL     1      -2.515  12.093  18.774  0.00  0.00    +0.000 C 
BRANCH  32  33
ATOM     33  N   UNL     1      -3.745  11.269  18.770  0.00  0.00    +0.000 NA
ATOM     34  C   UNL     1      -4.916  12.111  19.062  0.00  0.00    +0.000 C 
BRANCH  33  35
ATOM     35  C   UNL     1      -3.903  10.554  17.470  0.00  0.00    +0.000 C 
ATOM     36  C   UNL     1      -4.529  11.440  16.376  0.00  0.00    +0.000 C 
ATOM     37  C   UNL     1      -2.558  10.051  16.919  0.00  0.00    +0.000 C 
ENDBRANCH  33  35
ENDBRANCH  32  33
ENDBRANCH  31  32
ENDBRANCH   3  31
TORSDOF 8
ENDMDL
