MODEL 1
REMARK VINA RESULT:      -6.8      0.000      0.000
REMARK  Name = 
REMARK  6 active torsions:
REMARK  status: ('A' for Active; 'I' for Inactive)
REMARK    1  A    between atoms: C_1  and  O_2
REMARK    2  A    between atoms: O_2  and  C_3
REMARK    3  A    between atoms: C_3  and  C_4
REMARK    4  A    between atoms: C_4  and  C_5
REMARK    5  A    between atoms: C_4  and  C_6
REMARK    6  A    between atoms: C_15  and  C_16
REMARK                            x       y       z     vdW  Elec       q    Type
REMARK                         _______ _______ _______ _____ _____    ______ ____
ROOT
ATOM      1  C   UNL     1       5.474   5.692  15.616  0.00  0.00    +0.000 C 
ATOM      2  O   UNL     1       5.247   6.790  15.117  0.00  0.00    +0.000 OA
ATOM      3  N   UNL     1       5.015   5.385  16.876  0.00  0.00    +0.000 N 
ATOM      4  C   UNL     1       4.099   6.251  17.607  0.00  0.00    +0.000 C 
ATOM      5  C   UNL     1       3.500   5.361  18.712  0.00  0.00    +0.000 C 
ATOM      6  C   UNL     1       2.031   5.012  18.477  0.00  0.00    +0.000 C 
ATOM      7  C   UNL     1       2.080   3.887  17.457  0.00  0.00    +0.000 C 
ATOM      8  C   UNL     1       3.276   3.050  17.896  0.00  0.00    +0.000 C 
ATOM      9  C   UNL     1       4.249   4.013  18.606  0.00  0.00    +0.000 C 
ATOM     10  C   UNL     1       5.486   4.320  17.761  0.00  0.00    +0.000 C 
ENDROOT
BRANCH  10  11
ATOM     11  C   UNL     1       6.671   4.790  18.648  0.00  0.00    +0.000 C 
ATOM     12  N   UNL     1       7.929   4.603  18.145  0.00  0.00    +0.000 N 
ATOM     13  O   UNL     1       6.525   5.235  19.786  0.00  0.00    +0.000 OA
ATOM     14  H   UNL     1       8.084   4.311  17.188  0.00  0.00    +0.000 HD
ATOM     15  H   UNL     1       8.721   4.925  18.685  0.00  0.00    +0.000 HD
ENDBRANCH  10  11
BRANCH   1  16
ATOM     16  C   UNL     1       6.177   4.584  14.831  0.00  0.00    +0.000 C 
ATOM     17  C   UNL     1       7.385   5.098  14.043  0.00  0.00    +0.000 C 
BRANCH  16  18
ATOM     18  C   UNL     1       5.147   3.961  13.884  0.00  0.00    +0.000 C 
BRANCH  18  20
ATOM     19  C   UNL     1       4.906   3.104  11.694  0.00  0.00    +0.000 C 
ATOM     20  O   UNL     1       5.818   3.503  12.708  0.00  0.00    +0.000 OA
ENDBRANCH  18  20
ENDBRANCH  16  18
ENDBRANCH   1  16
TORSDOF 4
ENDMDL
MODEL 2
REMARK VINA RESULT:      -6.7      2.206      5.065
REMARK  Name = 
REMARK  6 active torsions:
REMARK  status: ('A' for Active; 'I' for Inactive)
REMARK    1  A    between atoms: C_1  and  O_2
REMARK    2  A    between atoms: O_2  and  C_3
REMARK    3  A    between atoms: C_3  and  C_4
REMARK    4  A    between atoms: C_4  and  C_5
REMARK    5  A    between atoms: C_4  and  C_6
REMARK    6  A    between atoms: C_15  and  C_16
REMARK                            x       y       z     vdW  Elec       q    Type
REMARK                         _______ _______ _______ _____ _____    ______ ____
ROOT
ATOM      1  C   UNL     1       3.933   5.071  17.474  0.00  0.00    +0.000 C 
ATOM      2  O   UNL     1       3.097   5.937  17.713  0.00  0.00    +0.000 OA
ATOM      3  N   UNL     1       5.208   5.413  17.090  0.00  0.00    +0.000 N 
ATOM      4  C   UNL     1       5.691   6.788  17.119  0.00  0.00    +0.000 C 
ATOM      5  C   UNL     1       7.226   6.675  17.067  0.00  0.00    +0.000 C 
ATOM      6  C   UNL     1       7.905   7.042  18.385  0.00  0.00    +0.000 C 
ATOM      7  C   UNL     1       7.742   5.798  19.241  0.00  0.00    +0.000 C 
ATOM      8  C   UNL     1       7.959   4.652  18.260  0.00  0.00    +0.000 C 
ATOM      9  C   UNL     1       7.523   5.170  16.875  0.00  0.00    +0.000 C 
ATOM     10  C   UNL     1       6.194   4.566  16.418  0.00  0.00    +0.000 C 
ENDROOT
BRANCH  10  11
ATOM     11  C   UNL     1       6.049   4.628  14.873  0.00  0.00    +0.000 C 
ATOM     12  N   UNL     1       7.114   5.131  14.176  0.00  0.00    +0.000 N 
ATOM     13  O   UNL     1       5.014   4.329  14.281  0.00  0.00    +0.000 OA
ATOM     14  H   UNL     1       8.005   5.315  14.619  0.00  0.00    +0.000 HD
ATOM     15  H   UNL     1       7.063   5.157  13.166  0.00  0.00    +0.000 HD
ENDBRANCH  10  11
BRANCH   1  16
ATOM     16  C   UNL     1       3.634   3.587  17.691  0.00  0.00    +0.000 C 
ATOM     17  C   UNL     1       2.163   3.242  17.442  0.00  0.00    +0.000 C 
BRANCH  16  18
ATOM     18  C   UNL     1       4.029   3.240  19.130  0.00  0.00    +0.000 C 
BRANCH  18  20
ATOM     19  C   UNL     1       2.715   2.806  21.046  0.00  0.00    +0.000 C 
ATOM     20  O   UNL     1       3.004   2.428  19.707  0.00  0.00    +0.000 OA
ENDBRANCH  18  20
ENDBRANCH  16  18
ENDBRANCH   1  16
TORSDOF 4
ENDMDL
MODEL 3
REMARK VINA RESULT:      -6.7      2.816      4.149
REMARK  Name = 
REMARK  6 active torsions:
REMARK  status: ('A' for Active; 'I' for Inactive)
REMARK    1  A    between atoms: C_1  and  O_2
REMARK    2  A    between atoms: O_2  and  C_3
REMARK    3  A    between atoms: C_3  and  C_4
REMARK    4  A    between atoms: C_4  and  C_5
REMARK    5  A    between atoms: C_4  and  C_6
REMARK    6  A    between atoms: C_15  and  C_16
REMARK                            x       y       z     vdW  Elec       q    Type
REMARK                         _______ _______ _______ _____ _____    ______ ____
ROOT
ATOM      1  C   UNL     1       5.689   4.894  18.695  0.00  0.00    +0.000 C 
ATOM      2  O   UNL     1       6.411   4.842  19.686  0.00  0.00    +0.000 OA
ATOM      3  N   UNL     1       4.320   4.851  18.821  0.00  0.00    +0.000 N 
ATOM      4  C   UNL     1       3.651   4.923  20.114  0.00  0.00    +0.000 C 
ATOM      5  C   UNL     1       2.193   5.298  19.791  0.00  0.00    +0.000 C 
ATOM      6  C   UNL     1       1.831   6.725  20.198  0.00  0.00    +0.000 C 
ATOM      7  C   UNL     1       2.404   7.581  19.081  0.00  0.00    +0.000 C 
ATOM      8  C   UNL     1       2.122   6.771  17.822  0.00  0.00    +0.000 C 
ATOM      9  C   UNL     1       2.097   5.290  18.248  0.00  0.00    +0.000 C 
ATOM     10  C   UNL     1       3.340   4.527  17.785  0.00  0.00    +0.000 C 
ENDROOT
BRANCH  10  11
ATOM     11  C   UNL     1       3.066   3.001  17.707  0.00  0.00    +0.000 C 
ATOM     12  N   UNL     1       4.155   2.176  17.786  0.00  0.00    +0.000 N 
ATOM     13  O   UNL     1       1.951   2.526  17.499  0.00  0.00    +0.000 OA
ATOM     14  H   UNL     1       5.073   2.525  18.031  0.00  0.00    +0.000 HD
ATOM     15  H   UNL     1       4.009   1.175  17.768  0.00  0.00    +0.000 HD
ENDBRANCH  10  11
BRANCH   1  16
ATOM     16  C   UNL     1       6.263   5.115  17.295  0.00  0.00    +0.000 C 
ATOM     17  C   UNL     1       7.673   4.538  17.141  0.00  0.00    +0.000 C 
BRANCH  16  18
ATOM     18  C   UNL     1       6.271   6.624  17.030  0.00  0.00    +0.000 C 
BRANCH  18  20
ATOM     19  C   UNL     1       7.922   8.183  17.684  0.00  0.00    +0.000 C 
ATOM     20  O   UNL     1       7.623   7.058  16.869  0.00  0.00    +0.000 OA
ENDBRANCH  18  20
ENDBRANCH  16  18
ENDBRANCH   1  16
TORSDOF 4
ENDMDL
MODEL 4
REMARK VINA RESULT:      -6.4      3.700      4.907
REMARK  Name = 
REMARK  6 active torsions:
REMARK  status: ('A' for Active; 'I' for Inactive)
REMARK    1  A    between atoms: C_1  and  O_2
REMARK    2  A    between atoms: O_2  and  C_3
REMARK    3  A    between atoms: C_3  and  C_4
REMARK    4  A    between atoms: C_4  and  C_5
REMARK    5  A    between atoms: C_4  and  C_6
REMARK    6  A    between atoms: C_15  and  C_16
REMARK                            x       y       z     vdW  Elec       q    Type
REMARK                         _______ _______ _______ _____ _____    ______ ____
ROOT
ATOM      1  C   UNL     1       2.464   6.799  19.401  0.00  0.00    +0.000 C 
ATOM      2  O   UNL     1       2.129   7.553  20.310  0.00  0.00    +0.000 OA
ATOM      3  N   UNL     1       2.764   5.482  19.656  0.00  0.00    +0.000 N 
ATOM      4  C   UNL     1       2.534   4.865  20.956  0.00  0.00    +0.000 C 
ATOM      5  C   UNL     1       2.562   3.348  20.692  0.00  0.00    +0.000 C 
ATOM      6  C   UNL     1       1.188   2.689  20.806  0.00  0.00    +0.000 C 
ATOM      7  C   UNL     1       0.516   3.010  19.482  0.00  0.00    +0.000 C 
ATOM      8  C   UNL     1       1.639   2.870  18.461  0.00  0.00    +0.000 C 
ATOM      9  C   UNL     1       2.950   3.196  19.203  0.00  0.00    +0.000 C 
ATOM     10  C   UNL     1       3.520   4.560  18.808  0.00  0.00    +0.000 C 
ENDROOT
BRANCH  10  11
ATOM     11  C   UNL     1       5.045   4.636  19.092  0.00  0.00    +0.000 C 
ATOM     12  N   UNL     1       5.783   3.525  18.790  0.00  0.00    +0.000 N 
ATOM     13  O   UNL     1       5.582   5.599  19.637  0.00  0.00    +0.000 OA
ATOM     14  H   UNL     1       5.392   2.747  18.273  0.00  0.00    +0.000 HD
ATOM     15  H   UNL     1       6.784   3.552  18.935  0.00  0.00    +0.000 HD
ENDBRANCH  10  11
BRANCH   1  16
ATOM     16  C   UNL     1       2.460   7.253  17.941  0.00  0.00    +0.000 C 
ATOM     17  C   UNL     1       3.851   7.667  17.451  0.00  0.00    +0.000 C 
BRANCH  16  18
ATOM     18  C   UNL     1       1.481   8.425  17.821  0.00  0.00    +0.000 C 
BRANCH  18  20
ATOM     19  C   UNL     1       1.808  10.719  18.289  0.00  0.00    +0.000 C 
ATOM     20  O   UNL     1       2.213   9.609  17.500  0.00  0.00    +0.000 OA
ENDBRANCH  18  20
ENDBRANCH  16  18
ENDBRANCH   1  16
TORSDOF 4
ENDMDL
MODEL 5
REMARK VINA RESULT:      -6.4      2.179      3.756
REMARK  Name = 
REMARK  6 active torsions:
REMARK  status: ('A' for Active; 'I' for Inactive)
REMARK    1  A    between atoms: C_1  and  O_2
REMARK    2  A    between atoms: O_2  and  C_3
REMARK    3  A    between atoms: C_3  and  C_4
REMARK    4  A    between atoms: C_4  and  C_5
REMARK    5  A    between atoms: C_4  and  C_6
REMARK    6  A    between atoms: C_15  and  C_16
REMARK                            x       y       z     vdW  Elec       q    Type
REMARK                         _______ _______ _______ _____ _____    ______ ____
ROOT
ATOM      1  C   UNL     1       5.696   4.845  18.851  0.00  0.00    +0.000 C 
ATOM      2  O   UNL     1       6.365   4.782  19.878  0.00  0.00    +0.000 OA
ATOM      3  N   UNL     1       4.323   4.819  18.905  0.00  0.00    +0.000 N 
ATOM      4  C   UNL     1       3.588   4.898  20.161  0.00  0.00    +0.000 C 
ATOM      5  C   UNL     1       2.153   5.292  19.762  0.00  0.00    +0.000 C 
ATOM      6  C   UNL     1       1.788   6.723  20.153  0.00  0.00    +0.000 C 
ATOM      7  C   UNL     1       2.431   7.573  19.070  0.00  0.00    +0.000 C 
ATOM      8  C   UNL     1       2.205   6.768  17.795  0.00  0.00    +0.000 C 
ATOM      9  C   UNL     1       2.138   5.287  18.217  0.00  0.00    +0.000 C 
ATOM     10  C   UNL     1       3.394   4.510  17.818  0.00  0.00    +0.000 C 
ENDROOT
BRANCH  10  11
ATOM     11  C   UNL     1       3.106   2.987  17.722  0.00  0.00    +0.000 C 
ATOM     12  N   UNL     1       4.185   2.150  17.805  0.00  0.00    +0.000 N 
ATOM     13  O   UNL     1       1.988   2.525  17.498  0.00  0.00    +0.000 OA
ATOM     14  H   UNL     1       5.104   2.487  18.063  0.00  0.00    +0.000 HD
ATOM     15  H   UNL     1       4.028   1.151  17.776  0.00  0.00    +0.000 HD
ENDBRANCH  10  11
BRANCH   1  16
ATOM     16  C   UNL     1       6.346   5.061  17.484  0.00  0.00    +0.000 C 
ATOM     17  C   UNL     1       7.770   4.500  17.415  0.00  0.00    +0.000 C 
BRANCH  16  18
ATOM     18  C   UNL     1       6.350   6.567  17.204  0.00  0.00    +0.000 C 
BRANCH  18  20
ATOM     19  C   UNL     1       5.459   5.739  15.178  0.00  0.00    +0.000 C 
ATOM     20  O   UNL     1       5.503   6.832  16.085  0.00  0.00    +0.000 OA
ENDBRANCH  18  20
ENDBRANCH  16  18
ENDBRANCH   1  16
TORSDOF 4
ENDMDL
MODEL 6
REMARK VINA RESULT:      -6.3      3.030      5.862
REMARK  Name = 
REMARK  6 active torsions:
REMARK  status: ('A' for Active; 'I' for Inactive)
REMARK    1  A    between atoms: C_1  and  O_2
REMARK    2  A    between atoms: O_2  and  C_3
REMARK    3  A    between atoms: C_3  and  C_4
REMARK    4  A    between atoms: C_4  and  C_5
REMARK    5  A    between atoms: C_4  and  C_6
REMARK    6  A    between atoms: C_15  and  C_16
REMARK                            x       y       z     vdW  Elec       q    Type
REMARK                         _______ _______ _______ _____ _____    ______ ____
ROOT
ATOM      1  C   UNL     1       2.871   5.835  18.513  0.00  0.00    +0.000 C 
ATOM      2  O   UNL     1       2.113   6.188  17.615  0.00  0.00    +0.000 OA
ATOM      3  N   UNL     1       4.025   5.145  18.226  0.00  0.00    +0.000 N 
ATOM      4  C   UNL     1       4.504   4.953  16.862  0.00  0.00    +0.000 C 
ATOM      5  C   UNL     1       5.986   4.563  17.008  0.00  0.00    +0.000 C 
ATOM      6  C   UNL     1       6.948   5.659  16.553  0.00  0.00    +0.000 C 
ATOM      7  C   UNL     1       6.983   6.626  17.723  0.00  0.00    +0.000 C 
ATOM      8  C   UNL     1       6.970   5.716  18.946  0.00  0.00    +0.000 C 
ATOM      9  C   UNL     1       6.230   4.430  18.529  0.00  0.00    +0.000 C 
ATOM     10  C   UNL     1       4.831   4.337  19.141  0.00  0.00    +0.000 C 
ENDROOT
BRANCH  10  11
ATOM     11  C   UNL     1       4.338   2.865  19.196  0.00  0.00    +0.000 C 
ATOM     12  N   UNL     1       5.096   1.989  19.924  0.00  0.00    +0.000 N 
ATOM     13  O   UNL     1       3.368   2.456  18.561  0.00  0.00    +0.000 OA
ATOM     14  H   UNL     1       5.854   2.303  20.518  0.00  0.00    +0.000 HD
ATOM     15  H   UNL     1       4.787   1.030  20.005  0.00  0.00    +0.000 HD
ENDBRANCH  10  11
BRANCH   1  16
ATOM     16  C   UNL     1       2.629   6.232  19.969  0.00  0.00    +0.000 C 
ATOM     17  C   UNL     1       1.724   5.240  20.706  0.00  0.00    +0.000 C 
BRANCH  16  18
ATOM     18  C   UNL     1       2.002   7.630  19.971  0.00  0.00    +0.000 C 
BRANCH  18  20
ATOM     19  C   UNL     1       1.045   9.170  21.488  0.00  0.00    +0.000 C 
ATOM     20  O   UNL     1       1.252   7.799  21.175  0.00  0.00    +0.000 OA
ENDBRANCH  18  20
ENDBRANCH  16  18
ENDBRANCH   1  16
TORSDOF 4
ENDMDL
MODEL 7
REMARK VINA RESULT:      -6.2      2.394      3.595
REMARK  Name = 
REMARK  6 active torsions:
REMARK  status: ('A' for Active; 'I' for Inactive)
REMARK    1  A    between atoms: C_1  and  O_2
REMARK    2  A    between atoms: O_2  and  C_3
REMARK    3  A    between atoms: C_3  and  C_4
REMARK    4  A    between atoms: C_4  and  C_5
REMARK    5  A    between atoms: C_4  and  C_6
REMARK    6  A    between atoms: C_15  and  C_16
REMARK                            x       y       z     vdW  Elec       q    Type
REMARK                         _______ _______ _______ _____ _____    ______ ____
ROOT
ATOM      1  C   UNL     1       4.389   4.906  17.169  0.00  0.00    +0.000 C 
ATOM      2  O   UNL     1       4.229   4.656  15.978  0.00  0.00    +0.000 OA
ATOM      3  N   UNL     1       3.335   4.840  18.048  0.00  0.00    +0.000 N 
ATOM      4  C   UNL     1       2.033   4.304  17.669  0.00  0.00    +0.000 C 
ATOM      5  C   UNL     1       1.324   3.992  19.000  0.00  0.00    +0.000 C 
ATOM      6  C   UNL     1       1.190   2.495  19.277  0.00  0.00    +0.000 C 
ATOM      7  C   UNL     1       2.560   2.094  19.796  0.00  0.00    +0.000 C 
ATOM      8  C   UNL     1       2.973   3.267  20.677  0.00  0.00    +0.000 C 
ATOM      9  C   UNL     1       2.271   4.515  20.104  0.00  0.00    +0.000 C 
ATOM     10  C   UNL     1       3.242   5.447  19.376  0.00  0.00    +0.000 C 
ENDROOT
BRANCH  10  11
ATOM     11  C   UNL     1       2.687   6.896  19.309  0.00  0.00    +0.000 C 
ATOM     12  N   UNL     1       2.053   7.364  20.427  0.00  0.00    +0.000 N 
ATOM     13  O   UNL     1       2.724   7.585  18.292  0.00  0.00    +0.000 OA
ATOM     14  H   UNL     1       2.069   6.856  21.304  0.00  0.00    +0.000 HD
ATOM     15  H   UNL     1       1.706   8.314  20.427  0.00  0.00    +0.000 HD
ENDBRANCH  10  11
BRANCH   1  16
ATOM     16  C   UNL     1       5.774   5.197  17.747  0.00  0.00    +0.000 C 
ATOM     17  C   UNL     1       6.151   6.679  17.654  0.00  0.00    +0.000 C 
BRANCH  16  18
ATOM     18  C   UNL     1       6.787   4.340  16.982  0.00  0.00    +0.000 C 
BRANCH  18  20
ATOM     19  C   UNL     1       7.238   4.799  14.708  0.00  0.00    +0.000 C 
ATOM     20  O   UNL     1       7.490   5.170  16.056  0.00  0.00    +0.000 OA
ENDBRANCH  18  20
ENDBRANCH  16  18
ENDBRANCH   1  16
TORSDOF 4
ENDMDL
MODEL 8
REMARK VINA RESULT:      -6.2      2.565      4.047
REMARK  Name = 
REMARK  6 active torsions:
REMARK  status: ('A' for Active; 'I' for Inactive)
REMARK    1  A    between atoms: C_1  and  O_2
REMARK    2  A    between atoms: O_2  and  C_3
REMARK    3  A    between atoms: C_3  and  C_4
REMARK    4  A    between atoms: C_4  and  C_5
REMARK    5  A    between atoms: C_4  and  C_6
REMARK    6  A    between atoms: C_15  and  C_16
REMARK                            x       y       z     vdW  Elec       q    Type
REMARK                         _______ _______ _______ _____ _____    ______ ____
ROOT
ATOM      1  C   UNL     1       4.958   5.438  17.014  0.00  0.00    +0.000 C 
ATOM      2  O   UNL     1       4.858   5.430  15.790  0.00  0.00    +0.000 OA
ATOM      3  N   UNL     1       3.945   4.947  17.803  0.00  0.00    +0.000 N 
ATOM      4  C   UNL     1       2.798   4.237  17.253  0.00  0.00    +0.000 C 
ATOM      5  C   UNL     1       2.178   3.488  18.448  0.00  0.00    +0.000 C 
ATOM      6  C   UNL     1       2.384   1.976  18.387  0.00  0.00    +0.000 C 
ATOM      7  C   UNL     1       3.809   1.781  18.874  0.00  0.00    +0.000 C 
ATOM      8  C   UNL     1       3.947   2.790  20.008  0.00  0.00    +0.000 C 
ATOM      9  C   UNL     1       2.983   3.948  19.685  0.00  0.00    +0.000 C 
ATOM     10  C   UNL     1       3.718   5.208  19.225  0.00  0.00    +0.000 C 
ENDROOT
BRANCH  10  11
ATOM     11  C   UNL     1       2.851   6.478  19.446  0.00  0.00    +0.000 C 
ATOM     12  N   UNL     1       2.094   6.515  20.585  0.00  0.00    +0.000 N 
ATOM     13  O   UNL     1       2.760   7.384  18.620  0.00  0.00    +0.000 OA
ATOM     14  H   UNL     1       2.200   5.826  21.321  0.00  0.00    +0.000 HD
ATOM     15  H   UNL     1       1.541   7.340  20.774  0.00  0.00    +0.000 HD
ENDBRANCH  10  11
BRANCH   1  16
ATOM     16  C   UNL     1       6.242   5.890  17.710  0.00  0.00    +0.000 C 
ATOM     17  C   UNL     1       6.725   7.258  17.220  0.00  0.00    +0.000 C 
BRANCH  16  18
ATOM     18  C   UNL     1       7.310   4.822  17.454  0.00  0.00    +0.000 C 
BRANCH  18  20
ATOM     19  C   UNL     1       7.649   5.494  19.695  0.00  0.00    +0.000 C 
ATOM     20  O   UNL     1       8.037   4.597  18.663  0.00  0.00    +0.000 OA
ENDBRANCH  18  20
ENDBRANCH  16  18
ENDBRANCH   1  16
TORSDOF 4
ENDMDL
MODEL 9
REMARK VINA RESULT:      -6.1      3.143      5.581
REMARK  Name = 
REMARK  6 active torsions:
REMARK  status: ('A' for Active; 'I' for Inactive)
REMARK    1  A    between atoms: C_1  and  O_2
REMARK    2  A    between atoms: O_2  and  C_3
REMARK    3  A    between atoms: C_3  and  C_4
REMARK    4  A    between atoms: C_4  and  C_5
REMARK    5  A    between atoms: C_4  and  C_6
REMARK    6  A    between atoms: C_15  and  C_16
REMARK                            x       y       z     vdW  Elec       q    Type
REMARK                         _______ _______ _______ _____ _____    ______ ____
ROOT
ATOM      1  C   UNL     1       1.792   4.309  18.053  0.00  0.00    +0.000 C 
ATOM      2  O   UNL     1       1.033   4.224  17.093  0.00  0.00    +0.000 OA
ATOM      3  N   UNL     1       3.136   4.059  17.909  0.00  0.00    +0.000 N 
ATOM      4  C   UNL     1       3.760   3.862  16.607  0.00  0.00    +0.000 C 
ATOM      5  C   UNL     1       5.267   4.071  16.847  0.00  0.00    +0.000 C 
ATOM      6  C   UNL     1       5.803   5.366  16.239  0.00  0.00    +0.000 C 
ATOM      7  C   UNL     1       5.393   6.436  17.235  0.00  0.00    +0.000 C 
ATOM      8  C   UNL     1       5.609   5.773  18.591  0.00  0.00    +0.000 C 
ATOM      9  C   UNL     1       5.419   4.259  18.374  0.00  0.00    +0.000 C 
ATOM     10  C   UNL     1       4.103   3.747  18.962  0.00  0.00    +0.000 C 
ENDROOT
BRANCH  10  11
ATOM     11  C   UNL     1       4.170   2.222  19.247  0.00  0.00    +0.000 C 
ATOM     12  N   UNL     1       5.153   1.798  20.100  0.00  0.00    +0.000 N 
ATOM     13  O   UNL     1       3.447   1.399  18.688  0.00  0.00    +0.000 OA
ATOM     14  H   UNL     1       5.714   2.449  20.635  0.00  0.00    +0.000 HD
ATOM     15  H   UNL     1       5.205   0.814  20.330  0.00  0.00    +0.000 HD
ENDBRANCH  10  11
BRANCH   1  16
ATOM     16  C   UNL     1       1.306   4.796  19.419  0.00  0.00    +0.000 C 
ATOM     17  C   UNL     1       2.358   5.631  20.153  0.00  0.00    +0.000 C 
BRANCH  16  18
ATOM     18  C   UNL     1       0.931   3.561  20.245  0.00  0.00    +0.000 C 
BRANCH  18  20
ATOM     19  C   UNL     1       1.977   2.343  21.980  0.00  0.00    +0.000 C 
ATOM     20  O   UNL     1       1.599   3.629  21.506  0.00  0.00    +0.000 OA
ENDBRANCH  18  20
ENDBRANCH  16  18
ENDBRANCH   1  16
TORSDOF 4
ENDMDL
