MODEL 1
REMARK VINA RESULT:      -7.0      0.000      0.000
REMARK  Name = 
REMARK  18 active torsions:
REMARK  status: ('A' for Active; 'I' for Inactive)
REMARK    1  A    between atoms: N_1  and  C_2
REMARK    2  A    between atoms: C_2  and  C_3
REMARK    3  A    between atoms: C_3  and  C_4
REMARK    4  A    between atoms: C_4  and  C_5
REMARK    5  A    between atoms: C_5  and  C_6
REMARK    6  A    between atoms: C_6  and  N_7
REMARK    7  A    between atoms: C_6  and  C_8
REMARK    8  A    between atoms: N_10  and  C_11
REMARK    9  A    between atoms: C_11  and  C_12
REMARK   10  A    between atoms: C_14  and  O_15
REMARK   11  A    between atoms: O_15  and  C_16
REMARK   12  A    between atoms: C_17  and  N_18
REMARK   13  A    between atoms: C_20  and  N_21
REMARK   14  A    between atoms: C_22  and  O_23
REMARK   15  A    between atoms: C_24  and  O_25
REMARK   16  A    between atoms: C_26  and  N_27
REMARK   17  A    between atoms: C_28  and  O_29
REMARK   18  A    between atoms: C_30  and  O_31
REMARK                            x       y       z     vdW  Elec       q    Type
REMARK                         _______ _______ _______ _____ _____    ______ ____
ROOT
ATOM      1  C   UNL     1       4.811   6.540  17.271  0.00  0.00    +0.000 C 
ATOM      2  O   UNL     1       3.919   5.494  16.878  0.00  0.00    +0.000 OA
ATOM      3  C   UNL     1       4.522   4.225  16.654  0.00  0.00    +0.000 C 
ATOM      4  C   UNL     1       5.580   4.394  15.517  0.00  0.00    +0.000 C 
ATOM      5  C   UNL     1       6.679   5.328  16.052  0.00  0.00    +0.000 C 
ATOM      6  C   UNL     1       6.033   6.693  16.346  0.00  0.00    +0.000 C 
ENDROOT
BRANCH   4   7
ATOM      7  N   UNL     1       6.130   3.167  14.907  0.00  0.00    +0.000 NA
ATOM      8  H   UNL     1       5.724   2.345  15.348  0.00  0.00    +0.000 HD
ATOM      9  H   UNL     1       7.133   3.134  15.113  0.00  0.00    +0.000 HD
ENDBRANCH   4   7
BRANCH   6  10
ATOM     10  O   UNL     1       6.966   7.610  16.924  0.00  0.00    +0.000 OA
ATOM     11  H   UNL     1       7.180   8.290  16.258  0.00  0.00    +0.000 HD
ENDBRANCH   6  10
BRANCH   5  12
ATOM     12  O   UNL     1       7.747   5.475  15.103  0.00  0.00    +0.000 OA
ATOM     13  H   UNL     1       7.671   4.759  14.447  0.00  0.00    +0.000 HD
ENDBRANCH   5  12
BRANCH   3  14
ATOM     14  O   UNL     1       5.113   3.699  17.849  0.00  0.00    +0.000 OA
BRANCH  14  15
ATOM     15  C   UNL     1       4.185   3.310  18.904  0.00  0.00    +0.000 C 
ATOM     16  C   UNL     1       3.347   2.135  18.308  0.00  0.00    +0.000 C 
ATOM     17  C   UNL     1       2.042   1.797  19.044  0.00  0.00    +0.000 C 
ATOM     18  C   UNL     1       1.228   3.048  19.378  0.00  0.00    +0.000 C 
ATOM     19  C   UNL     1       2.099   3.996  20.229  0.00  0.00    +0.000 C 
ATOM     20  C   UNL     1       3.301   4.479  19.398  0.00  0.00    +0.000 C 
BRANCH  18  21
ATOM     21  N   UNL     1      -0.024   2.689  20.051  0.00  0.00    +0.000 NA
ATOM     22  H   UNL     1       0.027   1.743  20.426  0.00  0.00    +0.000 HD
ATOM     23  H   UNL     1      -0.803   2.701  19.393  0.00  0.00    +0.000 HD
ENDBRANCH  18  21
BRANCH  16  24
ATOM     24  N   UNL     1       4.143   0.894  18.219  0.00  0.00    +0.000 NA
ATOM     25  H   UNL     1       4.965   0.951  18.817  0.00  0.00    +0.000 HD
ATOM     26  H   UNL     1       4.494   0.798  17.262  0.00  0.00    +0.000 HD
ENDBRANCH  16  24
BRANCH  20  27
ATOM     27  O   UNL     1       4.076   5.401  20.185  0.00  0.00    +0.000 OA
ATOM     28  H   UNL     1       4.706   5.868  19.604  0.00  0.00    +0.000 HD
ENDBRANCH  20  27
BRANCH  19  29
ATOM     29  O   UNL     1       1.352   5.125  20.693  0.00  0.00    +0.000 OA
ATOM     30  H   UNL     1       1.982   5.776  21.049  0.00  0.00    +0.000 HD
ENDBRANCH  19  29
ENDBRANCH  14  15
ENDBRANCH   3  14
BRANCH   1  31
ATOM     31  C   UNL     1       3.997   7.850  17.340  0.00  0.00    +0.000 C 
BRANCH  31  34
ATOM     32  C   UNL     1       1.958   8.796  18.404  0.00  0.00    +0.000 C 
ATOM     33  O   UNL     1       1.849   9.702  17.576  0.00  0.00    +0.000 OA
ATOM     34  N   UNL     1       2.931   7.809  18.323  0.00  0.00    +0.000 N 
ATOM     35  H   UNL     1       2.983   7.124  19.064  0.00  0.00    +0.000 HD
BRANCH  32  36
ATOM     36  C   UNL     1       0.971   8.634  19.580  0.00  0.00    +0.000 C 
BRANCH  36  37
ATOM     37  N   UNL     1       1.730   8.230  20.785  0.00  0.00    +0.000 NA
ATOM     38  H   UNL     1       2.526   7.658  20.515  0.00  0.00    +0.000 HD
ATOM     39  H   UNL     1       1.129   7.615  21.338  0.00  0.00    +0.000 HD
ENDBRANCH  36  37
BRANCH  36  40
ATOM     40  C   UNL     1       0.160   9.903  19.877  0.00  0.00    +0.000 C 
BRANCH  40  41
ATOM     41  C   UNL     1       0.676  10.638  21.120  0.00  0.00    +0.000 C 
BRANCH  41  42
ATOM     42  C   UNL     1      -0.463  11.235  21.951  0.00  0.00    +0.000 C 
BRANCH  42  43
ATOM     43  C   UNL     1      -0.790  10.334  23.143  0.00  0.00    +0.000 C 
BRANCH  43  44
ATOM     44  N   UNL     1       0.398   9.611  23.580  0.00  0.00    +0.000 NA
ATOM     45  H   UNL     1       0.218   8.609  23.495  0.00  0.00    +0.000 HD
ATOM     46  H   UNL     1       0.546   9.774  24.574  0.00  0.00    +0.000 HD
ENDBRANCH  43  44
ENDBRANCH  42  43
ENDBRANCH  41  42
ENDBRANCH  40  41
ENDBRANCH  36  40
ENDBRANCH  32  36
ENDBRANCH  31  34
ENDBRANCH   1  31
TORSDOF 18
ENDMDL
MODEL 2
REMARK VINA RESULT:      -6.9      1.177      1.587
REMARK  Name = 
REMARK  18 active torsions:
REMARK  status: ('A' for Active; 'I' for Inactive)
REMARK    1  A    between atoms: N_1  and  C_2
REMARK    2  A    between atoms: C_2  and  C_3
REMARK    3  A    between atoms: C_3  and  C_4
REMARK    4  A    between atoms: C_4  and  C_5
REMARK    5  A    between atoms: C_5  and  C_6
REMARK    6  A    between atoms: C_6  and  N_7
REMARK    7  A    between atoms: C_6  and  C_8
REMARK    8  A    between atoms: N_10  and  C_11
REMARK    9  A    between atoms: C_11  and  C_12
REMARK   10  A    between atoms: C_14  and  O_15
REMARK   11  A    between atoms: O_15  and  C_16
REMARK   12  A    between atoms: C_17  and  N_18
REMARK   13  A    between atoms: C_20  and  N_21
REMARK   14  A    between atoms: C_22  and  O_23
REMARK   15  A    between atoms: C_24  and  O_25
REMARK   16  A    between atoms: C_26  and  N_27
REMARK   17  A    between atoms: C_28  and  O_29
REMARK   18  A    between atoms: C_30  and  O_31
REMARK                            x       y       z     vdW  Elec       q    Type
REMARK                         _______ _______ _______ _____ _____    ______ ____
ROOT
ATOM      1  C   UNL     1       4.649   6.555  17.298  0.00  0.00    +0.000 C 
ATOM      2  O   UNL     1       3.823   5.464  16.883  0.00  0.00    +0.000 OA
ATOM      3  C   UNL     1       4.495   4.223  16.695  0.00  0.00    +0.000 C 
ATOM      4  C   UNL     1       5.586   4.433  15.597  0.00  0.00    +0.000 C 
ATOM      5  C   UNL     1       6.618   5.424  16.162  0.00  0.00    +0.000 C 
ATOM      6  C   UNL     1       5.896   6.759  16.417  0.00  0.00    +0.000 C 
ENDROOT
BRANCH   4   7
ATOM      7  N   UNL     1       6.217   3.229  15.021  0.00  0.00    +0.000 NA
ATOM      8  H   UNL     1       7.071   3.006  15.527  0.00  0.00    +0.000 HD
ATOM      9  H   UNL     1       6.504   3.450  14.063  0.00  0.00    +0.000 HD
ENDBRANCH   4   7
BRANCH   6  10
ATOM     10  O   UNL     1       6.762   7.725  17.020  0.00  0.00    +0.000 OA
ATOM     11  H   UNL     1       7.504   7.252  17.440  0.00  0.00    +0.000 HD
ENDBRANCH   6  10
BRANCH   5  12
ATOM     12  O   UNL     1       7.713   5.613  15.253  0.00  0.00    +0.000 OA
ATOM     13  H   UNL     1       8.397   4.951  15.459  0.00  0.00    +0.000 HD
ENDBRANCH   5  12
BRANCH   3  14
ATOM     14  O   UNL     1       5.065   3.737  17.917  0.00  0.00    +0.000 OA
BRANCH  14  15
ATOM     15  C   UNL     1       4.117   3.332  18.948  0.00  0.00    +0.000 C 
ATOM     16  C   UNL     1       3.354   2.107  18.353  0.00  0.00    +0.000 C 
ATOM     17  C   UNL     1       2.039   1.728  19.051  0.00  0.00    +0.000 C 
ATOM     18  C   UNL     1       1.159   2.949  19.324  0.00  0.00    +0.000 C 
ATOM     19  C   UNL     1       1.956   3.955  20.181  0.00  0.00    +0.000 C 
ATOM     20  C   UNL     1       3.165   4.472  19.380  0.00  0.00    +0.000 C 
BRANCH  18  21
ATOM     21  N   UNL     1      -0.100   2.550  19.961  0.00  0.00    +0.000 NA
ATOM     22  H   UNL     1       0.015   2.478  20.971  0.00  0.00    +0.000 HD
ATOM     23  H   UNL     1      -0.393   1.630  19.634  0.00  0.00    +0.000 HD
ENDBRANCH  18  21
BRANCH  16  24
ATOM     24  N   UNL     1       4.207   0.901  18.324  0.00  0.00    +0.000 NA
ATOM     25  H   UNL     1       5.146   1.133  18.007  0.00  0.00    +0.000 HD
ATOM     26  H   UNL     1       3.827   0.249  17.633  0.00  0.00    +0.000 HD
ENDBRANCH  16  24
BRANCH  20  27
ATOM     27  O   UNL     1       3.869   5.446  20.171  0.00  0.00    +0.000 OA
ATOM     28  H   UNL     1       3.661   6.339  19.838  0.00  0.00    +0.000 HD
ENDBRANCH  20  27
BRANCH  19  29
ATOM     29  O   UNL     1       1.143   5.060  20.589  0.00  0.00    +0.000 OA
ATOM     30  H   UNL     1       1.695   5.861  20.574  0.00  0.00    +0.000 HD
ENDBRANCH  19  29
ENDBRANCH  14  15
ENDBRANCH   3  14
BRANCH   1  31
ATOM     31  C   UNL     1       3.771   7.825  17.321  0.00  0.00    +0.000 C 
BRANCH  31  34
ATOM     32  C   UNL     1       1.915   8.877  18.599  0.00  0.00    +0.000 C 
ATOM     33  O   UNL     1       1.741   9.769  17.767  0.00  0.00    +0.000 OA
ATOM     34  N   UNL     1       2.833   7.850  18.427  0.00  0.00    +0.000 N 
ATOM     35  H   UNL     1       2.948   7.179  19.174  0.00  0.00    +0.000 HD
BRANCH  32  36
ATOM     36  C   UNL     1       1.074   8.782  19.890  0.00  0.00    +0.000 C 
BRANCH  36  37
ATOM     37  N   UNL     1       1.791   7.927  20.863  0.00  0.00    +0.000 NA
ATOM     38  H   UNL     1       2.593   7.492  20.413  0.00  0.00    +0.000 HD
ATOM     39  H   UNL     1       1.169   7.156  21.115  0.00  0.00    +0.000 HD
ENDBRANCH  36  37
BRANCH  36  40
ATOM     40  C   UNL     1       0.769  10.147  20.523  0.00  0.00    +0.000 C 
BRANCH  40  41
ATOM     41  C   UNL     1      -0.671  10.599  20.251  0.00  0.00    +0.000 C 
BRANCH  41  42
ATOM     42  C   UNL     1      -0.727  11.981  19.592  0.00  0.00    +0.000 C 
BRANCH  42  43
ATOM     43  C   UNL     1      -1.526  11.925  18.290  0.00  0.00    +0.000 C 
BRANCH  43  44
ATOM     44  N   UNL     1      -1.098  10.795  17.474  0.00  0.00    +0.000 NA
ATOM     45  H   UNL     1      -1.399   9.932  17.931  0.00  0.00    +0.000 HD
ATOM     46  H   UNL     1      -0.081  10.753  17.462  0.00  0.00    +0.000 HD
ENDBRANCH  43  44
ENDBRANCH  42  43
ENDBRANCH  41  42
ENDBRANCH  40  41
ENDBRANCH  36  40
ENDBRANCH  32  36
ENDBRANCH  31  34
ENDBRANCH   1  31
TORSDOF 18
ENDMDL
MODEL 3
REMARK VINA RESULT:      -6.8      2.254      7.779
REMARK  Name = 
REMARK  18 active torsions:
REMARK  status: ('A' for Active; 'I' for Inactive)
REMARK    1  A    between atoms: N_1  and  C_2
REMARK    2  A    between atoms: C_2  and  C_3
REMARK    3  A    between atoms: C_3  and  C_4
REMARK    4  A    between atoms: C_4  and  C_5
REMARK    5  A    between atoms: C_5  and  C_6
REMARK    6  A    between atoms: C_6  and  N_7
REMARK    7  A    between atoms: C_6  and  C_8
REMARK    8  A    between atoms: N_10  and  C_11
REMARK    9  A    between atoms: C_11  and  C_12
REMARK   10  A    between atoms: C_14  and  O_15
REMARK   11  A    between atoms: O_15  and  C_16
REMARK   12  A    between atoms: C_17  and  N_18
REMARK   13  A    between atoms: C_20  and  N_21
REMARK   14  A    between atoms: C_22  and  O_23
REMARK   15  A    between atoms: C_24  and  O_25
REMARK   16  A    between atoms: C_26  and  N_27
REMARK   17  A    between atoms: C_28  and  O_29
REMARK   18  A    between atoms: C_30  and  O_31
REMARK                            x       y       z     vdW  Elec       q    Type
REMARK                         _______ _______ _______ _____ _____    ______ ____
ROOT
ATOM      1  C   UNL     1       4.821   4.457  18.665  0.00  0.00    +0.000 C 
ATOM      2  O   UNL     1       4.070   5.329  17.816  0.00  0.00    +0.000 OA
ATOM      3  C   UNL     1       2.668   5.362  18.059  0.00  0.00    +0.000 C 
ATOM      4  C   UNL     1       2.114   3.916  17.856  0.00  0.00    +0.000 C 
ATOM      5  C   UNL     1       2.740   3.031  18.947  0.00  0.00    +0.000 C 
ATOM      6  C   UNL     1       4.263   3.023  18.730  0.00  0.00    +0.000 C 
ENDROOT
BRANCH   4   7
ATOM      7  N   UNL     1       0.650   3.750  17.766  0.00  0.00    +0.000 NA
ATOM      8  H   UNL     1       0.413   3.171  16.964  0.00  0.00    +0.000 HD
ATOM      9  H   UNL     1       0.239   4.671  17.582  0.00  0.00    +0.000 HD
ENDBRANCH   4   7
BRANCH   6  10
ATOM     10  O   UNL     1       4.943   2.285  19.750  0.00  0.00    +0.000 OA
ATOM     11  H   UNL     1       5.456   2.913  20.292  0.00  0.00    +0.000 HD
ENDBRANCH   6  10
BRANCH   5  12
ATOM     12  O   UNL     1       2.221   1.693  18.897  0.00  0.00    +0.000 OA
ATOM     13  H   UNL     1       1.426   1.696  18.334  0.00  0.00    +0.000 HD
ENDBRANCH   5  12
BRANCH   3  14
ATOM     14  O   UNL     1       2.366   5.863  19.367  0.00  0.00    +0.000 OA
BRANCH  14  15
ATOM     15  C   UNL     1       2.425   7.311  19.528  0.00  0.00    +0.000 C 
ATOM     16  C   UNL     1       1.240   7.671  20.478  0.00  0.00    +0.000 C 
ATOM     17  C   UNL     1       0.821   9.150  20.502  0.00  0.00    +0.000 C 
ATOM     18  C   UNL     1       0.705   9.739  19.096  0.00  0.00    +0.000 C 
ATOM     19  C   UNL     1       2.059   9.572  18.373  0.00  0.00    +0.000 C 
ATOM     20  C   UNL     1       2.362   8.075  18.184  0.00  0.00    +0.000 C 
BRANCH  18  21
ATOM     21  N   UNL     1       0.275  11.139  19.153  0.00  0.00    +0.000 NA
ATOM     22  H   UNL     1      -0.355  11.291  19.941  0.00  0.00    +0.000 HD
ATOM     23  H   UNL     1      -0.244  11.391  18.312  0.00  0.00    +0.000 HD
ENDBRANCH  18  21
BRANCH  16  24
ATOM     24  N   UNL     1       1.520   7.265  21.871  0.00  0.00    +0.000 NA
ATOM     25  H   UNL     1       1.676   6.260  21.926  0.00  0.00    +0.000 HD
ATOM     26  H   UNL     1       0.691   7.456  22.440  0.00  0.00    +0.000 HD
ENDBRANCH  16  24
BRANCH  20  27
ATOM     27  O   UNL     1       3.600   7.934  17.464  0.00  0.00    +0.000 OA
ATOM     28  H   UNL     1       4.083   8.780  17.490  0.00  0.00    +0.000 HD
ENDBRANCH  20  27
BRANCH  19  29
ATOM     29  O   UNL     1       2.061  10.227  17.101  0.00  0.00    +0.000 OA
ATOM     30  H   UNL     1       1.361   9.827  16.556  0.00  0.00    +0.000 HD
ENDBRANCH  19  29
ENDBRANCH  14  15
ENDBRANCH   3  14
BRANCH   1  31
ATOM     31  C   UNL     1       6.283   4.464  18.167  0.00  0.00    +0.000 C 
BRANCH  31  34
ATOM     32  C   UNL     1       6.915   5.410  15.957  0.00  0.00    +0.000 C 
ATOM     33  O   UNL     1       7.434   6.415  16.445  0.00  0.00    +0.000 OA
ATOM     34  N   UNL     1       6.395   4.377  16.724  0.00  0.00    +0.000 N 
ATOM     35  H   UNL     1       5.948   3.606  16.250  0.00  0.00    +0.000 HD
BRANCH  32  36
ATOM     36  C   UNL     1       6.856   5.175  14.432  0.00  0.00    +0.000 C 
BRANCH  36  37
ATOM     37  N   UNL     1       8.183   5.480  13.852  0.00  0.00    +0.000 NA
ATOM     38  H   UNL     1       8.808   5.818  14.580  0.00  0.00    +0.000 HD
ATOM     39  H   UNL     1       8.067   6.265  13.208  0.00  0.00    +0.000 HD
ENDBRANCH  36  37
BRANCH  36  40
ATOM     40  C   UNL     1       6.437   3.748  14.050  0.00  0.00    +0.000 C 
BRANCH  40  41
ATOM     41  C   UNL     1       5.108   3.724  13.285  0.00  0.00    +0.000 C 
BRANCH  41  42
ATOM     42  C   UNL     1       5.285   3.260  11.836  0.00  0.00    +0.000 C 
BRANCH  42  43
ATOM     43  C   UNL     1       6.529   2.383  11.698  0.00  0.00    +0.000 C 
BRANCH  43  44
ATOM     44  N   UNL     1       6.155   1.004  11.403  0.00  0.00    +0.000 NA
ATOM     45  H   UNL     1       5.508   1.005  10.612  0.00  0.00    +0.000 HD
ATOM     46  H   UNL     1       5.623   0.624  12.184  0.00  0.00    +0.000 HD
ENDBRANCH  43  44
ENDBRANCH  42  43
ENDBRANCH  41  42
ENDBRANCH  40  41
ENDBRANCH  36  40
ENDBRANCH  32  36
ENDBRANCH  31  34
ENDBRANCH   1  31
TORSDOF 18
ENDMDL
MODEL 4
REMARK VINA RESULT:      -6.7      3.220      7.342
REMARK  Name = 
REMARK  18 active torsions:
REMARK  status: ('A' for Active; 'I' for Inactive)
REMARK    1  A    between atoms: N_1  and  C_2
REMARK    2  A    between atoms: C_2  and  C_3
REMARK    3  A    between atoms: C_3  and  C_4
REMARK    4  A    between atoms: C_4  and  C_5
REMARK    5  A    between atoms: C_5  and  C_6
REMARK    6  A    between atoms: C_6  and  N_7
REMARK    7  A    between atoms: C_6  and  C_8
REMARK    8  A    between atoms: N_10  and  C_11
REMARK    9  A    between atoms: C_11  and  C_12
REMARK   10  A    between atoms: C_14  and  O_15
REMARK   11  A    between atoms: O_15  and  C_16
REMARK   12  A    between atoms: C_17  and  N_18
REMARK   13  A    between atoms: C_20  and  N_21
REMARK   14  A    between atoms: C_22  and  O_23
REMARK   15  A    between atoms: C_24  and  O_25
REMARK   16  A    between atoms: C_26  and  N_27
REMARK   17  A    between atoms: C_28  and  O_29
REMARK   18  A    between atoms: C_30  and  O_31
REMARK                            x       y       z     vdW  Elec       q    Type
REMARK                         _______ _______ _______ _____ _____    ______ ____
ROOT
ATOM      1  C   UNL     1       6.269   5.665  16.176  0.00  0.00    +0.000 C 
ATOM      2  O   UNL     1       5.468   4.482  16.213  0.00  0.00    +0.000 OA
ATOM      3  C   UNL     1       4.765   4.254  17.430  0.00  0.00    +0.000 C 
ATOM      4  C   UNL     1       5.821   4.144  18.576  0.00  0.00    +0.000 C 
ATOM      5  C   UNL     1       6.505   5.517  18.699  0.00  0.00    +0.000 C 
ATOM      6  C   UNL     1       7.230   5.801  17.372  0.00  0.00    +0.000 C 
ENDROOT
BRANCH   4   7
ATOM      7  N   UNL     1       5.363   3.623  19.879  0.00  0.00    +0.000 NA
ATOM      8  H   UNL     1       5.272   2.610  19.837  0.00  0.00    +0.000 HD
ATOM      9  H   UNL     1       4.420   3.985  20.050  0.00  0.00    +0.000 HD
ENDBRANCH   4   7
BRANCH   6  10
ATOM     10  O   UNL     1       7.834   7.098  17.364  0.00  0.00    +0.000 OA
ATOM     11  H   UNL     1       8.739   7.011  17.011  0.00  0.00    +0.000 HD
ENDBRANCH   6  10
BRANCH   5  12
ATOM     12  O   UNL     1       7.435   5.540  19.793  0.00  0.00    +0.000 OA
ATOM     13  H   UNL     1       7.831   6.429  19.836  0.00  0.00    +0.000 HD
ENDBRANCH   5  12
BRANCH   3  14
ATOM     14  O   UNL     1       3.809   5.288  17.692  0.00  0.00    +0.000 OA
BRANCH  14  15
ATOM     15  C   UNL     1       2.576   4.868  18.348  0.00  0.00    +0.000 C 
ATOM     16  C   UNL     1       2.714   5.339  19.830  0.00  0.00    +0.000 C 
ATOM     17  C   UNL     1       1.750   4.690  20.836  0.00  0.00    +0.000 C 
ATOM     18  C   UNL     1       1.669   3.173  20.659  0.00  0.00    +0.000 C 
ATOM     19  C   UNL     1       1.231   2.863  19.213  0.00  0.00    +0.000 C 
ATOM     20  C   UNL     1       2.311   3.349  18.230  0.00  0.00    +0.000 C 
BRANCH  18  21
ATOM     21  N   UNL     1       0.767   2.582  21.653  0.00  0.00    +0.000 NA
ATOM     22  H   UNL     1       1.164   1.724  22.034  0.00  0.00    +0.000 HD
ATOM     23  H   UNL     1      -0.122   2.327  21.224  0.00  0.00    +0.000 HD
ENDBRANCH  18  21
BRANCH  16  24
ATOM     24  N   UNL     1       2.562   6.804  19.949  0.00  0.00    +0.000 NA
ATOM     25  H   UNL     1       1.977   7.039  20.749  0.00  0.00    +0.000 HD
ATOM     26  H   UNL     1       2.066   7.149  19.123  0.00  0.00    +0.000 HD
ENDBRANCH  16  24
BRANCH  20  27
ATOM     27  O   UNL     1       1.914   3.008  16.889  0.00  0.00    +0.000 OA
ATOM     28  H   UNL     1       0.978   2.736  16.892  0.00  0.00    +0.000 HD
ENDBRANCH  20  27
BRANCH  19  29
ATOM     29  O   UNL     1       1.001   1.464  19.019  0.00  0.00    +0.000 OA
ATOM     30  H   UNL     1       0.314   1.364  18.337  0.00  0.00    +0.000 HD
ENDBRANCH  19  29
ENDBRANCH  14  15
ENDBRANCH   3  14
BRANCH   1  31
ATOM     31  C   UNL     1       7.042   5.667  14.839  0.00  0.00    +0.000 C 
BRANCH  31  34
ATOM     32  C   UNL     1       7.019   4.620  12.584  0.00  0.00    +0.000 C 
ATOM     33  O   UNL     1       8.037   5.207  12.213  0.00  0.00    +0.000 OA
ATOM     34  N   UNL     1       6.506   4.731  13.869  0.00  0.00    +0.000 N 
ATOM     35  H   UNL     1       5.643   4.253  14.084  0.00  0.00    +0.000 HD
BRANCH  32  36
ATOM     36  C   UNL     1       6.251   3.646  11.665  0.00  0.00    +0.000 C 
BRANCH  36  37
ATOM     37  N   UNL     1       6.777   2.278  11.877  0.00  0.00    +0.000 NA
ATOM     38  H   UNL     1       7.379   2.264  12.696  0.00  0.00    +0.000 HD
ATOM     39  H   UNL     1       7.387   2.055  11.088  0.00  0.00    +0.000 HD
ENDBRANCH  36  37
BRANCH  36  40
ATOM     40  C   UNL     1       4.733   3.660  11.891  0.00  0.00    +0.000 C 
BRANCH  40  41
ATOM     41  C   UNL     1       4.006   2.662  10.983  0.00  0.00    +0.000 C 
BRANCH  41  42
ATOM     42  C   UNL     1       2.760   3.273  10.334  0.00  0.00    +0.000 C 
BRANCH  42  43
ATOM     43  C   UNL     1       3.147   4.420   9.400  0.00  0.00    +0.000 C 
BRANCH  43  44
ATOM     44  N   UNL     1       1.956   5.100   8.902  0.00  0.00    +0.000 NA
ATOM     45  H   UNL     1       1.691   4.679   8.010  0.00  0.00    +0.000 HD
ATOM     46  H   UNL     1       2.186   6.068   8.685  0.00  0.00    +0.000 HD
ENDBRANCH  43  44
ENDBRANCH  42  43
ENDBRANCH  41  42
ENDBRANCH  40  41
ENDBRANCH  36  40
ENDBRANCH  32  36
ENDBRANCH  31  34
ENDBRANCH   1  31
TORSDOF 18
ENDMDL
MODEL 5
REMARK VINA RESULT:      -6.6      2.462      8.108
REMARK  Name = 
REMARK  18 active torsions:
REMARK  status: ('A' for Active; 'I' for Inactive)
REMARK    1  A    between atoms: N_1  and  C_2
REMARK    2  A    between atoms: C_2  and  C_3
REMARK    3  A    between atoms: C_3  and  C_4
REMARK    4  A    between atoms: C_4  and  C_5
REMARK    5  A    between atoms: C_5  and  C_6
REMARK    6  A    between atoms: C_6  and  N_7
REMARK    7  A    between atoms: C_6  and  C_8
REMARK    8  A    between atoms: N_10  and  C_11
REMARK    9  A    between atoms: C_11  and  C_12
REMARK   10  A    between atoms: C_14  and  O_15
REMARK   11  A    between atoms: O_15  and  C_16
REMARK   12  A    between atoms: C_17  and  N_18
REMARK   13  A    between atoms: C_20  and  N_21
REMARK   14  A    between atoms: C_22  and  O_23
REMARK   15  A    between atoms: C_24  and  O_25
REMARK   16  A    between atoms: C_26  and  N_27
REMARK   17  A    between atoms: C_28  and  O_29
REMARK   18  A    between atoms: C_30  and  O_31
REMARK                            x       y       z     vdW  Elec       q    Type
REMARK                         _______ _______ _______ _____ _____    ______ ____
ROOT
ATOM      1  C   UNL     1       5.001   6.183  18.387  0.00  0.00    +0.000 C 
ATOM      2  O   UNL     1       3.876   6.719  17.686  0.00  0.00    +0.000 OA
ATOM      3  C   UNL     1       2.601   6.366  18.212  0.00  0.00    +0.000 C 
ATOM      4  C   UNL     1       2.483   4.809  18.172  0.00  0.00    +0.000 C 
ATOM      5  C   UNL     1       3.540   4.247  19.137  0.00  0.00    +0.000 C 
ATOM      6  C   UNL     1       4.925   4.661  18.610  0.00  0.00    +0.000 C 
ENDROOT
BRANCH   4   7
ATOM      7  N   UNL     1       1.148   4.219  18.391  0.00  0.00    +0.000 NA
ATOM      8  H   UNL     1       1.132   3.706  19.270  0.00  0.00    +0.000 HD
ATOM      9  H   UNL     1       0.984   3.526  17.655  0.00  0.00    +0.000 HD
ENDBRANCH   4   7
BRANCH   6  10
ATOM     10  O   UNL     1       5.975   4.247  19.489  0.00  0.00    +0.000 OA
ATOM     11  H   UNL     1       6.413   3.468  19.098  0.00  0.00    +0.000 HD
ENDBRANCH   6  10
BRANCH   5  12
ATOM     12  O   UNL     1       3.450   2.817  19.236  0.00  0.00    +0.000 OA
ATOM     13  H   UNL     1       3.139   2.472  18.380  0.00  0.00    +0.000 HD
ENDBRANCH   5  12
BRANCH   3  14
ATOM     14  O   UNL     1       2.414   6.875  19.538  0.00  0.00    +0.000 OA
BRANCH  14  15
ATOM     15  C   UNL     1       2.007   8.271  19.637  0.00  0.00    +0.000 C 
ATOM     16  C   UNL     1       1.161   8.365  20.945  0.00  0.00    +0.000 C 
ATOM     17  C   UNL     1       0.281   9.617  21.090  0.00  0.00    +0.000 C 
ATOM     18  C   UNL     1      -0.497   9.925  19.810  0.00  0.00    +0.000 C 
ATOM     19  C   UNL     1       0.504  10.099  18.649  0.00  0.00    +0.000 C 
ATOM     20  C   UNL     1       1.235   8.769  18.393  0.00  0.00    +0.000 C 
BRANCH  18  21
ATOM     21  N   UNL     1      -1.349  11.105  19.991  0.00  0.00    +0.000 NA
ATOM     22  H   UNL     1      -0.899  11.936  19.613  0.00  0.00    +0.000 HD
ATOM     23  H   UNL     1      -1.509  11.284  20.982  0.00  0.00    +0.000 HD
ENDBRANCH  18  21
BRANCH  16  24
ATOM     24  N   UNL     1       2.013   8.279  22.149  0.00  0.00    +0.000 NA
ATOM     25  H   UNL     1       2.266   9.209  22.477  0.00  0.00    +0.000 HD
ATOM     26  H   UNL     1       2.891   7.818  21.895  0.00  0.00    +0.000 HD
ENDBRANCH  16  24
BRANCH  20  27
ATOM     27  O   UNL     1       2.127   8.931  17.276  0.00  0.00    +0.000 OA
ATOM     28  H   UNL     1       2.121   8.116  16.740  0.00  0.00    +0.000 HD
ENDBRANCH  20  27
BRANCH  19  29
ATOM     29  O   UNL     1      -0.148  10.527  17.449  0.00  0.00    +0.000 OA
ATOM     30  H   UNL     1      -0.118  11.499  17.420  0.00  0.00    +0.000 HD
ENDBRANCH  19  29
ENDBRANCH  14  15
ENDBRANCH   3  14
BRANCH   1  31
ATOM     31  C   UNL     1       6.271   6.567  17.599  0.00  0.00    +0.000 C 
BRANCH  31  34
ATOM     32  C   UNL     1       6.979   5.256  15.608  0.00  0.00    +0.000 C 
ATOM     33  O   UNL     1       7.708   4.508  16.260  0.00  0.00    +0.000 OA
ATOM     34  N   UNL     1       6.189   6.239  16.188  0.00  0.00    +0.000 N 
ATOM     35  H   UNL     1       5.650   6.841  15.582  0.00  0.00    +0.000 HD
BRANCH  32  36
ATOM     36  C   UNL     1       6.824   5.124  14.077  0.00  0.00    +0.000 C 
BRANCH  36  37
ATOM     37  N   UNL     1       8.105   5.496  13.435  0.00  0.00    +0.000 NA
ATOM     38  H   UNL     1       7.925   5.935  12.536  0.00  0.00    +0.000 HD
ATOM     39  H   UNL     1       8.606   4.631  13.219  0.00  0.00    +0.000 HD
ENDBRANCH  36  37
BRANCH  36  40
ATOM     40  C   UNL     1       6.404   3.718  13.625  0.00  0.00    +0.000 C 
BRANCH  40  41
ATOM     41  C   UNL     1       6.346   3.599  12.097  0.00  0.00    +0.000 C 
BRANCH  41  42
ATOM     42  C   UNL     1       6.918   2.268  11.600  0.00  0.00    +0.000 C 
BRANCH  42  43
ATOM     43  C   UNL     1       5.792   1.295  11.248  0.00  0.00    +0.000 C 
BRANCH  43  44
ATOM     44  N   UNL     1       6.245  -0.085  11.386  0.00  0.00    +0.000 NA
ATOM     45  H   UNL     1       6.011  -0.591  10.530  0.00  0.00    +0.000 HD
ATOM     46  H   UNL     1       5.713  -0.543  12.124  0.00  0.00    +0.000 HD
ENDBRANCH  43  44
ENDBRANCH  42  43
ENDBRANCH  41  42
ENDBRANCH  40  41
ENDBRANCH  36  40
ENDBRANCH  32  36
ENDBRANCH  31  34
ENDBRANCH   1  31
TORSDOF 18
ENDMDL
MODEL 6
REMARK VINA RESULT:      -6.5      2.431      8.280
REMARK  Name = 
REMARK  18 active torsions:
REMARK  status: ('A' for Active; 'I' for Inactive)
REMARK    1  A    between atoms: N_1  and  C_2
REMARK    2  A    between atoms: C_2  and  C_3
REMARK    3  A    between atoms: C_3  and  C_4
REMARK    4  A    between atoms: C_4  and  C_5
REMARK    5  A    between atoms: C_5  and  C_6
REMARK    6  A    between atoms: C_6  and  N_7
REMARK    7  A    between atoms: C_6  and  C_8
REMARK    8  A    between atoms: N_10  and  C_11
REMARK    9  A    between atoms: C_11  and  C_12
REMARK   10  A    between atoms: C_14  and  O_15
REMARK   11  A    between atoms: O_15  and  C_16
REMARK   12  A    between atoms: C_17  and  N_18
REMARK   13  A    between atoms: C_20  and  N_21
REMARK   14  A    between atoms: C_22  and  O_23
REMARK   15  A    between atoms: C_24  and  O_25
REMARK   16  A    between atoms: C_26  and  N_27
REMARK   17  A    between atoms: C_28  and  O_29
REMARK   18  A    between atoms: C_30  and  O_31
REMARK                            x       y       z     vdW  Elec       q    Type
REMARK                         _______ _______ _______ _____ _____    ______ ____
ROOT
ATOM      1  C   UNL     1       4.290   6.724  17.937  0.00  0.00    +0.000 C 
ATOM      2  O   UNL     1       2.919   7.060  17.706  0.00  0.00    +0.000 OA
ATOM      3  C   UNL     1       2.047   6.868  18.815  0.00  0.00    +0.000 C 
ATOM      4  C   UNL     1       2.101   5.357  19.208  0.00  0.00    +0.000 C 
ATOM      5  C   UNL     1       3.529   5.066  19.702  0.00  0.00    +0.000 C 
ATOM      6  C   UNL     1       4.492   5.317  18.529  0.00  0.00    +0.000 C 
ENDROOT
BRANCH   4   7
ATOM      7  N   UNL     1       1.070   4.855  20.136  0.00  0.00    +0.000 NA
ATOM      8  H   UNL     1       1.137   5.339  21.029  0.00  0.00    +0.000 HD
ATOM      9  H   UNL     1       1.273   3.870  20.332  0.00  0.00    +0.000 HD
ENDBRANCH   4   7
BRANCH   6  10
ATOM     10  O   UNL     1       5.859   5.146  18.916  0.00  0.00    +0.000 OA
ATOM     11  H   UNL     1       6.355   4.809  18.147  0.00  0.00    +0.000 HD
ENDBRANCH   6  10
BRANCH   5  12
ATOM     12  O   UNL     1       3.654   3.715  20.172  0.00  0.00    +0.000 OA
ATOM     13  H   UNL     1       3.923   3.156  19.422  0.00  0.00    +0.000 HD
ENDBRANCH   5  12
BRANCH   3  14
ATOM     14  O   UNL     1       2.395   7.713  19.918  0.00  0.00    +0.000 OA
BRANCH  14  15
ATOM     15  C   UNL     1       1.805   9.046  19.915  0.00  0.00    +0.000 C 
ATOM     16  C   UNL     1       0.926   9.114  21.203  0.00  0.00    +0.000 C 
ATOM     17  C   UNL     1      -0.114  10.245  21.249  0.00  0.00    +0.000 C 
ATOM     18  C   UNL     1      -0.898  10.360  19.942  0.00  0.00    +0.000 C 
ATOM     19  C   UNL     1       0.096  10.587  18.784  0.00  0.00    +0.000 C 
ATOM     20  C   UNL     1       1.001   9.352  18.630  0.00  0.00    +0.000 C 
BRANCH  18  21
ATOM     21  N   UNL     1      -1.902  11.425  20.030  0.00  0.00    +0.000 NA
ATOM     22  H   UNL     1      -2.844  11.035  20.007  0.00  0.00    +0.000 HD
ATOM     23  H   UNL     1      -1.828  12.057  19.233  0.00  0.00    +0.000 HD
ENDBRANCH  18  21
BRANCH  16  24
ATOM     24  N   UNL     1       1.757   9.223  22.420  0.00  0.00    +0.000 NA
ATOM     25  H   UNL     1       2.654   8.762  22.283  0.00  0.00    +0.000 HD
ATOM     26  H   UNL     1       1.291   8.719  23.179  0.00  0.00    +0.000 HD
ENDBRANCH  16  24
BRANCH  20  27
ATOM     27  O   UNL     1       1.888   9.556  17.515  0.00  0.00    +0.000 OA
ATOM     28  H   UNL     1       1.970   8.723  17.015  0.00  0.00    +0.000 HD
ENDBRANCH  20  27
BRANCH  19  29
ATOM     29  O   UNL     1      -0.582  10.842  17.549  0.00  0.00    +0.000 OA
ATOM     30  H   UNL     1       0.083  11.112  16.891  0.00  0.00    +0.000 HD
ENDBRANCH  19  29
ENDBRANCH  14  15
ENDBRANCH   3  14
BRANCH   1  31
ATOM     31  C   UNL     1       5.041   6.877  16.596  0.00  0.00    +0.000 C 
BRANCH  31  34
ATOM     32  C   UNL     1       6.457   5.235  15.379  0.00  0.00    +0.000 C 
ATOM     33  O   UNL     1       7.498   5.864  15.577  0.00  0.00    +0.000 OA
ATOM     34  N   UNL     1       5.229   5.618  15.900  0.00  0.00    +0.000 N 
ATOM     35  H   UNL     1       4.414   5.073  15.658  0.00  0.00    +0.000 HD
BRANCH  32  36
ATOM     36  C   UNL     1       6.436   3.912  14.583  0.00  0.00    +0.000 C 
BRANCH  36  37
ATOM     37  N   UNL     1       5.916   2.838  15.459  0.00  0.00    +0.000 NA
ATOM     38  H   UNL     1       6.489   2.003  15.357  0.00  0.00    +0.000 HD
ATOM     39  H   UNL     1       4.991   2.576  15.112  0.00  0.00    +0.000 HD
ENDBRANCH  36  37
BRANCH  36  40
ATOM     40  C   UNL     1       5.598   3.986  13.298  0.00  0.00    +0.000 C 
BRANCH  40  41
ATOM     41  C   UNL     1       6.329   3.372  12.098  0.00  0.00    +0.000 C 
BRANCH  41  42
ATOM     42  C   UNL     1       5.628   2.113  11.578  0.00  0.00    +0.000 C 
BRANCH  42  43
ATOM     43  C   UNL     1       6.650   1.105  11.053  0.00  0.00    +0.000 C 
BRANCH  43  44
ATOM     44  N   UNL     1       6.179  -0.260  11.264  0.00  0.00    +0.000 NA
ATOM     45  H   UNL     1       5.158  -0.255  11.264  0.00  0.00    +0.000 HD
ATOM     46  H   UNL     1       6.447  -0.568  12.197  0.00  0.00    +0.000 HD
ENDBRANCH  43  44
ENDBRANCH  42  43
ENDBRANCH  41  42
ENDBRANCH  40  41
ENDBRANCH  36  40
ENDBRANCH  32  36
ENDBRANCH  31  34
ENDBRANCH   1  31
TORSDOF 18
ENDMDL
MODEL 7
REMARK VINA RESULT:      -6.5      2.676      8.335
REMARK  Name = 
REMARK  18 active torsions:
REMARK  status: ('A' for Active; 'I' for Inactive)
REMARK    1  A    between atoms: N_1  and  C_2
REMARK    2  A    between atoms: C_2  and  C_3
REMARK    3  A    between atoms: C_3  and  C_4
REMARK    4  A    between atoms: C_4  and  C_5
REMARK    5  A    between atoms: C_5  and  C_6
REMARK    6  A    between atoms: C_6  and  N_7
REMARK    7  A    between atoms: C_6  and  C_8
REMARK    8  A    between atoms: N_10  and  C_11
REMARK    9  A    between atoms: C_11  and  C_12
REMARK   10  A    between atoms: C_14  and  O_15
REMARK   11  A    between atoms: O_15  and  C_16
REMARK   12  A    between atoms: C_17  and  N_18
REMARK   13  A    between atoms: C_20  and  N_21
REMARK   14  A    between atoms: C_22  and  O_23
REMARK   15  A    between atoms: C_24  and  O_25
REMARK   16  A    between atoms: C_26  and  N_27
REMARK   17  A    between atoms: C_28  and  O_29
REMARK   18  A    between atoms: C_30  and  O_31
REMARK                            x       y       z     vdW  Elec       q    Type
REMARK                         _______ _______ _______ _____ _____    ______ ____
ROOT
ATOM      1  C   UNL     1       4.243   6.998  17.665  0.00  0.00    +0.000 C 
ATOM      2  O   UNL     1       2.837   7.134  17.445  0.00  0.00    +0.000 OA
ATOM      3  C   UNL     1       2.015   6.939  18.591  0.00  0.00    +0.000 C 
ATOM      4  C   UNL     1       2.272   5.492  19.120  0.00  0.00    +0.000 C 
ATOM      5  C   UNL     1       3.733   5.433  19.597  0.00  0.00    +0.000 C 
ATOM      6  C   UNL     1       4.636   5.691  18.378  0.00  0.00    +0.000 C 
ENDROOT
BRANCH   4   7
ATOM      7  N   UNL     1       1.329   4.953  20.121  0.00  0.00    +0.000 NA
ATOM      8  H   UNL     1       0.726   4.255  19.692  0.00  0.00    +0.000 HD
ATOM      9  H   UNL     1       0.713   5.716  20.417  0.00  0.00    +0.000 HD
ENDBRANCH   4   7
BRANCH   6  10
ATOM     10  O   UNL     1       6.019   5.733  18.740  0.00  0.00    +0.000 OA
ATOM     11  H   UNL     1       6.525   5.231  18.075  0.00  0.00    +0.000 HD
ENDBRANCH   6  10
BRANCH   5  12
ATOM     12  O   UNL     1       4.039   4.160  20.186  0.00  0.00    +0.000 OA
ATOM     13  H   UNL     1       4.203   3.524  19.467  0.00  0.00    +0.000 HD
ENDBRANCH   5  12
BRANCH   3  14
ATOM     14  O   UNL     1       2.270   7.922  19.601  0.00  0.00    +0.000 OA
BRANCH  14  15
ATOM     15  C   UNL     1       1.246   8.946  19.771  0.00  0.00    +0.000 C 
ATOM     16  C   UNL     1       1.760  10.185  18.973  0.00  0.00    +0.000 C 
ATOM     17  C   UNL     1       1.084  11.526  19.301  0.00  0.00    +0.000 C 
ATOM     18  C   UNL     1       0.955  11.753  20.808  0.00  0.00    +0.000 C 
ATOM     19  C   UNL     1       0.160  10.581  21.422  0.00  0.00    +0.000 C 
ATOM     20  C   UNL     1       0.954   9.273  21.254  0.00  0.00    +0.000 C 
BRANCH  18  21
ATOM     21  N   UNL     1       0.336  13.052  21.086  0.00  0.00    +0.000 NA
ATOM     22  H   UNL     1       0.343  13.247  22.086  0.00  0.00    +0.000 HD
ATOM     23  H   UNL     1      -0.641  13.055  20.795  0.00  0.00    +0.000 HD
ENDBRANCH  18  21
BRANCH  16  24
ATOM     24  N   UNL     1       1.648   9.974  17.515  0.00  0.00    +0.000 NA
ATOM     25  H   UNL     1       2.537  10.163  17.057  0.00  0.00    +0.000 HD
ATOM     26  H   UNL     1       0.983  10.655  17.137  0.00  0.00    +0.000 HD
ENDBRANCH  16  24
BRANCH  20  27
ATOM     27  O   UNL     1       0.226   8.199  21.876  0.00  0.00    +0.000 OA
ATOM     28  H   UNL     1      -0.670   8.509  22.104  0.00  0.00    +0.000 HD
ENDBRANCH  20  27
BRANCH  19  29
ATOM     29  O   UNL     1      -0.116  10.801  22.808  0.00  0.00    +0.000 OA
ATOM     30  H   UNL     1      -0.960  10.364  23.020  0.00  0.00    +0.000 HD
ENDBRANCH  19  29
ENDBRANCH  14  15
ENDBRANCH   3  14
BRANCH   1  31
ATOM     31  C   UNL     1       4.946   7.117  16.295  0.00  0.00    +0.000 C 
BRANCH  31  34
ATOM     32  C   UNL     1       6.411   5.317  15.404  0.00  0.00    +0.000 C 
ATOM     33  O   UNL     1       7.443   5.833  15.836  0.00  0.00    +0.000 OA
ATOM     34  N   UNL     1       5.147   5.836  15.644  0.00  0.00    +0.000 N 
ATOM     35  H   UNL     1       4.352   5.379  15.220  0.00  0.00    +0.000 HD
BRANCH  32  36
ATOM     36  C   UNL     1       6.425   3.994  14.607  0.00  0.00    +0.000 C 
BRANCH  36  37
ATOM     37  N   UNL     1       5.980   2.898  15.498  0.00  0.00    +0.000 NA
ATOM     38  H   UNL     1       5.502   2.185  14.953  0.00  0.00    +0.000 HD
ATOM     39  H   UNL     1       5.271   3.279  16.128  0.00  0.00    +0.000 HD
ENDBRANCH  36  37
BRANCH  36  40
ATOM     40  C   UNL     1       5.547   4.030  13.349  0.00  0.00    +0.000 C 
BRANCH  40  41
ATOM     41  C   UNL     1       6.260   3.426  12.132  0.00  0.00    +0.000 C 
BRANCH  41  42
ATOM     42  C   UNL     1       5.604   2.122  11.668  0.00  0.00    +0.000 C 
BRANCH  42  43
ATOM     43  C   UNL     1       6.656   1.150  11.133  0.00  0.00    +0.000 C 
BRANCH  43  44
ATOM     44  N   UNL     1       6.178  -0.225  11.227  0.00  0.00    +0.000 NA
ATOM     45  H   UNL     1       5.683  -0.456  10.364  0.00  0.00    +0.000 HD
ATOM     46  H   UNL     1       5.478  -0.290  11.964  0.00  0.00    +0.000 HD
ENDBRANCH  43  44
ENDBRANCH  42  43
ENDBRANCH  41  42
ENDBRANCH  40  41
ENDBRANCH  36  40
ENDBRANCH  32  36
ENDBRANCH  31  34
ENDBRANCH   1  31
TORSDOF 18
ENDMDL
MODEL 8
REMARK VINA RESULT:      -6.4      2.095      7.245
REMARK  Name = 
REMARK  18 active torsions:
REMARK  status: ('A' for Active; 'I' for Inactive)
REMARK    1  A    between atoms: N_1  and  C_2
REMARK    2  A    between atoms: C_2  and  C_3
REMARK    3  A    between atoms: C_3  and  C_4
REMARK    4  A    between atoms: C_4  and  C_5
REMARK    5  A    between atoms: C_5  and  C_6
REMARK    6  A    between atoms: C_6  and  N_7
REMARK    7  A    between atoms: C_6  and  C_8
REMARK    8  A    between atoms: N_10  and  C_11
REMARK    9  A    between atoms: C_11  and  C_12
REMARK   10  A    between atoms: C_14  and  O_15
REMARK   11  A    between atoms: O_15  and  C_16
REMARK   12  A    between atoms: C_17  and  N_18
REMARK   13  A    between atoms: C_20  and  N_21
REMARK   14  A    between atoms: C_22  and  O_23
REMARK   15  A    between atoms: C_24  and  O_25
REMARK   16  A    between atoms: C_26  and  N_27
REMARK   17  A    between atoms: C_28  and  O_29
REMARK   18  A    between atoms: C_30  and  O_31
REMARK                            x       y       z     vdW  Elec       q    Type
REMARK                         _______ _______ _______ _____ _____    ______ ____
ROOT
ATOM      1  C   UNL     1       3.305   7.049  17.866  0.00  0.00    +0.000 C 
ATOM      2  O   UNL     1       3.740   6.372  19.047  0.00  0.00    +0.000 OA
ATOM      3  C   UNL     1       2.733   6.140  20.027  0.00  0.00    +0.000 C 
ATOM      4  C   UNL     1       2.163   7.527  20.462  0.00  0.00    +0.000 C 
ATOM      5  C   UNL     1       1.466   8.140  19.235  0.00  0.00    +0.000 C 
ATOM      6  C   UNL     1       2.533   8.352  18.146  0.00  0.00    +0.000 C 
ENDROOT
BRANCH   4   7
ATOM      7  N   UNL     1       1.317   7.570  21.671  0.00  0.00    +0.000 NA
ATOM      8  H   UNL     1       0.690   8.370  21.631  0.00  0.00    +0.000 HD
ATOM      9  H   UNL     1       1.928   7.730  22.478  0.00  0.00    +0.000 HD
ENDBRANCH   4   7
BRANCH   6  10
ATOM     10  O   UNL     1       1.962   8.848  16.932  0.00  0.00    +0.000 OA
ATOM     11  H   UNL     1       1.242   8.248  16.664  0.00  0.00    +0.000 HD
ENDBRANCH   6  10
BRANCH   5  12
ATOM     12  O   UNL     1       0.831   9.385  19.562  0.00  0.00    +0.000 OA
ATOM     13  H   UNL     1       1.391  10.109  19.230  0.00  0.00    +0.000 HD
ENDBRANCH   5  12
BRANCH   3  14
ATOM     14  O   UNL     1       1.701   5.278  19.533  0.00  0.00    +0.000 OA
BRANCH  14  15
ATOM     15  C   UNL     1       2.012   3.853  19.512  0.00  0.00    +0.000 C 
ATOM     16  C   UNL     1       2.695   3.557  20.884  0.00  0.00    +0.000 C 
ATOM     17  C   UNL     1       3.479   2.239  20.976  0.00  0.00    +0.000 C 
ATOM     18  C   UNL     1       4.380   2.018  19.761  0.00  0.00    +0.000 C 
ATOM     19  C   UNL     1       3.510   2.043  18.486  0.00  0.00    +0.000 C 
ATOM     20  C   UNL     1       2.892   3.441  18.309  0.00  0.00    +0.000 C 
BRANCH  18  21
ATOM     21  N   UNL     1       5.135   0.769  19.894  0.00  0.00    +0.000 NA
ATOM     22  H   UNL     1       4.692   0.150  20.572  0.00  0.00    +0.000 HD
ATOM     23  H   UNL     1       6.077   0.953  20.239  0.00  0.00    +0.000 HD
ENDBRANCH  18  21
BRANCH  16  24
ATOM     24  N   UNL     1       1.716   3.572  21.991  0.00  0.00    +0.000 NA
ATOM     25  H   UNL     1       1.979   4.261  22.692  0.00  0.00    +0.000 HD
ATOM     26  H   UNL     1       1.741   2.663  22.462  0.00  0.00    +0.000 HD
ENDBRANCH  16  24
BRANCH  20  27
ATOM     27  O   UNL     1       2.127   3.466  17.091  0.00  0.00    +0.000 OA
ATOM     28  H   UNL     1       2.733   3.400  16.330  0.00  0.00    +0.000 HD
ENDBRANCH  20  27
BRANCH  19  29
ATOM     29  O   UNL     1       4.271   1.704  17.322  0.00  0.00    +0.000 OA
ATOM     30  H   UNL     1       4.256   0.736  17.224  0.00  0.00    +0.000 HD
ENDBRANCH  19  29
ENDBRANCH  14  15
ENDBRANCH   3  14
BRANCH   1  31
ATOM     31  C   UNL     1       4.551   7.318  16.994  0.00  0.00    +0.000 C 
BRANCH  31  34
ATOM     32  C   UNL     1       6.521   5.958  16.321  0.00  0.00    +0.000 C 
ATOM     33  O   UNL     1       7.334   6.779  16.748  0.00  0.00    +0.000 OA
ATOM     34  N   UNL     1       5.148   6.107  16.464  0.00  0.00    +0.000 N 
ATOM     35  H   UNL     1       4.545   5.411  16.050  0.00  0.00    +0.000 HD
BRANCH  32  36
ATOM     36  C   UNL     1       6.960   4.642  15.642  0.00  0.00    +0.000 C 
BRANCH  36  37
ATOM     37  N   UNL     1       6.211   3.520  16.251  0.00  0.00    +0.000 NA
ATOM     38  H   UNL     1       5.806   3.816  17.136  0.00  0.00    +0.000 HD
ATOM     39  H   UNL     1       6.886   2.791  16.492  0.00  0.00    +0.000 HD
ENDBRANCH  36  37
BRANCH  36  40
ATOM     40  C   UNL     1       6.753   4.641  14.121  0.00  0.00    +0.000 C 
BRANCH  40  41
ATOM     41  C   UNL     1       5.524   3.822  13.708  0.00  0.00    +0.000 C 
BRANCH  41  42
ATOM     42  C   UNL     1       5.493   3.550  12.201  0.00  0.00    +0.000 C 
BRANCH  42  43
ATOM     43  C   UNL     1       6.645   2.632  11.794  0.00  0.00    +0.000 C 
BRANCH  43  44
ATOM     44  N   UNL     1       6.140   1.329  11.376  0.00  0.00    +0.000 NA
ATOM     45  H   UNL     1       6.538   1.104  10.463  0.00  0.00    +0.000 HD
ATOM     46  H   UNL     1       5.135   1.389  11.225  0.00  0.00    +0.000 HD
ENDBRANCH  43  44
ENDBRANCH  42  43
ENDBRANCH  41  42
ENDBRANCH  40  41
ENDBRANCH  36  40
ENDBRANCH  32  36
ENDBRANCH  31  34
ENDBRANCH   1  31
TORSDOF 18
ENDMDL
MODEL 9
REMARK VINA RESULT:      -6.4      2.619      8.102
REMARK  Name = 
REMARK  18 active torsions:
REMARK  status: ('A' for Active; 'I' for Inactive)
REMARK    1  A    between atoms: N_1  and  C_2
REMARK    2  A    between atoms: C_2  and  C_3
REMARK    3  A    between atoms: C_3  and  C_4
REMARK    4  A    between atoms: C_4  and  C_5
REMARK    5  A    between atoms: C_5  and  C_6
REMARK    6  A    between atoms: C_6  and  N_7
REMARK    7  A    between atoms: C_6  and  C_8
REMARK    8  A    between atoms: N_10  and  C_11
REMARK    9  A    between atoms: C_11  and  C_12
REMARK   10  A    between atoms: C_14  and  O_15
REMARK   11  A    between atoms: O_15  and  C_16
REMARK   12  A    between atoms: C_17  and  N_18
REMARK   13  A    between atoms: C_20  and  N_21
REMARK   14  A    between atoms: C_22  and  O_23
REMARK   15  A    between atoms: C_24  and  O_25
REMARK   16  A    between atoms: C_26  and  N_27
REMARK   17  A    between atoms: C_28  and  O_29
REMARK   18  A    between atoms: C_30  and  O_31
REMARK                            x       y       z     vdW  Elec       q    Type
REMARK                         _______ _______ _______ _____ _____    ______ ____
ROOT
ATOM      1  C   UNL     1       5.413   6.420  18.144  0.00  0.00    +0.000 C 
ATOM      2  O   UNL     1       4.243   6.802  17.415  0.00  0.00    +0.000 OA
ATOM      3  C   UNL     1       3.004   6.553  18.070  0.00  0.00    +0.000 C 
ATOM      4  C   UNL     1       2.909   5.018  18.343  0.00  0.00    +0.000 C 
ATOM      5  C   UNL     1       4.026   4.661  19.338  0.00  0.00    +0.000 C 
ATOM      6  C   UNL     1       5.374   4.971  18.664  0.00  0.00    +0.000 C 
ENDROOT
BRANCH   4   7
ATOM      7  N   UNL     1       1.598   4.475  18.748  0.00  0.00    +0.000 NA
ATOM      8  H   UNL     1       1.190   3.939  17.985  0.00  0.00    +0.000 HD
ATOM      9  H   UNL     1       0.965   5.266  18.908  0.00  0.00    +0.000 HD
ENDBRANCH   4   7
BRANCH   6  10
ATOM     10  O   UNL     1       6.476   4.743  19.547  0.00  0.00    +0.000 OA
ATOM     11  H   UNL     1       6.916   3.915  19.280  0.00  0.00    +0.000 HD
ENDBRANCH   6  10
BRANCH   5  12
ATOM     12  O   UNL     1       3.964   3.279  19.721  0.00  0.00    +0.000 OA
ATOM     13  H   UNL     1       3.369   3.202  20.488  0.00  0.00    +0.000 HD
ENDBRANCH   5  12
BRANCH   3  14
ATOM     14  O   UNL     1       2.881   7.311  19.279  0.00  0.00    +0.000 OA
BRANCH  14  15
ATOM     15  C   UNL     1       1.671   8.114  19.411  0.00  0.00    +0.000 C 
ATOM     16  C   UNL     1       2.001   9.478  18.728  0.00  0.00    +0.000 C 
ATOM     17  C   UNL     1       1.059  10.645  19.064  0.00  0.00    +0.000 C 
ATOM     18  C   UNL     1       0.774  10.741  20.564  0.00  0.00    +0.000 C 
ATOM     19  C   UNL     1       0.170   9.404  21.042  0.00  0.00    +0.000 C 
ATOM     20  C   UNL     1       1.209   8.280  20.878  0.00  0.00    +0.000 C 
BRANCH  18  21
ATOM     21  N   UNL     1      -0.100  11.882  20.854  0.00  0.00    +0.000 NA
ATOM     22  H   UNL     1      -0.883  11.911  20.202  0.00  0.00    +0.000 HD
ATOM     23  H   UNL     1       0.405  12.760  20.742  0.00  0.00    +0.000 HD
ENDBRANCH  18  21
BRANCH  16  24
ATOM     24  N   UNL     1       2.044   9.350  17.257  0.00  0.00    +0.000 NA
ATOM     25  H   UNL     1       1.954   8.375  16.979  0.00  0.00    +0.000 HD
ATOM     26  H   UNL     1       2.965   9.655  16.929  0.00  0.00    +0.000 HD
ENDBRANCH  16  24
BRANCH  20  27
ATOM     27  O   UNL     1       0.652   7.050  21.375  0.00  0.00    +0.000 OA
ATOM     28  H   UNL     1      -0.145   6.828  20.859  0.00  0.00    +0.000 HD
ENDBRANCH  20  27
BRANCH  19  29
ATOM     29  O   UNL     1      -0.249   9.474  22.408  0.00  0.00    +0.000 OA
ATOM     30  H   UNL     1      -1.198   9.260  22.443  0.00  0.00    +0.000 HD
ENDBRANCH  19  29
ENDBRANCH  14  15
ENDBRANCH   3  14
BRANCH   1  31
ATOM     31  C   UNL     1       6.633   6.648  17.225  0.00  0.00    +0.000 C 
BRANCH  31  34
ATOM     32  C   UNL     1       7.023   5.202  15.240  0.00  0.00    +0.000 C 
ATOM     33  O   UNL     1       7.740   4.412  15.857  0.00  0.00    +0.000 OA
ATOM     34  N   UNL     1       6.386   6.276  15.845  0.00  0.00    +0.000 N 
ATOM     35  H   UNL     1       5.849   6.904  15.264  0.00  0.00    +0.000 HD
BRANCH  32  36
ATOM     36  C   UNL     1       6.711   5.027  13.739  0.00  0.00    +0.000 C 
BRANCH  36  37
ATOM     37  N   UNL     1       7.926   5.354  12.959  0.00  0.00    +0.000 NA
ATOM     38  H   UNL     1       8.641   5.730  13.577  0.00  0.00    +0.000 HD
ATOM     39  H   UNL     1       7.689   6.118  12.322  0.00  0.00    +0.000 HD
ENDBRANCH  36  37
BRANCH  36  40
ATOM     40  C   UNL     1       6.224   3.617  13.375  0.00  0.00    +0.000 C 
BRANCH  40  41
ATOM     41  C   UNL     1       5.587   3.569  11.981  0.00  0.00    +0.000 C 
BRANCH  41  42
ATOM     42  C   UNL     1       5.216   2.142  11.566  0.00  0.00    +0.000 C 
BRANCH  42  43
ATOM     43  C   UNL     1       6.462   1.358  11.154  0.00  0.00    +0.000 C 
BRANCH  43  44
ATOM     44  N   UNL     1       6.263  -0.070  11.369  0.00  0.00    +0.000 NA
ATOM     45  H   UNL     1       5.568  -0.406  10.700  0.00  0.00    +0.000 HD
ATOM     46  H   UNL     1       5.846  -0.219  12.286  0.00  0.00    +0.000 HD
ENDBRANCH  43  44
ENDBRANCH  42  43
ENDBRANCH  41  42
ENDBRANCH  40  41
ENDBRANCH  36  40
ENDBRANCH  32  36
ENDBRANCH  31  34
ENDBRANCH   1  31
TORSDOF 18
ENDMDL
