MODEL 1
REMARK VINA RESULT:      -6.6      0.000      0.000
REMARK  Name = 
REMARK  0 active torsions:
REMARK  status: ('A' for Active; 'I' for Inactive)
REMARK                            x       y       z     vdW  Elec       q    Type
REMARK                         _______ _______ _______ _____ _____    ______ ____
ROOT
ATOM      1  O   UNL     1       9.172  15.344  17.334  0.00  0.00    +0.000 OA
ATOM      2  C   UNL     1       9.477  15.020  18.479  0.00  0.00    +0.000 C 
ATOM      3  C   UNL     1       9.444  15.896  19.687  0.00  0.00    +0.000 C 
ATOM      4  S   UNL     1      11.003  15.376  20.625  0.00  0.00    +0.000 S 
ATOM      5  O   UNL     1      12.248  15.751  19.752  0.00  0.00    +0.000 OA
ATOM      6  C   UNL     1      10.387  13.671  20.354  0.00  0.00    +0.000 C 
ATOM      7  C   UNL     1       9.319  13.609  21.641  0.00  0.00    +0.000 A 
ATOM      8  C   UNL     1       9.291  14.352  22.861  0.00  0.00    +0.000 A 
ATOM      9  C   UNL     1       8.604  13.662  23.898  0.00  0.00    +0.000 A 
ATOM     10  C   UNL     1       8.394  13.881  25.288  0.00  0.00    +0.000 A 
ATOM     11  C   UNL     1       7.721  12.911  26.050  0.00  0.00    +0.000 A 
ATOM     12  C   UNL     1       7.281  11.731  25.456  0.00  0.00    +0.000 A 
ATOM     13  C   UNL     1       7.496  11.509  24.100  0.00  0.00    +0.000 A 
ATOM     14  C   UNL     1       8.167  12.487  23.328  0.00  0.00    +0.000 A 
ATOM     15  N   UNL     1       8.650  12.445  22.025  0.00  0.00    +0.000 N 
ATOM     16  C   UNL     1       8.812  11.189  21.326  0.00  0.00    +0.000 C 
ATOM     17  C   UNL     1       9.780  11.293  20.176  0.00  0.00    +0.000 C 
ATOM     18  C   UNL     1      11.007  12.265  20.475  0.00  0.00    +0.000 C 
ATOM     19  C   UNL     1      12.136  11.869  19.532  0.00  0.00    +0.000 C 
ATOM     20  C   UNL     1      11.953  12.209  18.075  0.00  0.00    +0.000 C 
ATOM     21  C   UNL     1      11.209  13.514  17.901  0.00  0.00    +0.000 C 
ATOM     22  N   UNL     1      10.077  13.802  18.867  0.00  0.00    +0.000 N 
ENDROOT
TORSDOF 0
ENDMDL
MODEL 2
REMARK VINA RESULT:      -6.5     11.463     12.437
REMARK  Name = 
REMARK  0 active torsions:
REMARK  status: ('A' for Active; 'I' for Inactive)
REMARK                            x       y       z     vdW  Elec       q    Type
REMARK                         _______ _______ _______ _____ _____    ______ ____
ROOT
ATOM      1  O   UNL     1       1.288  14.649  18.427  0.00  0.00    +0.000 OA
ATOM      2  C   UNL     1       0.397  13.974  18.937  0.00  0.00    +0.000 C 
ATOM      3  C   UNL     1      -0.548  14.415  20.004  0.00  0.00    +0.000 C 
ATOM      4  S   UNL     1      -0.684  12.882  21.105  0.00  0.00    +0.000 S 
ATOM      5  O   UNL     1       0.720  12.611  21.743  0.00  0.00    +0.000 OA
ATOM      6  C   UNL     1      -0.973  11.990  19.529  0.00  0.00    +0.000 C 
ATOM      7  C   UNL     1      -2.609  12.309  19.385  0.00  0.00    +0.000 A 
ATOM      8  C   UNL     1      -3.582  12.642  20.377  0.00  0.00    +0.000 A 
ATOM      9  C   UNL     1      -4.902  12.300  19.975  0.00  0.00    +0.000 A 
ATOM     10  C   UNL     1      -6.180  12.301  20.603  0.00  0.00    +0.000 A 
ATOM     11  C   UNL     1      -7.292  11.792  19.912  0.00  0.00    +0.000 A 
ATOM     12  C   UNL     1      -7.147  11.270  18.630  0.00  0.00    +0.000 A 
ATOM     13  C   UNL     1      -5.897  11.256  18.020  0.00  0.00    +0.000 A 
ATOM     14  C   UNL     1      -4.775  11.774  18.709  0.00  0.00    +0.000 A 
ATOM     15  N   UNL     1      -3.419  11.728  18.406  0.00  0.00    +0.000 N 
ATOM     16  C   UNL     1      -2.903  10.809  17.416  0.00  0.00    +0.000 C 
ATOM     17  C   UNL     1      -1.427  10.553  17.584  0.00  0.00    +0.000 C 
ATOM     18  C   UNL     1      -0.968  10.507  19.109  0.00  0.00    +0.000 C 
ATOM     19  C   UNL     1       0.338   9.725  19.164  0.00  0.00    +0.000 C 
ATOM     20  C   UNL     1       1.559  10.405  18.600  0.00  0.00    +0.000 C 
ATOM     21  C   UNL     1       1.528  11.896  18.854  0.00  0.00    +0.000 C 
ATOM     22  N   UNL     1       0.186  12.591  18.741  0.00  0.00    +0.000 N 
ENDROOT
TORSDOF 0
ENDMDL
MODEL 3
REMARK VINA RESULT:      -6.5      9.504     10.817
REMARK  Name = 
REMARK  0 active torsions:
REMARK  status: ('A' for Active; 'I' for Inactive)
REMARK                            x       y       z     vdW  Elec       q    Type
REMARK                         _______ _______ _______ _____ _____    ______ ____
ROOT
ATOM      1  O   UNL     1       7.524   7.824  17.072  0.00  0.00    +0.000 OA
ATOM      2  C   UNL     1       7.025   6.778  17.480  0.00  0.00    +0.000 C 
ATOM      3  C   UNL     1       7.139   6.220  18.858  0.00  0.00    +0.000 C 
ATOM      4  S   UNL     1       7.330   4.364  18.546  0.00  0.00    +0.000 S 
ATOM      5  O   UNL     1       8.680   4.132  17.784  0.00  0.00    +0.000 OA
ATOM      6  C   UNL     1       5.879   4.576  17.446  0.00  0.00    +0.000 C 
ATOM      7  C   UNL     1       4.690   4.485  18.620  0.00  0.00    +0.000 A 
ATOM      8  C   UNL     1       4.709   3.884  19.916  0.00  0.00    +0.000 A 
ATOM      9  C   UNL     1       3.406   3.532  20.367  0.00  0.00    +0.000 A 
ATOM     10  C   UNL     1       2.883   2.825  21.486  0.00  0.00    +0.000 A 
ATOM     11  C   UNL     1       1.502   2.577  21.566  0.00  0.00    +0.000 A 
ATOM     12  C   UNL     1       0.651   3.001  20.549  0.00  0.00    +0.000 A 
ATOM     13  C   UNL     1       1.162   3.681  19.449  0.00  0.00    +0.000 A 
ATOM     14  C   UNL     1       2.551   3.938  19.367  0.00  0.00    +0.000 A 
ATOM     15  N   UNL     1       3.326   4.435  18.326  0.00  0.00    +0.000 N 
ATOM     16  C   UNL     1       2.821   4.477  16.970  0.00  0.00    +0.000 C 
ATOM     17  C   UNL     1       3.926   4.561  15.949  0.00  0.00    +0.000 C 
ATOM     18  C   UNL     1       5.217   3.717  16.351  0.00  0.00    +0.000 C 
ATOM     19  C   UNL     1       5.986   3.429  15.068  0.00  0.00    +0.000 C 
ATOM     20  C   UNL     1       6.692   4.596  14.425  0.00  0.00    +0.000 C 
ATOM     21  C   UNL     1       7.231   5.555  15.463  0.00  0.00    +0.000 C 
ATOM     22  N   UNL     1       6.376   5.804  16.690  0.00  0.00    +0.000 N 
ENDROOT
TORSDOF 0
ENDMDL
MODEL 4
REMARK VINA RESULT:      -6.4      1.148      1.249
REMARK  Name = 
REMARK  0 active torsions:
REMARK  status: ('A' for Active; 'I' for Inactive)
REMARK                            x       y       z     vdW  Elec       q    Type
REMARK                         _______ _______ _______ _____ _____    ______ ____
ROOT
ATOM      1  O   UNL     1       7.511  14.096  17.210  0.00  0.00    +0.000 OA
ATOM      2  C   UNL     1       8.115  14.172  18.277  0.00  0.00    +0.000 C 
ATOM      3  C   UNL     1       8.218  15.374  19.155  0.00  0.00    +0.000 C 
ATOM      4  S   UNL     1      10.011  15.303  19.755  0.00  0.00    +0.000 S 
ATOM      5  O   UNL     1      10.951  15.489  18.515  0.00  0.00    +0.000 OA
ATOM      6  C   UNL     1       9.628  13.553  20.146  0.00  0.00    +0.000 C 
ATOM      7  C   UNL     1       8.903  13.807  21.632  0.00  0.00    +0.000 A 
ATOM      8  C   UNL     1       9.035  14.888  22.558  0.00  0.00    +0.000 A 
ATOM      9  C   UNL     1       8.719  14.500  23.889  0.00  0.00    +0.000 A 
ATOM     10  C   UNL     1       8.798  15.123  25.167  0.00  0.00    +0.000 A 
ATOM     11  C   UNL     1       8.478  14.386  26.319  0.00  0.00    +0.000 A 
ATOM     12  C   UNL     1       8.106  13.048  26.218  0.00  0.00    +0.000 A 
ATOM     13  C   UNL     1       8.042  12.433  24.972  0.00  0.00    +0.000 A 
ATOM     14  C   UNL     1       8.357  13.174  23.809  0.00  0.00    +0.000 A 
ATOM     15  N   UNL     1       8.532  12.769  22.490  0.00  0.00    +0.000 N 
ATOM     16  C   UNL     1       8.728  11.375  22.154  0.00  0.00    +0.000 C 
ATOM     17  C   UNL     1       9.381  11.196  20.808  0.00  0.00    +0.000 C 
ATOM     18  C   UNL     1      10.474  12.311  20.488  0.00  0.00    +0.000 C 
ATOM     19  C   UNL     1      11.409  11.736  19.431  0.00  0.00    +0.000 C 
ATOM     20  C   UNL     1      10.848  11.589  18.039  0.00  0.00    +0.000 C 
ATOM     21  C   UNL     1       9.887  12.709  17.709  0.00  0.00    +0.000 C 
ATOM     22  N   UNL     1       8.972  13.188  18.818  0.00  0.00    +0.000 N 
ENDROOT
TORSDOF 0
ENDMDL
MODEL 5
REMARK VINA RESULT:      -6.3      8.378      9.329
REMARK  Name = 
REMARK  0 active torsions:
REMARK  status: ('A' for Active; 'I' for Inactive)
REMARK                            x       y       z     vdW  Elec       q    Type
REMARK                         _______ _______ _______ _____ _____    ______ ____
ROOT
ATOM      1  O   UNL     1      -0.697  16.994  17.898  0.00  0.00    +0.000 OA
ATOM      2  C   UNL     1      -0.297  16.203  18.749  0.00  0.00    +0.000 C 
ATOM      3  C   UNL     1      -0.928  15.933  20.074  0.00  0.00    +0.000 C 
ATOM      4  S   UNL     1       0.566  15.750  21.221  0.00  0.00    +0.000 S 
ATOM      5  O   UNL     1       1.311  17.127  21.278  0.00  0.00    +0.000 OA
ATOM      6  C   UNL     1       1.198  14.612  19.930  0.00  0.00    +0.000 C 
ATOM      7  C   UNL     1       0.373  13.239  20.414  0.00  0.00    +0.000 A 
ATOM      8  C   UNL     1      -0.170  12.882  21.687  0.00  0.00    +0.000 A 
ATOM      9  C   UNL     1      -0.290  11.474  21.848  0.00  0.00    +0.000 A 
ATOM     10  C   UNL     1      -0.642  10.608  22.921  0.00  0.00    +0.000 A 
ATOM     11  C   UNL     1      -0.562   9.216  22.743  0.00  0.00    +0.000 A 
ATOM     12  C   UNL     1      -0.121   8.685  21.534  0.00  0.00    +0.000 A 
ATOM     13  C   UNL     1       0.236   9.530  20.489  0.00  0.00    +0.000 A 
ATOM     14  C   UNL     1       0.150  10.932  20.661  0.00  0.00    +0.000 A 
ATOM     15  N   UNL     1       0.594  11.977  19.859  0.00  0.00    +0.000 N 
ATOM     16  C   UNL     1       1.549  11.752  18.796  0.00  0.00    +0.000 C 
ATOM     17  C   UNL     1       2.265  13.015  18.392  0.00  0.00    +0.000 C 
ATOM     18  C   UNL     1       2.571  13.983  19.620  0.00  0.00    +0.000 C 
ATOM     19  C   UNL     1       3.724  14.888  19.206  0.00  0.00    +0.000 C 
ATOM     20  C   UNL     1       3.419  15.947  18.177  0.00  0.00    +0.000 C 
ATOM     21  C   UNL     1       2.017  16.491  18.344  0.00  0.00    +0.000 C 
ATOM     22  N   UNL     1       0.930  15.505  18.723  0.00  0.00    +0.000 N 
ENDROOT
TORSDOF 0
ENDMDL
MODEL 6
REMARK VINA RESULT:      -6.2     13.009     14.873
REMARK  Name = 
REMARK  0 active torsions:
REMARK  status: ('A' for Active; 'I' for Inactive)
REMARK                            x       y       z     vdW  Elec       q    Type
REMARK                         _______ _______ _______ _____ _____    ______ ____
ROOT
ATOM      1  O   UNL     1      -4.514  12.332  25.006  0.00  0.00    +0.000 OA
ATOM      2  C   UNL     1      -4.105  12.607  23.881  0.00  0.00    +0.000 C 
ATOM      3  C   UNL     1      -2.820  12.159  23.270  0.00  0.00    +0.000 C 
ATOM      4  S   UNL     1      -2.242  13.696  22.330  0.00  0.00    +0.000 S 
ATOM      5  O   UNL     1      -1.948  14.827  23.374  0.00  0.00    +0.000 OA
ATOM      6  C   UNL     1      -3.951  13.718  21.666  0.00  0.00    +0.000 C 
ATOM      7  C   UNL     1      -3.729  12.605  20.436  0.00  0.00    +0.000 A 
ATOM      8  C   UNL     1      -2.542  12.204  19.748  0.00  0.00    +0.000 A 
ATOM      9  C   UNL     1      -2.818  11.685  18.453  0.00  0.00    +0.000 A 
ATOM     10  C   UNL     1      -2.028  11.271  17.344  0.00  0.00    +0.000 A 
ATOM     11  C   UNL     1      -2.659  10.888  16.148  0.00  0.00    +0.000 A 
ATOM     12  C   UNL     1      -4.046  10.931  16.038  0.00  0.00    +0.000 A 
ATOM     13  C   UNL     1      -4.819  11.348  17.117  0.00  0.00    +0.000 A 
ATOM     14  C   UNL     1      -4.188  11.728  18.325  0.00  0.00    +0.000 A 
ATOM     15  N   UNL     1      -4.700  12.329  19.470  0.00  0.00    +0.000 N 
ATOM     16  C   UNL     1      -5.995  12.974  19.463  0.00  0.00    +0.000 C 
ATOM     17  C   UNL     1      -6.149  13.964  20.588  0.00  0.00    +0.000 C 
ATOM     18  C   UNL     1      -4.806  14.757  20.914  0.00  0.00    +0.000 C 
ATOM     19  C   UNL     1      -5.202  16.045  21.624  0.00  0.00    +0.000 C 
ATOM     20  C   UNL     1      -5.712  15.910  23.037  0.00  0.00    +0.000 C 
ATOM     21  C   UNL     1      -5.006  14.794  23.774  0.00  0.00    +0.000 C 
ATOM     22  N   UNL     1      -4.685  13.537  22.990  0.00  0.00    +0.000 N 
ENDROOT
TORSDOF 0
ENDMDL
MODEL 7
REMARK VINA RESULT:      -6.2      9.435     11.136
REMARK  Name = 
REMARK  0 active torsions:
REMARK  status: ('A' for Active; 'I' for Inactive)
REMARK                            x       y       z     vdW  Elec       q    Type
REMARK                         _______ _______ _______ _____ _____    ______ ____
ROOT
ATOM      1  O   UNL     1       0.628  15.728  23.223  0.00  0.00    +0.000 OA
ATOM      2  C   UNL     1       0.339  14.848  22.416  0.00  0.00    +0.000 C 
ATOM      3  C   UNL     1       0.762  14.782  20.987  0.00  0.00    +0.000 C 
ATOM      4  S   UNL     1      -0.790  14.137  20.118  0.00  0.00    +0.000 S 
ATOM      5  O   UNL     1      -1.919  15.211  20.270  0.00  0.00    +0.000 OA
ATOM      6  C   UNL     1      -0.787  12.863  21.437  0.00  0.00    +0.000 C 
ATOM      7  C   UNL     1       0.315  11.816  20.739  0.00  0.00    +0.000 A 
ATOM      8  C   UNL     1       0.692  11.641  19.371  0.00  0.00    +0.000 A 
ATOM      9  C   UNL     1       1.208  10.340  19.116  0.00  0.00    +0.000 A 
ATOM     10  C   UNL     1       1.602   9.623  17.951  0.00  0.00    +0.000 A 
ATOM     11  C   UNL     1       1.989   8.277  18.064  0.00  0.00    +0.000 A 
ATOM     12  C   UNL     1       1.968   7.640  19.302  0.00  0.00    +0.000 A 
ATOM     13  C   UNL     1       1.571   8.335  20.439  0.00  0.00    +0.000 A 
ATOM     14  C   UNL     1       1.187   9.693  20.331  0.00  0.00    +0.000 A 
ATOM     15  N   UNL     1       0.602  10.550  21.255  0.00  0.00    +0.000 N 
ATOM     16  C   UNL     1      -0.021  10.043  22.459  0.00  0.00    +0.000 C 
ATOM     17  C   UNL     1      -1.002  11.020  23.052  0.00  0.00    +0.000 C 
ATOM     18  C   UNL     1      -1.816  11.838  21.954  0.00  0.00    +0.000 C 
ATOM     19  C   UNL     1      -3.092  12.339  22.617  0.00  0.00    +0.000 C 
ATOM     20  C   UNL     1      -2.941  13.445  23.630  0.00  0.00    +0.000 C 
ATOM     21  C   UNL     1      -1.833  14.400  23.245  0.00  0.00    +0.000 C 
ATOM     22  N   UNL     1      -0.586  13.801  22.623  0.00  0.00    +0.000 N 
ENDROOT
TORSDOF 0
ENDMDL
MODEL 8
REMARK VINA RESULT:      -6.2     12.653     14.510
REMARK  Name = 
REMARK  0 active torsions:
REMARK  status: ('A' for Active; 'I' for Inactive)
REMARK                            x       y       z     vdW  Elec       q    Type
REMARK                         _______ _______ _______ _____ _____    ______ ____
ROOT
ATOM      1  O   UNL     1      -4.560  17.097  22.174  0.00  0.00    +0.000 OA
ATOM      2  C   UNL     1      -4.636  15.929  21.802  0.00  0.00    +0.000 C 
ATOM      3  C   UNL     1      -5.506  15.402  20.710  0.00  0.00    +0.000 C 
ATOM      4  S   UNL     1      -6.102  13.748  21.409  0.00  0.00    +0.000 S 
ATOM      5  O   UNL     1      -6.982  14.038  22.673  0.00  0.00    +0.000 OA
ATOM      6  C   UNL     1      -4.329  13.466  21.783  0.00  0.00    +0.000 C 
ATOM      7  C   UNL     1      -3.864  12.917  20.272  0.00  0.00    +0.000 A 
ATOM      8  C   UNL     1      -4.631  12.318  19.224  0.00  0.00    +0.000 A 
ATOM      9  C   UNL     1      -3.834  11.511  18.366  0.00  0.00    +0.000 A 
ATOM     10  C   UNL     1      -4.098  10.626  17.283  0.00  0.00    +0.000 A 
ATOM     11  C   UNL     1      -3.041   9.900  16.708  0.00  0.00    +0.000 A 
ATOM     12  C   UNL     1      -1.747  10.026  17.206  0.00  0.00    +0.000 A 
ATOM     13  C   UNL     1      -1.490  10.880  18.273  0.00  0.00    +0.000 A 
ATOM     14  C   UNL     1      -2.550  11.618  18.850  0.00  0.00    +0.000 A 
ATOM     15  N   UNL     1      -2.597  12.394  20.003  0.00  0.00    +0.000 N 
ATOM     16  C   UNL     1      -1.566  12.299  21.014  0.00  0.00    +0.000 C 
ATOM     17  C   UNL     1      -2.029  12.806  22.355  0.00  0.00    +0.000 C 
ATOM     18  C   UNL     1      -3.555  12.464  22.662  0.00  0.00    +0.000 C 
ATOM     19  C   UNL     1      -3.733  12.514  24.174  0.00  0.00    +0.000 C 
ATOM     20  C   UNL     1      -3.692  13.877  24.818  0.00  0.00    +0.000 C 
ATOM     21  C   UNL     1      -4.306  14.929  23.922  0.00  0.00    +0.000 C 
ATOM     22  N   UNL     1      -4.042  14.815  22.434  0.00  0.00    +0.000 N 
ENDROOT
TORSDOF 0
ENDMDL
MODEL 9
REMARK VINA RESULT:      -6.1      3.092      6.203
REMARK  Name = 
REMARK  0 active torsions:
REMARK  status: ('A' for Active; 'I' for Inactive)
REMARK                            x       y       z     vdW  Elec       q    Type
REMARK                         _______ _______ _______ _____ _____    ______ ____
ROOT
ATOM      1  O   UNL     1       4.875  13.981  24.276  0.00  0.00    +0.000 OA
ATOM      2  C   UNL     1       5.968  13.677  23.805  0.00  0.00    +0.000 C 
ATOM      3  C   UNL     1       6.418  12.308  23.419  0.00  0.00    +0.000 C 
ATOM      4  S   UNL     1       8.225  12.286  23.980  0.00  0.00    +0.000 S 
ATOM      5  O   UNL     1       8.255  12.416  25.541  0.00  0.00    +0.000 OA
ATOM      6  C   UNL     1       8.338  13.888  23.095  0.00  0.00    +0.000 C 
ATOM      7  C   UNL     1       8.573  13.279  21.555  0.00  0.00    +0.000 A 
ATOM      8  C   UNL     1       9.088  12.018  21.123  0.00  0.00    +0.000 A 
ATOM      9  C   UNL     1       9.640  12.079  19.814  0.00  0.00    +0.000 A 
ATOM     10  C   UNL     1      10.366  11.181  18.982  0.00  0.00    +0.000 A 
ATOM     11  C   UNL     1      10.851  11.624  17.740  0.00  0.00    +0.000 A 
ATOM     12  C   UNL     1      10.644  12.939  17.332  0.00  0.00    +0.000 A 
ATOM     13  C   UNL     1       9.947  13.822  18.149  0.00  0.00    +0.000 A 
ATOM     14  C   UNL     1       9.451  13.378  19.397  0.00  0.00    +0.000 A 
ATOM     15  N   UNL     1       8.883  14.081  20.453  0.00  0.00    +0.000 N 
ATOM     16  C   UNL     1       9.008  15.519  20.551  0.00  0.00    +0.000 C 
ATOM     17  C   UNL     1       8.786  16.021  21.954  0.00  0.00    +0.000 C 
ATOM     18  C   UNL     1       9.362  15.040  23.069  0.00  0.00    +0.000 C 
ATOM     19  C   UNL     1       9.579  15.867  24.330  0.00  0.00    +0.000 C 
ATOM     20  C   UNL     1       8.343  16.317  25.067  0.00  0.00    +0.000 C 
ATOM     21  C   UNL     1       7.246  15.278  24.991  0.00  0.00    +0.000 C 
ATOM     22  N   UNL     1       7.086  14.532  23.682  0.00  0.00    +0.000 N 
ENDROOT
TORSDOF 0
ENDMDL
