MODEL 1
REMARK VINA RESULT:      -6.4      0.000      0.000
REMARK  Name = 
REMARK  7 active torsions:
REMARK  status: ('A' for Active; 'I' for Inactive)
REMARK    1  A    between atoms: C_1  and  O_2
REMARK    2  A    between atoms: O_2  and  C_3
REMARK    3  A    between atoms: C_8  and  C_9
REMARK    4  A    between atoms: C_12  and  O_13
REMARK    5  A    between atoms: C_19  and  O_20
REMARK    6  A    between atoms: N_26  and  C_27
REMARK    7  A    between atoms: C_27  and  C_28
REMARK                            x       y       z     vdW  Elec       q    Type
REMARK                         _______ _______ _______ _____ _____    ______ ____
ROOT
ATOM      1  C   UNL     1      -6.542  12.727  19.887  0.00  0.00    +0.000 C 
ATOM      2  C   UNL     1      -5.264  12.235  19.755  0.00  0.00    +0.000 C 
ATOM      3  C   UNL     1      -4.449  12.079  20.949  0.00  0.00    +0.000 C 
ATOM      4  C   UNL     1      -3.716  13.428  21.049  0.00  0.00    +0.000 C 
ATOM      5  C   UNL     1      -3.496  13.898  22.486  0.00  0.00    +0.000 C 
ATOM      6  C   UNL     1      -3.001  12.699  23.338  0.00  0.00    +0.000 C 
ATOM      7  C   UNL     1      -1.894  11.960  22.641  0.00  0.00    +0.000 A 
ATOM      8  C   UNL     1      -1.320  10.819  23.208  0.00  0.00    +0.000 A 
ATOM      9  C   UNL     1      -0.311  10.164  22.511  0.00  0.00    +0.000 A 
ATOM     10  C   UNL     1       0.092  10.696  21.267  0.00  0.00    +0.000 A 
ATOM     11  C   UNL     1      -0.800  11.495  20.551  0.00  0.00    +0.000 A 
ATOM     12  C   UNL     1      -1.613  12.274  21.300  0.00  0.00    +0.000 A 
ATOM     13  C   UNL     1      -2.384  13.181  20.400  0.00  0.00    +0.000 C 
ATOM     14  C   UNL     1      -1.659  14.510  20.230  0.00  0.00    +0.000 C 
ATOM     15  C   UNL     1      -1.511  15.200  21.598  0.00  0.00    +0.000 C 
ATOM     16  N   UNL     1      -2.626  15.114  22.583  0.00  0.00    +0.000 NA
ATOM     17  C   UNL     1      -2.477  12.308  19.114  0.00  0.00    +0.000 C 
ATOM     18  O   UNL     1      -1.410  11.282  19.302  0.00  0.00    +0.000 OA
ATOM     19  C   UNL     1      -4.142  12.000  18.639  0.00  0.00    +0.000 C 
ATOM     20  O   UNL     1      -4.455  11.618  17.509  0.00  0.00    +0.000 OA
ENDROOT
BRANCH   1  26
ATOM     21  C   UNL     1      -7.167  14.706  21.527  0.00  0.00    +0.000 A 
ATOM     22  C   UNL     1      -7.398  15.172  22.854  0.00  0.00    +0.000 A 
ATOM     23  C   UNL     1      -7.519  14.300  23.926  0.00  0.00    +0.000 A 
ATOM     24  C   UNL     1      -7.577  12.951  23.659  0.00  0.00    +0.000 A 
ATOM     25  C   UNL     1      -7.514  12.494  22.327  0.00  0.00    +0.000 A 
ATOM     26  C   UNL     1      -7.143  13.314  21.231  0.00  0.00    +0.000 A 
BRANCH  21  28
ATOM     27  C   UNL     1      -7.089  16.972  20.816  0.00  0.00    +0.000 C 
ATOM     28  O   UNL     1      -6.939  15.586  20.494  0.00  0.00    +0.000 OA
ENDBRANCH  21  28
ENDBRANCH   1  26
BRANCH   4  29
ATOM     29  O   UNL     1      -4.336  14.505  20.308  0.00  0.00    +0.000 OA
ATOM     30  H   UNL     1      -4.533  14.186  19.412  0.00  0.00    +0.000 HD
ENDBRANCH   4  29
BRANCH  10  31
ATOM     31  O   UNL     1       1.319  11.436  21.577  0.00  0.00    +0.000 OA
ATOM     32  H   UNL     1       1.492  11.282  22.509  0.00  0.00    +0.000 HD
ENDBRANCH  10  31
BRANCH  16  33
ATOM     33  C   UNL     1      -3.393  16.382  22.560  0.00  0.00    +0.000 C 
BRANCH  33  34
ATOM     34  C   UNL     1      -3.491  17.033  23.890  0.00  0.00    +0.000 C 
ATOM     35  C   UNL     1      -4.747  16.938  24.729  0.00  0.00    +0.000 C 
ATOM     36  C   UNL     1      -3.489  16.253  25.178  0.00  0.00    +0.000 C 
ENDBRANCH  33  34
ENDBRANCH  16  33
TORSDOF 6
ENDMDL
MODEL 2
REMARK VINA RESULT:      -6.2      1.621      2.322
REMARK  Name = 
REMARK  7 active torsions:
REMARK  status: ('A' for Active; 'I' for Inactive)
REMARK    1  A    between atoms: C_1  and  O_2
REMARK    2  A    between atoms: O_2  and  C_3
REMARK    3  A    between atoms: C_8  and  C_9
REMARK    4  A    between atoms: C_12  and  O_13
REMARK    5  A    between atoms: C_19  and  O_20
REMARK    6  A    between atoms: N_26  and  C_27
REMARK    7  A    between atoms: C_27  and  C_28
REMARK                            x       y       z     vdW  Elec       q    Type
REMARK                         _______ _______ _______ _____ _____    ______ ____
ROOT
ATOM      1  C   UNL     1      -5.268  13.666  20.232  0.00  0.00    +0.000 C 
ATOM      2  C   UNL     1      -4.326  12.690  20.003  0.00  0.00    +0.000 C 
ATOM      3  C   UNL     1      -3.466  12.279  21.103  0.00  0.00    +0.000 C 
ATOM      4  C   UNL     1      -2.254  13.216  20.966  0.00  0.00    +0.000 C 
ATOM      5  C   UNL     1      -1.648  13.631  22.306  0.00  0.00    +0.000 C 
ATOM      6  C   UNL     1      -1.544  12.381  23.220  0.00  0.00    +0.000 C 
ATOM      7  C   UNL     1      -0.940  11.220  22.482  0.00  0.00    +0.000 A 
ATOM      8  C   UNL     1      -0.785   9.976  23.099  0.00  0.00    +0.000 A 
ATOM      9  C   UNL     1      -0.237   8.931  22.364  0.00  0.00    +0.000 A 
ATOM     10  C   UNL     1       0.149   9.186  21.030  0.00  0.00    +0.000 A 
ATOM     11  C   UNL     1      -0.453  10.240  20.341  0.00  0.00    +0.000 A 
ATOM     12  C   UNL     1      -0.767  11.321  21.091  0.00  0.00    +0.000 A 
ATOM     13  C   UNL     1      -1.244  12.414  20.195  0.00  0.00    +0.000 C 
ATOM     14  C   UNL     1      -0.088  13.323  19.794  0.00  0.00    +0.000 C 
ATOM     15  C   UNL     1       0.528  13.964  21.050  0.00  0.00    +0.000 C 
ATOM     16  N   UNL     1      -0.365  14.391  22.164  0.00  0.00    +0.000 NA
ATOM     17  C   UNL     1      -1.871  11.589  19.032  0.00  0.00    +0.000 C 
ATOM     18  O   UNL     1      -1.281  10.228  19.205  0.00  0.00    +0.000 OA
ATOM     19  C   UNL     1      -3.573  11.960  18.796  0.00  0.00    +0.000 C 
ATOM     20  O   UNL     1      -4.180  11.679  17.760  0.00  0.00    +0.000 OA
ENDROOT
BRANCH   1  26
ATOM     21  C   UNL     1      -6.047  14.054  22.729  0.00  0.00    +0.000 A 
ATOM     22  C   UNL     1      -6.411  14.951  23.775  0.00  0.00    +0.000 A 
ATOM     23  C   UNL     1      -6.212  16.320  23.667  0.00  0.00    +0.000 A 
ATOM     24  C   UNL     1      -5.495  16.787  22.589  0.00  0.00    +0.000 A 
ATOM     25  C   UNL     1      -4.989  15.881  21.635  0.00  0.00    +0.000 A 
ATOM     26  C   UNL     1      -5.374  14.517  21.564  0.00  0.00    +0.000 A 
BRANCH  21  28
ATOM     27  C   UNL     1      -7.279  12.346  23.831  0.00  0.00    +0.000 C 
ATOM     28  O   UNL     1      -6.353  12.714  22.804  0.00  0.00    +0.000 OA
ENDBRANCH  21  28
ENDBRANCH   1  26
BRANCH   4  29
ATOM     29  O   UNL     1      -2.503  14.412  20.189  0.00  0.00    +0.000 OA
ATOM     30  H   UNL     1      -3.379  14.331  19.778  0.00  0.00    +0.000 HD
ENDBRANCH   4  29
BRANCH  10  31
ATOM     31  O   UNL     1       1.599   9.378  21.109  0.00  0.00    +0.000 OA
ATOM     32  H   UNL     1       1.789   9.588  22.026  0.00  0.00    +0.000 HD
ENDBRANCH  10  31
BRANCH  16  33
ATOM     33  C   UNL     1      -0.562  15.858  22.093  0.00  0.00    +0.000 C 
BRANCH  33  34
ATOM     34  C   UNL     1      -1.639  16.350  22.989  0.00  0.00    +0.000 C 
ATOM     35  C   UNL     1      -1.326  17.084  24.275  0.00  0.00    +0.000 C 
ATOM     36  C   UNL     1      -1.971  17.811  23.131  0.00  0.00    +0.000 C 
ENDBRANCH  33  34
ENDBRANCH  16  33
TORSDOF 6
ENDMDL
MODEL 3
REMARK VINA RESULT:      -6.0      9.554     13.002
REMARK  Name = 
REMARK  7 active torsions:
REMARK  status: ('A' for Active; 'I' for Inactive)
REMARK    1  A    between atoms: C_1  and  O_2
REMARK    2  A    between atoms: O_2  and  C_3
REMARK    3  A    between atoms: C_8  and  C_9
REMARK    4  A    between atoms: C_12  and  O_13
REMARK    5  A    between atoms: C_19  and  O_20
REMARK    6  A    between atoms: N_26  and  C_27
REMARK    7  A    between atoms: C_27  and  C_28
REMARK                            x       y       z     vdW  Elec       q    Type
REMARK                         _______ _______ _______ _____ _____    ______ ____
ROOT
ATOM      1  C   UNL     1       9.058  13.072  22.889  0.00  0.00    +0.000 C 
ATOM      2  C   UNL     1       9.707  13.272  21.693  0.00  0.00    +0.000 C 
ATOM      3  C   UNL     1       9.599  14.573  21.049  0.00  0.00    +0.000 C 
ATOM      4  C   UNL     1       8.370  14.409  20.138  0.00  0.00    +0.000 C 
ATOM      5  C   UNL     1       7.530  15.680  20.013  0.00  0.00    +0.000 C 
ATOM      6  C   UNL     1       8.477  16.890  19.802  0.00  0.00    +0.000 C 
ATOM      7  C   UNL     1       9.505  16.597  18.747  0.00  0.00    +0.000 A 
ATOM      8  C   UNL     1      10.489  17.533  18.418  0.00  0.00    +0.000 A 
ATOM      9  C   UNL     1      11.426  17.201  17.447  0.00  0.00    +0.000 A 
ATOM     10  C   UNL     1      11.328  15.935  16.831  0.00  0.00    +0.000 A 
ATOM     11  C   UNL     1      10.677  14.902  17.507  0.00  0.00    +0.000 A 
ATOM     12  C   UNL     1       9.628  15.279  18.273  0.00  0.00    +0.000 A 
ATOM     13  C   UNL     1       8.942  14.061  18.794  0.00  0.00    +0.000 C 
ATOM     14  C   UNL     1       7.809  13.644  17.864  0.00  0.00    +0.000 C 
ATOM     15  C   UNL     1       6.773  14.777  17.769  0.00  0.00    +0.000 C 
ATOM     16  N   UNL     1       6.443  15.569  18.987  0.00  0.00    +0.000 NA
ATOM     17  C   UNL     1      10.135  13.062  18.872  0.00  0.00    +0.000 C 
ATOM     18  O   UNL     1      11.175  13.682  17.999  0.00  0.00    +0.000 OA
ATOM     19  C   UNL     1      10.380  12.446  20.500  0.00  0.00    +0.000 C 
ATOM     20  O   UNL     1      11.037  11.429  20.738  0.00  0.00    +0.000 OA
ENDROOT
BRANCH   1  26
ATOM     21  C   UNL     1       6.630  13.930  23.492  0.00  0.00    +0.000 A 
ATOM     22  C   UNL     1       5.749  15.011  23.785  0.00  0.00    +0.000 A 
ATOM     23  C   UNL     1       6.220  16.291  24.040  0.00  0.00    +0.000 A 
ATOM     24  C   UNL     1       7.580  16.466  24.170  0.00  0.00    +0.000 A 
ATOM     25  C   UNL     1       8.446  15.362  24.044  0.00  0.00    +0.000 A 
ATOM     26  C   UNL     1       8.042  14.098  23.542  0.00  0.00    +0.000 A 
BRANCH  21  28
ATOM     27  C   UNL     1       6.072  11.725  24.183  0.00  0.00    +0.000 C 
ATOM     28  O   UNL     1       6.143  12.694  23.133  0.00  0.00    +0.000 OA
ENDBRANCH  21  28
ENDBRANCH   1  26
BRANCH   4  29
ATOM     29  O   UNL     1       7.493  13.318  20.503  0.00  0.00    +0.000 OA
ATOM     30  H   UNL     1       7.443  12.702  19.753  0.00  0.00    +0.000 HD
ENDBRANCH   4  29
BRANCH  10  31
ATOM     31  O   UNL     1      10.671  16.211  15.551  0.00  0.00    +0.000 OA
ATOM     32  H   UNL     1      10.936  17.101  15.304  0.00  0.00    +0.000 HD
ENDBRANCH  10  31
BRANCH  16  33
ATOM     33  C   UNL     1       5.160  15.087  19.548  0.00  0.00    +0.000 C 
BRANCH  33  34
ATOM     34  C   UNL     1       4.228  14.563  18.519  0.00  0.00    +0.000 C 
ATOM     35  C   UNL     1       2.770  14.302  18.828  0.00  0.00    +0.000 C 
ATOM     36  C   UNL     1       3.154  15.409  17.890  0.00  0.00    +0.000 C 
ENDBRANCH  33  34
ENDBRANCH  16  33
TORSDOF 6
ENDMDL
MODEL 4
REMARK VINA RESULT:      -6.0      3.515      8.295
REMARK  Name = 
REMARK  7 active torsions:
REMARK  status: ('A' for Active; 'I' for Inactive)
REMARK    1  A    between atoms: C_1  and  O_2
REMARK    2  A    between atoms: O_2  and  C_3
REMARK    3  A    between atoms: C_8  and  C_9
REMARK    4  A    between atoms: C_12  and  O_13
REMARK    5  A    between atoms: C_19  and  O_20
REMARK    6  A    between atoms: N_26  and  C_27
REMARK    7  A    between atoms: C_27  and  C_28
REMARK                            x       y       z     vdW  Elec       q    Type
REMARK                         _______ _______ _______ _____ _____    ______ ____
ROOT
ATOM      1  C   UNL     1       1.189   8.337  21.333  0.00  0.00    +0.000 C 
ATOM      2  C   UNL     1       0.178   9.216  21.645  0.00  0.00    +0.000 C 
ATOM      3  C   UNL     1      -0.598   9.799  20.561  0.00  0.00    +0.000 C 
ATOM      4  C   UNL     1       0.170  11.092  20.239  0.00  0.00    +0.000 C 
ATOM      5  C   UNL     1       0.165  11.452  18.754  0.00  0.00    +0.000 C 
ATOM      6  C   UNL     1      -1.269  11.261  18.195  0.00  0.00    +0.000 C 
ATOM      7  C   UNL     1      -2.291  11.895  19.096  0.00  0.00    +0.000 A 
ATOM      8  C   UNL     1      -3.656  11.813  18.808  0.00  0.00    +0.000 A 
ATOM      9  C   UNL     1      -4.558  12.402  19.686  0.00  0.00    +0.000 A 
ATOM     10  C   UNL     1      -4.046  13.067  20.821  0.00  0.00    +0.000 A 
ATOM     11  C   UNL     1      -2.786  12.711  21.303  0.00  0.00    +0.000 A 
ATOM     12  C   UNL     1      -1.884  12.351  20.361  0.00  0.00    +0.000 A 
ATOM     13  C   UNL     1      -0.553  12.161  21.009  0.00  0.00    +0.000 C 
ATOM     14  C   UNL     1       0.259  13.449  20.955  0.00  0.00    +0.000 C 
ATOM     15  C   UNL     1       0.490  13.856  19.489  0.00  0.00    +0.000 C 
ATOM     16  N   UNL     1       0.755  12.800  18.472  0.00  0.00    +0.000 NA
ATOM     17  C   UNL     1      -0.982  11.708  22.436  0.00  0.00    +0.000 C 
ATOM     18  O   UNL     1      -2.411  12.129  22.527  0.00  0.00    +0.000 OA
ATOM     19  C   UNL     1      -0.337  10.127  22.854  0.00  0.00    +0.000 C 
ATOM     20  O   UNL     1      -0.276   9.716  24.016  0.00  0.00    +0.000 OA
ENDROOT
BRANCH   1  26
ATOM     21  C   UNL     1       2.300   6.809  19.483  0.00  0.00    +0.000 A 
ATOM     22  C   UNL     1       3.042   6.693  18.271  0.00  0.00    +0.000 A 
ATOM     23  C   UNL     1       3.292   7.790  17.458  0.00  0.00    +0.000 A 
ATOM     24  C   UNL     1       2.663   8.976  17.760  0.00  0.00    +0.000 A 
ATOM     25  C   UNL     1       1.794   9.050  18.868  0.00  0.00    +0.000 A 
ATOM     26  C   UNL     1       1.702   8.043  19.863  0.00  0.00    +0.000 A 
BRANCH  21  28
ATOM     27  C   UNL     1       3.052   4.643  20.108  0.00  0.00    +0.000 C 
ATOM     28  O   UNL     1       2.156   5.736  20.332  0.00  0.00    +0.000 OA
ENDBRANCH  21  28
ENDBRANCH   1  26
BRANCH   4  29
ATOM     29  O   UNL     1       1.540  11.110  20.707  0.00  0.00    +0.000 OA
ATOM     30  H   UNL     1       1.550  10.814  21.632  0.00  0.00    +0.000 HD
ENDBRANCH   4  29
BRANCH  10  31
ATOM     31  O   UNL     1      -4.077  14.484  20.448  0.00  0.00    +0.000 OA
ATOM     32  H   UNL     1      -4.989  14.676  20.214  0.00  0.00    +0.000 HD
ENDBRANCH  10  31
BRANCH  16  33
ATOM     33  C   UNL     1       2.209  12.752  18.189  0.00  0.00    +0.000 C 
BRANCH  33  34
ATOM     34  C   UNL     1       2.932  13.975  18.617  0.00  0.00    +0.000 C 
ATOM     35  C   UNL     1       4.339  14.270  18.144  0.00  0.00    +0.000 C 
ATOM     36  C   UNL     1       3.195  15.129  17.688  0.00  0.00    +0.000 C 
ENDBRANCH  33  34
ENDBRANCH  16  33
TORSDOF 6
ENDMDL
MODEL 5
REMARK VINA RESULT:      -6.0      2.470      4.212
REMARK  Name = 
REMARK  7 active torsions:
REMARK  status: ('A' for Active; 'I' for Inactive)
REMARK    1  A    between atoms: C_1  and  O_2
REMARK    2  A    between atoms: O_2  and  C_3
REMARK    3  A    between atoms: C_8  and  C_9
REMARK    4  A    between atoms: C_12  and  O_13
REMARK    5  A    between atoms: C_19  and  O_20
REMARK    6  A    between atoms: N_26  and  C_27
REMARK    7  A    between atoms: C_27  and  C_28
REMARK                            x       y       z     vdW  Elec       q    Type
REMARK                         _______ _______ _______ _____ _____    ______ ____
ROOT
ATOM      1  C   UNL     1      -4.179  13.649  21.458  0.00  0.00    +0.000 C 
ATOM      2  C   UNL     1      -3.563  12.755  20.614  0.00  0.00    +0.000 C 
ATOM      3  C   UNL     1      -2.208  12.323  20.923  0.00  0.00    +0.000 C 
ATOM      4  C   UNL     1      -1.337  13.344  20.172  0.00  0.00    +0.000 C 
ATOM      5  C   UNL     1      -0.044  13.700  20.904  0.00  0.00    +0.000 C 
ATOM      6  C   UNL     1       0.604  12.398  21.444  0.00  0.00    +0.000 C 
ATOM      7  C   UNL     1       0.644  11.334  20.384  0.00  0.00    +0.000 A 
ATOM      8  C   UNL     1       1.152  10.061  20.659  0.00  0.00    +0.000 A 
ATOM      9  C   UNL     1       1.148   9.109  19.646  0.00  0.00    +0.000 A 
ATOM     10  C   UNL     1       0.640   9.483  18.382  0.00  0.00    +0.000 A 
ATOM     11  C   UNL     1      -0.264  10.542  18.303  0.00  0.00    +0.000 A 
ATOM     12  C   UNL     1      -0.065  11.545  19.189  0.00  0.00    +0.000 A 
ATOM     13  C   UNL     1      -0.998  12.666  18.874  0.00  0.00    +0.000 C 
ATOM     14  C   UNL     1      -0.332  13.673  17.946  0.00  0.00    +0.000 C 
ATOM     15  C   UNL     1       0.916  14.262  18.627  0.00  0.00    +0.000 C 
ATOM     16  N   UNL     1       0.882  14.550  20.089  0.00  0.00    +0.000 NA
ATOM     17  C   UNL     1      -2.196  11.886  18.255  0.00  0.00    +0.000 C 
ATOM     18  O   UNL     1      -1.613  10.558  17.905  0.00  0.00    +0.000 OA
ATOM     19  C   UNL     1      -3.694  12.163  19.134  0.00  0.00    +0.000 C 
ATOM     20  O   UNL     1      -4.804  11.918  18.655  0.00  0.00    +0.000 OA
ENDROOT
BRANCH   1  26
ATOM     21  C   UNL     1      -3.386  13.857  23.972  0.00  0.00    +0.000 A 
ATOM     22  C   UNL     1      -3.037  14.677  25.085  0.00  0.00    +0.000 A 
ATOM     23  C   UNL     1      -2.845  16.045  24.954  0.00  0.00    +0.000 A 
ATOM     24  C   UNL     1      -2.834  16.579  23.685  0.00  0.00    +0.000 A 
ATOM     25  C   UNL     1      -3.015  15.739  22.567  0.00  0.00    +0.000 A 
ATOM     26  C   UNL     1      -3.460  14.395  22.657  0.00  0.00    +0.000 A 
BRANCH  21  28
ATOM     27  C   UNL     1      -4.890  12.239  24.850  0.00  0.00    +0.000 C 
ATOM     28  O   UNL     1      -3.681  12.523  24.138  0.00  0.00    +0.000 OA
ENDBRANCH  21  28
ENDBRANCH   1  26
BRANCH   4  29
ATOM     29  O   UNL     1      -2.016  14.573  19.823  0.00  0.00    +0.000 OA
ATOM     30  H   UNL     1      -2.178  14.572  18.866  0.00  0.00    +0.000 HD
ENDBRANCH   4  29
BRANCH  10  31
ATOM     31  O   UNL     1       1.838   9.762  17.586  0.00  0.00    +0.000 OA
ATOM     32  H   UNL     1       1.960  10.714  17.616  0.00  0.00    +0.000 HD
ENDBRANCH  10  31
BRANCH  16  33
ATOM     33  C   UNL     1       0.671  16.002  20.293  0.00  0.00    +0.000 C 
BRANCH  33  34
ATOM     34  C   UNL     1       0.694  16.782  19.030  0.00  0.00    +0.000 C 
ATOM     35  C   UNL     1      -0.513  17.567  18.562  0.00  0.00    +0.000 C 
ATOM     36  C   UNL     1       0.728  18.287  19.007  0.00  0.00    +0.000 C 
ENDBRANCH  33  34
ENDBRANCH  16  33
TORSDOF 6
ENDMDL
MODEL 6
REMARK VINA RESULT:      -5.9      9.738     12.997
REMARK  Name = 
REMARK  7 active torsions:
REMARK  status: ('A' for Active; 'I' for Inactive)
REMARK    1  A    between atoms: C_1  and  O_2
REMARK    2  A    between atoms: O_2  and  C_3
REMARK    3  A    between atoms: C_8  and  C_9
REMARK    4  A    between atoms: C_12  and  O_13
REMARK    5  A    between atoms: C_19  and  O_20
REMARK    6  A    between atoms: N_26  and  C_27
REMARK    7  A    between atoms: C_27  and  C_28
REMARK                            x       y       z     vdW  Elec       q    Type
REMARK                         _______ _______ _______ _____ _____    ______ ____
ROOT
ATOM      1  C   UNL     1       8.682  12.905  22.983  0.00  0.00    +0.000 C 
ATOM      2  C   UNL     1       9.230  12.929  21.721  0.00  0.00    +0.000 C 
ATOM      3  C   UNL     1       9.686  14.202  21.183  0.00  0.00    +0.000 C 
ATOM      4  C   UNL     1       8.443  14.735  20.449  0.00  0.00    +0.000 C 
ATOM      5  C   UNL     1       8.295  16.254  20.525  0.00  0.00    +0.000 C 
ATOM      6  C   UNL     1       9.675  16.909  20.257  0.00  0.00    +0.000 C 
ATOM      7  C   UNL     1      10.335  16.307  19.050  0.00  0.00    +0.000 A 
ATOM      8  C   UNL     1      11.607  16.718  18.642  0.00  0.00    +0.000 A 
ATOM      9  C   UNL     1      12.178  16.114  17.528  0.00  0.00    +0.000 A 
ATOM     10  C   UNL     1      11.434  15.121  16.854  0.00  0.00    +0.000 A 
ATOM     11  C   UNL     1      10.443  14.430  17.551  0.00  0.00    +0.000 A 
ATOM     12  C   UNL     1       9.775  15.150  18.481  0.00  0.00    +0.000 A 
ATOM     13  C   UNL     1       8.650  14.330  19.017  0.00  0.00    +0.000 C 
ATOM     14  C   UNL     1       7.370  14.599  18.234  0.00  0.00    +0.000 C 
ATOM     15  C   UNL     1       6.987  16.084  18.360  0.00  0.00    +0.000 C 
ATOM     16  N   UNL     1       7.191  16.783  19.661  0.00  0.00    +0.000 NA
ATOM     17  C   UNL     1       9.231  12.894  18.861  0.00  0.00    +0.000 C 
ATOM     18  O   UNL     1      10.350  13.068  17.888  0.00  0.00    +0.000 OA
ATOM     19  C   UNL     1       9.313  12.039  20.395  0.00  0.00    +0.000 C 
ATOM     20  O   UNL     1       9.432  10.814  20.472  0.00  0.00    +0.000 OA
ENDROOT
BRANCH   1  26
ATOM     21  C   UNL     1       7.024  14.724  23.950  0.00  0.00    +0.000 A 
ATOM     22  C   UNL     1       6.800  16.045  24.437  0.00  0.00    +0.000 A 
ATOM     23  C   UNL     1       7.849  16.903  24.734  0.00  0.00    +0.000 A 
ATOM     24  C   UNL     1       9.129  16.394  24.708  0.00  0.00    +0.000 A 
ATOM     25  C   UNL     1       9.340  15.038  24.387  0.00  0.00    +0.000 A 
ATOM     26  C   UNL     1       8.340  14.195  23.838  0.00  0.00    +0.000 A 
BRANCH  21  28
ATOM     27  C   UNL     1       4.785  14.615  23.159  0.00  0.00    +0.000 C 
ATOM     28  O   UNL     1       5.974  13.926  23.556  0.00  0.00    +0.000 OA
ENDBRANCH  21  28
ENDBRANCH   1  26
BRANCH   4  29
ATOM     29  O   UNL     1       7.195  14.134  20.866  0.00  0.00    +0.000 OA
ATOM     30  H   UNL     1       7.397  13.323  21.361  0.00  0.00    +0.000 HD
ENDBRANCH   4  29
BRANCH  10  31
ATOM     31  O   UNL     1      10.865  15.823  15.701  0.00  0.00    +0.000 OA
ATOM     32  H   UNL     1      11.500  16.504  15.466  0.00  0.00    +0.000 HD
ENDBRANCH  10  31
BRANCH  16  33
ATOM     33  C   UNL     1       5.893  16.880  20.368  0.00  0.00    +0.000 C 
BRANCH  33  34
ATOM     34  C   UNL     1       4.721  16.738  19.469  0.00  0.00    +0.000 C 
ATOM     35  C   UNL     1       3.661  15.684  19.709  0.00  0.00    +0.000 C 
ATOM     36  C   UNL     1       3.329  17.139  19.879  0.00  0.00    +0.000 C 
ENDBRANCH  33  34
ENDBRANCH  16  33
TORSDOF 6
ENDMDL
MODEL 7
REMARK VINA RESULT:      -5.9      2.347      5.248
REMARK  Name = 
REMARK  7 active torsions:
REMARK  status: ('A' for Active; 'I' for Inactive)
REMARK    1  A    between atoms: C_1  and  O_2
REMARK    2  A    between atoms: O_2  and  C_3
REMARK    3  A    between atoms: C_8  and  C_9
REMARK    4  A    between atoms: C_12  and  O_13
REMARK    5  A    between atoms: C_19  and  O_20
REMARK    6  A    between atoms: N_26  and  C_27
REMARK    7  A    between atoms: C_27  and  C_28
REMARK                            x       y       z     vdW  Elec       q    Type
REMARK                         _______ _______ _______ _____ _____    ______ ____
ROOT
ATOM      1  C   UNL     1      -7.692  12.895  21.526  0.00  0.00    +0.000 C 
ATOM      2  C   UNL     1      -6.774  13.180  22.510  0.00  0.00    +0.000 C 
ATOM      3  C   UNL     1      -5.742  14.169  22.238  0.00  0.00    +0.000 C 
ATOM      4  C   UNL     1      -4.589  13.323  21.671  0.00  0.00    +0.000 C 
ATOM      5  C   UNL     1      -3.791  14.032  20.578  0.00  0.00    +0.000 C 
ATOM      6  C   UNL     1      -3.514  15.492  21.025  0.00  0.00    +0.000 C 
ATOM      7  C   UNL     1      -3.006  15.539  22.437  0.00  0.00    +0.000 A 
ATOM      8  C   UNL     1      -2.725  16.757  23.062  0.00  0.00    +0.000 A 
ATOM      9  C   UNL     1      -2.275  16.742  24.378  0.00  0.00    +0.000 A 
ATOM     10  C   UNL     1      -2.110  15.492  25.012  0.00  0.00    +0.000 A 
ATOM     11  C   UNL     1      -2.838  14.396  24.546  0.00  0.00    +0.000 A 
ATOM     12  C   UNL     1      -3.056  14.367  23.212  0.00  0.00    +0.000 A 
ATOM     13  C   UNL     1      -3.694  13.068  22.850  0.00  0.00    +0.000 C 
ATOM     14  C   UNL     1      -2.638  12.041  22.461  0.00  0.00    +0.000 C 
ATOM     15  C   UNL     1      -1.848  12.546  21.241  0.00  0.00    +0.000 C 
ATOM     16  N   UNL     1      -2.565  13.279  20.160  0.00  0.00    +0.000 NA
ATOM     17  C   UNL     1      -4.476  12.751  24.159  0.00  0.00    +0.000 C 
ATOM     18  O   UNL     1      -3.834  13.631  25.179  0.00  0.00    +0.000 OA
ATOM     19  C   UNL     1      -6.203  12.577  23.877  0.00  0.00    +0.000 C 
ATOM     20  O   UNL     1      -6.959  12.023  24.679  0.00  0.00    +0.000 OA
ENDROOT
BRANCH   1  26
ATOM     21  C   UNL     1      -7.254  12.607  18.934  0.00  0.00    +0.000 A 
ATOM     22  C   UNL     1      -6.866  13.174  17.685  0.00  0.00    +0.000 A 
ATOM     23  C   UNL     1      -6.725  14.543  17.515  0.00  0.00    +0.000 A 
ATOM     24  C   UNL     1      -7.133  15.368  18.539  0.00  0.00    +0.000 A 
ATOM     25  C   UNL     1      -7.674  14.813  19.716  0.00  0.00    +0.000 A 
ATOM     26  C   UNL     1      -7.607  13.432  20.037  0.00  0.00    +0.000 A 
BRANCH  21  28
ATOM     27  C   UNL     1      -6.284  10.502  18.407  0.00  0.00    +0.000 C 
ATOM     28  O   UNL     1      -7.281  11.243  19.117  0.00  0.00    +0.000 OA
ENDBRANCH  21  28
ENDBRANCH   1  26
BRANCH   4  29
ATOM     29  O   UNL     1      -4.986  12.023  21.173  0.00  0.00    +0.000 OA
ATOM     30  H   UNL     1      -5.491  12.151  20.353  0.00  0.00    +0.000 HD
ENDBRANCH   4  29
BRANCH  10  31
ATOM     31  O   UNL     1      -0.670  15.234  24.923  0.00  0.00    +0.000 OA
ATOM     32  H   UNL     1      -0.269  16.064  24.651  0.00  0.00    +0.000 HD
ENDBRANCH  10  31
BRANCH  16  33
ATOM     33  C   UNL     1      -2.806  12.358  19.024  0.00  0.00    +0.000 C 
BRANCH  33  34
ATOM     34  C   UNL     1      -1.981  11.126  19.082  0.00  0.00    +0.000 C 
ATOM     35  C   UNL     1      -2.197   9.982  18.116  0.00  0.00    +0.000 C 
ATOM     36  C   UNL     1      -0.939  10.798  18.046  0.00  0.00    +0.000 C 
ENDBRANCH  33  34
ENDBRANCH  16  33
TORSDOF 6
ENDMDL
MODEL 8
REMARK VINA RESULT:      -5.9      1.758      2.377
REMARK  Name = 
REMARK  7 active torsions:
REMARK  status: ('A' for Active; 'I' for Inactive)
REMARK    1  A    between atoms: C_1  and  O_2
REMARK    2  A    between atoms: O_2  and  C_3
REMARK    3  A    between atoms: C_8  and  C_9
REMARK    4  A    between atoms: C_12  and  O_13
REMARK    5  A    between atoms: C_19  and  O_20
REMARK    6  A    between atoms: N_26  and  C_27
REMARK    7  A    between atoms: C_27  and  C_28
REMARK                            x       y       z     vdW  Elec       q    Type
REMARK                         _______ _______ _______ _____ _____    ______ ____
ROOT
ATOM      1  C   UNL     1      -5.004  13.718  20.055  0.00  0.00    +0.000 C 
ATOM      2  C   UNL     1      -4.123  12.678  19.867  0.00  0.00    +0.000 C 
ATOM      3  C   UNL     1      -3.286  12.262  20.982  0.00  0.00    +0.000 C 
ATOM      4  C   UNL     1      -2.019  13.118  20.806  0.00  0.00    +0.000 C 
ATOM      5  C   UNL     1      -1.386  13.551  22.127  0.00  0.00    +0.000 C 
ATOM      6  C   UNL     1      -1.354  12.337  23.092  0.00  0.00    +0.000 C 
ATOM      7  C   UNL     1      -0.824  11.112  22.404  0.00  0.00    +0.000 A 
ATOM      8  C   UNL     1      -0.741   9.888  23.072  0.00  0.00    +0.000 A 
ATOM      9  C   UNL     1      -0.260   8.782  22.381  0.00  0.00    +0.000 A 
ATOM     10  C   UNL     1       0.136   8.957  21.037  0.00  0.00    +0.000 A 
ATOM     11  C   UNL     1      -0.403  10.015  20.305  0.00  0.00    +0.000 A 
ATOM     12  C   UNL     1      -0.648  11.144  21.009  0.00  0.00    +0.000 A 
ATOM     13  C   UNL     1      -1.062  12.225  20.068  0.00  0.00    +0.000 C 
ATOM     14  C   UNL     1       0.145  13.045  19.629  0.00  0.00    +0.000 C 
ATOM     15  C   UNL     1       0.802  13.700  20.856  0.00  0.00    +0.000 C 
ATOM     16  N   UNL     1      -0.060  14.226  21.952  0.00  0.00    +0.000 NA
ATOM     17  C   UNL     1      -1.741  11.391  18.942  0.00  0.00    +0.000 C 
ATOM     18  O   UNL     1      -1.234  10.006  19.171  0.00  0.00    +0.000 OA
ATOM     19  C   UNL     1      -3.418  11.854  18.691  0.00  0.00    +0.000 C 
ATOM     20  O   UNL     1      -4.045  11.567  17.668  0.00  0.00    +0.000 OA
ENDROOT
BRANCH   1  26
ATOM     21  C   UNL     1      -4.430  15.905  21.426  0.00  0.00    +0.000 A 
ATOM     22  C   UNL     1      -4.208  16.543  22.682  0.00  0.00    +0.000 A 
ATOM     23  C   UNL     1      -4.502  15.915  23.884  0.00  0.00    +0.000 A 
ATOM     24  C   UNL     1      -5.175  14.715  23.840  0.00  0.00    +0.000 A 
ATOM     25  C   UNL     1      -5.544  14.161  22.597  0.00  0.00    +0.000 A 
ATOM     26  C   UNL     1      -5.054  14.629  21.351  0.00  0.00    +0.000 A 
BRANCH  21  28
ATOM     27  C   UNL     1      -4.809  17.618  19.822  0.00  0.00    +0.000 C 
ATOM     28  O   UNL     1      -4.031  16.496  20.249  0.00  0.00    +0.000 OA
ENDBRANCH  21  28
ENDBRANCH   1  26
BRANCH   4  29
ATOM     29  O   UNL     1      -2.199  14.293  19.980  0.00  0.00    +0.000 OA
ATOM     30  H   UNL     1      -2.918  14.118  19.351  0.00  0.00    +0.000 HD
ENDBRANCH   4  29
BRANCH  10  31
ATOM     31  O   UNL     1       1.596   9.065  21.107  0.00  0.00    +0.000 OA
ATOM     32  H   UNL     1       1.779   9.834  21.652  0.00  0.00    +0.000 HD
ENDBRANCH  10  31
BRANCH  16  33
ATOM     33  C   UNL     1      -0.168  15.698  21.820  0.00  0.00    +0.000 C 
BRANCH  33  34
ATOM     34  C   UNL     1       0.130  16.425  23.079  0.00  0.00    +0.000 C 
ATOM     35  C   UNL     1      -0.602  17.696  23.453  0.00  0.00    +0.000 C 
ATOM     36  C   UNL     1      -0.815  16.441  24.250  0.00  0.00    +0.000 C 
ENDBRANCH  33  34
ENDBRANCH  16  33
TORSDOF 6
ENDMDL
MODEL 9
REMARK VINA RESULT:      -5.9      1.853      2.986
REMARK  Name = 
REMARK  7 active torsions:
REMARK  status: ('A' for Active; 'I' for Inactive)
REMARK    1  A    between atoms: C_1  and  O_2
REMARK    2  A    between atoms: O_2  and  C_3
REMARK    3  A    between atoms: C_8  and  C_9
REMARK    4  A    between atoms: C_12  and  O_13
REMARK    5  A    between atoms: C_19  and  O_20
REMARK    6  A    between atoms: N_26  and  C_27
REMARK    7  A    between atoms: C_27  and  C_28
REMARK                            x       y       z     vdW  Elec       q    Type
REMARK                         _______ _______ _______ _____ _____    ______ ____
ROOT
ATOM      1  C   UNL     1      -5.028  13.927  20.268  0.00  0.00    +0.000 C 
ATOM      2  C   UNL     1      -4.185  12.859  20.065  0.00  0.00    +0.000 C 
ATOM      3  C   UNL     1      -3.290  12.462  21.140  0.00  0.00    +0.000 C 
ATOM      4  C   UNL     1      -2.017  13.277  20.853  0.00  0.00    +0.000 C 
ATOM      5  C   UNL     1      -1.292  13.741  22.116  0.00  0.00    +0.000 C 
ATOM      6  C   UNL     1      -1.228  12.561  23.121  0.00  0.00    +0.000 C 
ATOM      7  C   UNL     1      -0.771  11.299  22.448  0.00  0.00    +0.000 A 
ATOM      8  C   UNL     1      -0.676  10.097  23.155  0.00  0.00    +0.000 A 
ATOM      9  C   UNL     1      -0.265   8.956  22.476  0.00  0.00    +0.000 A 
ATOM     10  C   UNL     1       0.049   9.072  21.105  0.00  0.00    +0.000 A 
ATOM     11  C   UNL     1      -0.510  10.118  20.369  0.00  0.00    +0.000 A 
ATOM     12  C   UNL     1      -0.683  11.277  21.045  0.00  0.00    +0.000 A 
ATOM     13  C   UNL     1      -1.130  12.334  20.091  0.00  0.00    +0.000 C 
ATOM     14  C   UNL     1       0.066  13.106  19.548  0.00  0.00    +0.000 C 
ATOM     15  C   UNL     1       0.815  13.787  20.707  0.00  0.00    +0.000 C 
ATOM     16  N   UNL     1       0.036  14.374  21.834  0.00  0.00    +0.000 NA
ATOM     17  C   UNL     1      -1.898  11.478  19.041  0.00  0.00    +0.000 C 
ATOM     18  O   UNL     1      -1.410  10.090  19.290  0.00  0.00    +0.000 OA
ATOM     19  C   UNL     1      -3.576  11.976  18.878  0.00  0.00    +0.000 C 
ATOM     20  O   UNL     1      -4.273  11.669  17.907  0.00  0.00    +0.000 OA
ENDROOT
BRANCH   1  26
ATOM     21  C   UNL     1      -4.360  16.168  21.504  0.00  0.00    +0.000 A 
ATOM     22  C   UNL     1      -4.036  16.852  22.712  0.00  0.00    +0.000 A 
ATOM     23  C   UNL     1      -4.218  16.267  23.957  0.00  0.00    +0.000 A 
ATOM     24  C   UNL     1      -4.880  15.062  24.015  0.00  0.00    +0.000 A 
ATOM     25  C   UNL     1      -5.350  14.460  22.830  0.00  0.00    +0.000 A 
ATOM     26  C   UNL     1      -4.975  14.885  21.530  0.00  0.00    +0.000 A 
BRANCH  21  28
ATOM     27  C   UNL     1      -3.162  17.823  20.291  0.00  0.00    +0.000 C 
ATOM     28  O   UNL     1      -4.070  16.717  20.277  0.00  0.00    +0.000 OA
ENDBRANCH  21  28
ENDBRANCH   1  26
BRANCH   4  29
ATOM     29  O   UNL     1      -2.220  14.426  19.997  0.00  0.00    +0.000 OA
ATOM     30  H   UNL     1      -1.353  14.731  19.684  0.00  0.00    +0.000 HD
ENDBRANCH   4  29
BRANCH  10  31
ATOM     31  O   UNL     1       1.513   9.145  21.080  0.00  0.00    +0.000 OA
ATOM     32  H   UNL     1       1.747   9.940  21.565  0.00  0.00    +0.000 HD
ENDBRANCH  10  31
BRANCH  16  33
ATOM     33  C   UNL     1      -0.045  15.843  21.654  0.00  0.00    +0.000 C 
BRANCH  33  34
ATOM     34  C   UNL     1       0.912  16.366  20.648  0.00  0.00    +0.000 C 
ATOM     35  C   UNL     1       0.447  17.182  19.461  0.00  0.00    +0.000 C 
ATOM     36  C   UNL     1       1.263  17.826  20.545  0.00  0.00    +0.000 C 
ENDBRANCH  33  34
ENDBRANCH  16  33
TORSDOF 6
ENDMDL
